version 2
run Exponential-capacity-12-20210217-10:20:39-2176
attr configname Exponential-capacity
attr datetime 20210217-10:20:39
attr experiment Exponential-capacity
attr inifile aerocom.ini
attr iterationvars "$0=60, $1=0.7"
attr iterationvarsf 60,0.7-
attr measurement "$0=60, $1=0.7"
attr network Aerocom
attr processid 2176
attr repetition 0
attr replication #0
attr resultdir results
attr runnumber 12
attr seedset 0
param **.t 3s
param **.k 60ms
param **.X 0.5s
param **.m 0.7s
param **.tDistribution "\"exponential\""
param **.operationMode 0
param **.s "70 byte"
param **.dimPoolMax 10000
param **.dimPoolMin 8000
param **.nDL 10
param **.nA 1
param **.DLMaxCapacity 0
param **.trasmitting false

vector 0 Aerocom.aircraft[0].packetGenerator arrivalTime:vector ETV
attr "" ""
attr source computeArrivalTime
vector 1 Aerocom.aircraft[0].dataLink[4] tDistribution:vector ETV
attr "" ""
attr source computeTDistribution
vector 2 Aerocom.aircraft[0].dataLink[6] tDistribution:vector ETV
attr "" ""
attr source computeTDistribution
vector 3 Aerocom.aircraft[0].linkSelector waitingTime:vector ETV
attr "" ""
attr source computeWaitingTime
vector 4 Aerocom.aircraft[0].linkSelector queueLength:vector ETV
attr "" ""
attr source computeQueueLength
vector 5 Aerocom.aircraft[0].dataLink[6] actualCapacity:vector ETV
attr "" ""
attr source computeActualCapacity
vector 6 Aerocom.aircraft[0].linkSelector serviceTime:vector ETV
attr "" ""
attr source computeServiceTime
vector 7 Aerocom.aircraft[0].linkSelector responseTime:vector ETV
attr "" ""
attr source computeResponseTime
vector 8 Aerocom.aircraft[0].dataLink[1] tDistribution:vector ETV
attr "" ""
attr source computeTDistribution
vector 9 Aerocom.aircraft[0].dataLink[0] actualCapacity:vector ETV
attr "" ""
attr source computeActualCapacity
vector 10 Aerocom.aircraft[0].dataLink[1] actualCapacity:vector ETV
attr "" ""
attr source computeActualCapacity
vector 11 Aerocom.aircraft[0].dataLink[2] actualCapacity:vector ETV
attr "" ""
attr source computeActualCapacity
vector 12 Aerocom.aircraft[0].dataLink[3] actualCapacity:vector ETV
attr "" ""
attr source computeActualCapacity
vector 13 Aerocom.aircraft[0].dataLink[4] actualCapacity:vector ETV
attr "" ""
attr source computeActualCapacity
vector 14 Aerocom.aircraft[0].dataLink[5] actualCapacity:vector ETV
attr "" ""
attr source computeActualCapacity
vector 15 Aerocom.aircraft[0].dataLink[7] actualCapacity:vector ETV
attr "" ""
attr source computeActualCapacity
vector 16 Aerocom.aircraft[0].dataLink[8] actualCapacity:vector ETV
attr "" ""
attr source computeActualCapacity
vector 17 Aerocom.aircraft[0].dataLink[9] actualCapacity:vector ETV
attr "" ""
attr source computeActualCapacity
vector 18 Aerocom.aircraft[0].dataLink[5] tDistribution:vector ETV
attr "" ""
attr source computeTDistribution
vector 19 Aerocom.aircraft[0].dataLink[8] tDistribution:vector ETV
attr "" ""
attr source computeTDistribution
vector 20 Aerocom.aircraft[0].dataLink[0] tDistribution:vector ETV
attr "" ""
attr source computeTDistribution
vector 21 Aerocom.aircraft[0].dataLink[2] tDistribution:vector ETV
attr "" ""
attr source computeTDistribution
vector 22 Aerocom.aircraft[0].dataLink[7] tDistribution:vector ETV
attr "" ""
attr source computeTDistribution
vector 23 Aerocom.aircraft[0].dataLink[9] tDistribution:vector ETV
attr "" ""
attr source computeTDistribution
vector 24 Aerocom.aircraft[0].dataLink[3] tDistribution:vector ETV
attr "" ""
attr source computeTDistribution
0	873	10.002239996404	0.032093062545
0	875	10.034333058949	0.150234706985
0	877	10.184567765934	0.003977844089
0	879	10.188545610023	0.014663726885
0	881	10.203209336908	0.070751371624
0	884	10.273960708532	0.049970610964
0	897	10.323931319496	0.050165851918
0	917	10.374097171414	0.12019443135
0	923	10.494291602764	0.018504890406
0	930	10.51279649317	0.042674876233
0	933	10.555471369403	0.044445537027
0	935	10.59991690643	0.149134941419
0	937	10.749051847849	0.005919018505
0	939	10.754970866354	0.152418270478
0	941	10.907389136832	0.051473738464
0	943	10.958862875296	0.00520622894
0	945	10.964069104236	0.158955355721
0	972	11.123024459957	0.019520424932
0	978	11.142544884889	0.023013612846
0	983	11.165558497735	0.00056404504
0	985	11.166122542775	0.066050754605
0	994	11.23217329738	0.11083965906
0	996	11.34301295644	0.008479842814
0	998	11.351492799254	0.062506839251
0	1001	11.413999638505	0.075596028607
0	1003	11.489595667112	0.110476948289
0	1028	11.600072615401	0.020499250022
0	1033	11.620571865423	0.018451063426
0	1039	11.639022928849	0.012141026314
0	1045	11.651163955163	0.030432007395
0	1053	11.681595962558	0.052987742518
0	1059	11.734583705076	0.048287843988
0	1064	11.782871549064	0.001218747528
0	1066	11.784090296592	0.010815135119
0	1071	11.794905431711	0.105944464345
0	1081	11.900849896056	0.027703853763
0	1083	11.928553749819	0.00028239243
0	1085	11.928836142249	0.009500490374
0	1087	11.938336632623	0.067958048518
0	1090	12.006294681141	0.050584981929
0	1092	12.05687966307	0.018883299651
0	1094	12.075762962721	0.072990519206
0	1097	12.148753481927	0.079725472425
0	1099	12.228478954352	0.020420804294
0	1101	12.248899758646	0.196508590663
0	1123	12.445408349309	0.034074249209
0	1137	12.479482598518	0.01716125835
0	1145	12.496643856868	0.084661464558
0	1151	12.581305321426	0.05150357807
0	1157	12.632808899496	0.030260628395
0	1159	12.663069527891	0.053795452247
0	1161	12.716864980138	0.135824014552
0	1163	12.85268899469	0.050953248694
0	1165	12.903642243384	0.061119523801
0	1167	12.964761767185	0.015145199573
0	1169	12.979906966758	0.133290413908
0	1178	13.113197380666	0.183136899413
0	1202	13.296334280079	0.068376477812
0	1208	13.364710757891	0.035557441647
0	1210	13.400268199538	0.03578276366
0	1212	13.436050963198	0.112407592791
0	1214	13.548458555989	0.230580394995
0	1216	13.779038950984	0.072134314035
0	1234	13.851173265019	0.007411598842
0	1239	13.858584863861	0.021181207996
0	1244	13.879766071857	0.087409113514
0	1250	13.967175185371	0.100855332273
0	1256	14.068030517644	0.031843349797
0	1258	14.099873867441	0.030301124865
0	1260	14.130174992306	0.067516921011
0	1262	14.197691913317	0.127769963764
0	1269	14.325461877081	0.017244628564
0	1286	14.342706505645	0.05223214958
0	1294	14.394938655225	0.022544330544
0	1299	14.417482985769	0.128089826999
0	1307	14.545572812768	0.201862227183
0	1315	14.747435039951	0.070762976019
0	1317	14.81819801597	0.053271684626
0	1319	14.871469700596	0.077514556128
0	1321	14.948984256724	0.064670093048
0	1323	15.013654349772	0.041747967654
0	1325	15.055402317426	0.045712066278
0	1327	15.101114383704	0.187528101459
0	1353	15.288642485163	0.015723434501
0	1358	15.304365919664	0.061967820639
0	1363	15.366333740303	0.030138647896
0	1368	15.396472388199	0.033083759408
0	1374	15.429556147607	0.05786721393
0	1376	15.487423361537	0.055944172824
0	1379	15.543367534361	0.038646282499
0	1382	15.58201381686	0.001162786881
0	1384	15.583176603741	0.038107662938
0	1386	15.621284266679	0.021535632952
0	1388	15.642819899631	0.075542611036
0	1391	15.718362510667	0.064759211919
0	1393	15.783121722586	0.020379883955
0	1395	15.803501606541	0.020555977482
0	1397	15.824057584023	0.029018141195
0	1399	15.853075725218	0.057742503346
0	1402	15.910818228564	0.082978752392
0	1441	15.993796980956	0.033597664204
0	1449	16.02739464516	0.126446856297
0	1455	16.153841501457	0.008734438707
0	1457	16.162575940164	0.00651282591
0	1459	16.169088766074	0.021253447935
0	1461	16.190342214009	0.005815365275
0	1463	16.196157579284	0.050633308355
0	1465	16.246790887639	0.026221680826
0	1467	16.273012568465	0.053623744698
0	1469	16.326636313163	0.048153119146
0	1472	16.374789432309	0.051244784139
0	1486	16.426034216448	0.002052205101
0	1488	16.428086421549	0.063540563123
0	1523	16.491626984672	0.208352128757
0	1532	16.699979113429	0.06335097652
0	1538	16.763330089949	0.023227805529
0	1543	16.786557895478	0.033876630067
0	1549	16.820434525545	0.015004889699
0	1551	16.835439415244	0.136118039562
0	1553	16.971557454806	0.009137617515
0	1555	16.980695072321	0.027490373037
0	1557	17.008185445358	0.006139236891
0	1559	17.014324682249	0.034347693086
0	1561	17.048672375335	0.248268585631
0	1563	17.296940960966	0.133494879434
0	1591	17.4304358404	0.018093954793
0	1596	17.448529795193	0.098453854676
0	1602	17.546983649869	0.046204611573
0	1604	17.593188261442	0.07302116972
0	1606	17.666209431162	0.035644409899
0	1608	17.701853841061	0.006336758618
0	1610	17.708190599679	0.006292910136
0	1612	17.714483509815	0.151156927805
0	1615	17.86564043762	0.026060739357
0	1617	17.891701176977	0.075156451495
0	1619	17.966857628472	0.038007757063
0	1622	18.004865385535	0.405923431196
0	1656	18.410788816731	0.110383967105
0	1659	18.521172783836	0.009712205203
0	1662	18.530884989039	0.141010637385
0	1664	18.671895626424	0.121554529026
0	1679	18.79345015545	0.002296974773
0	1681	18.795747130223	0.010639534509
0	1686	18.806386664732	0.042595075633
0	1695	18.848981740365	0.057357985435
0	1701	18.9063397258	0.010952316113
0	1703	18.917292041913	0.007931022577
0	1705	18.92522306449	0.090589407337
0	1707	19.015812471827	0.113035733195
0	1709	19.128848205022	0.120119189732
0	1713	19.248967394754	0.09880314608
0	1715	19.347770540834	0.031800172688
0	1717	19.379570713522	0.050512857704
0	1732	19.430083571226	0.009047460612
0	1737	19.439131031838	0.031372201805
0	1751	19.470503233643	0.002027207133
0	1756	19.472530440776	0.004300523059
0	1758	19.476830963835	0.242990810328
0	1771	19.719821774163	0.071726313977
0	1774	19.79154808814	0.028036353985
0	1776	19.819584442125	0.036257944311
0	1778	19.855842386436	0.032691427689
0	1780	19.888533814125	0.076820052229
0	1782	19.965353866354	0.003114753131
0	1784	19.968468619485	0.120766364172
0	1787	20.089234983657	0.027294710688
0	1796	20.116529694345	0.222597635514
0	1820	20.339127329859	0.00100606596
0	1822	20.340133395819	0.116194634249
0	1824	20.456328030068	0.01573975855
0	1826	20.472067788618	0.000706993915
0	1828	20.472774782533	0.086867644919
0	1830	20.559642427452	0.026775169231
0	1832	20.586417596683	0.173076705126
0	1834	20.759494301809	0.078557901841
0	1852	20.83805220365	0.083177481121
0	1867	20.921229684771	0.011297698513
0	1872	20.932527383284	0.02487675256
0	1877	20.957404135844	0.044167865999
0	1883	21.001572001843	0.04034763101
0	1885	21.041919632853	0.003352203173
0	1887	21.045271836026	0.02483873536
0	1889	21.070110571386	0.013388352486
0	1891	21.083498923872	0.011869770448
0	1893	21.09536869432	0.001121728225
0	1895	21.096490422545	0.011251137072
0	1897	21.107741559617	0.094704763326
0	1899	21.202446322943	0.037355840639
0	1901	21.239802163582	0.015210342309
0	1903	21.255012505891	0.124561863627
0	1907	21.379574369518	0.025419426081
0	1909	21.404993795599	0.173072657304
0	1944	21.578066452903	0.157933131753
0	1959	21.735999584656	0.056228323063
0	1961	21.792227907719	0.073127808201
0	1963	21.86535571592	0.054477841639
0	1965	21.919833557559	0.001941408279
0	1967	21.921774965838	0.091849873576
0	1969	22.013624839414	0.010797440493
0	1971	22.024422279907	0.041591986172
0	1973	22.066014266079	0.058288929486
0	1975	22.124303195565	0.003100974348
0	1977	22.127404169913	0.051655418201
0	1979	22.179059588114	0.072058254393
0	2003	22.251117842507	0.016300084221
0	2011	22.267417926728	0.29274797328
0	2027	22.560165900008	0.163280895355
0	2029	22.723446795363	0.018658068298
0	2031	22.742104863661	0.057109782453
0	2033	22.799214646114	0.068195789715
0	2035	22.867410435829	0.046024779274
0	2041	22.913435215103	0.119830318049
0	2058	23.033265533152	0.053482714615
0	2063	23.086748247767	0.083380623827
0	2069	23.170128871594	0.078587122282
0	2072	23.248715993876	0.200276060031
0	2074	23.448992053907	0.022433189754
0	2076	23.471425243661	0.048478803204
0	2078	23.519904046865	0.030471907361
0	2080	23.550375954226	0.014325172371
0	2082	23.564701126597	0.014131474405
0	2084	23.578832601002	0.015095916787
0	2086	23.593928517789	0.012361922909
0	2089	23.606290440698	0.014811556128
0	2097	23.621101996826	0.173344535514
0	2127	23.79444653234	0.050578726525
0	2133	23.845025258865	0.080720845994
0	2135	23.925746104859	0.036100739191
0	2137	23.96184684405	0.040454674178
0	2139	24.002301518228	0.210868720832
0	2141	24.21317023906	0.015480765836
0	2143	24.228651004896	0.068468274172
0	2145	24.297119279068	0.017610459115
0	2151	24.314729738183	0.0053492574
0	2156	24.320078995583	0.003586857775
0	2161	24.323665853358	0.003484341727
0	2163	24.327150195085	0.034193853918
0	2180	24.361344049003	0.040146823421
0	2195	24.401490872424	0.022420187664
0	2200	24.423911060088	0.127720205672
0	2206	24.55163126576	0.071511486219
0	2208	24.623142751979	0.22480167683
0	2224	24.847944428809	0.02846497742
0	2233	24.876409406229	0.057686374294
0	2242	24.934095780523	0.01187806412
0	2247	24.945973844643	0.046918543253
0	2252	24.992892387896	0.001499301199
0	2254	24.994391689095	0.115701608213
0	2263	25.110093297308	0.004177060264
0	2265	25.114270357572	0.081715903458
0	2273	25.19598626103	0.068252310332
0	2279	25.264238571362	0.039073843915
0	2281	25.303312415277	0.0362748731
0	2283	25.339587288377	0.067821332755
0	2286	25.407408621132	0.046147188066
0	2288	25.453555809198	0.056043619956
0	2290	25.509599429154	0.136190400947
0	2293	25.645789830101	0.075252196205
0	2302	25.721042026306	0.278379151582
0	2323	25.999421177888	0.038035801164
0	2327	26.037456979052	0.014669461323
0	2329	26.052126440375	0.036529974824
0	2331	26.088656415199	0.065274266017
0	2333	26.153930681216	0.14213509025
0	2358	26.296065771466	0.018336294109
0	2363	26.314402065575	0.008855761973
0	2368	26.323257827548	0.001252033117
0	2370	26.324509860665	0.015621084693
0	2378	26.340130945358	0.085223007335
0	2384	26.425353952693	0.128013797248
0	2389	26.553367749941	0.023141261643
0	2394	26.576509011584	0.140870625686
0	2400	26.71737963727	0.029018303249
0	2402	26.746397940519	0.062271004529
0	2404	26.808668945048	0.053250115709
0	2406	26.861919060757	0.023554381691
0	2408	26.885473442448	0.10668860021
0	2410	26.992162042658	0.04400206039
0	2412	27.036164103048	0.059490257574
0	2414	27.095654360622	3.321114e-006
0	2416	27.095657681736	0.123649274453
0	2447	27.219306956189	0.022425797629
0	2452	27.241732753818	0.019174479292
0	2457	27.26090723311	0.033250249743
0	2462	27.294157482853	0.09598316651
0	2468	27.390140649363	0.129945820852
0	2470	27.520086470215	0.012320866124
0	2472	27.532407336339	0.06834345904
0	2475	27.600750795379	0.183191080176
0	2478	27.783941875555	0.036542676763
0	2487	27.820484552318	0.069786797006
0	2501	27.890271349324	0.039630184785
0	2506	27.929901534109	0.01456310962
0	2511	27.944464643729	0.093279776269
0	2518	28.037744419998	0.176668816645
0	2521	28.214413236643	0.015638407763
0	2523	28.230051644406	0.078750479578
0	2526	28.308802123984	0.127364799237
0	2546	28.436166923221	0.017577087509
0	2553	28.45374401073	0.022585761091
0	2558	28.476329771821	0.014395411166
0	2563	28.490725182987	0.189425732485
0	2569	28.680150915472	0.043813659914
0	2576	28.723964575386	0.038291316336
0	2579	28.762255891722	0.001559864712
0	2581	28.763815756434	0.074601046677
0	2584	28.838416803111	0.013951501103
0	2586	28.852368304214	0.010012478474
0	2588	28.862380782688	0.033170302239
0	2590	28.895551084927	0.07865834209
0	2593	28.974209427017	0.028120588559
0	2595	29.002330015576	0.062352338195
0	2597	29.064682353771	0.037369758586
0	2599	29.102052112357	0.014515178686
0	2601	29.116567291043	0.019512961079
0	2603	29.136080252122	0.012381479616
0	2605	29.148461731738	0.053027139362
0	2608	29.2014888711	0.09888457039
0	2652	29.30037344149	0.119642352077
0	2661	29.420015793567	0.082480797228
0	2663	29.502496590795	0.007501955395
0	2665	29.50999854619	0.067407629973
0	2667	29.577406176163	0.043711430564
0	2669	29.621117606727	0.019451946809
0	2671	29.640569553536	0.008498522088
0	2673	29.649068075624	0.011535686451
0	2675	29.660603762075	0.075708760409
0	2677	29.736312522484	0.073139960711
0	2679	29.809452483195	0.030256795995
0	2681	29.83970927919	0.037322215145
0	2684	29.877031494335	0.050002694439
0	2696	29.927034188774	0.110115804176
0	2728	30.03714999295	0.012147525822
0	2733	30.049297518772	0.013754659512
0	2738	30.063052178284	0.009388546223
0	2743	30.072440724507	0.010816457975
0	2748	30.083257182482	0.040172435452
0	2754	30.123429617934	0.008000437396
0	2756	30.13143005533	0.02636732343
0	2758	30.15779737876	0.076825461239
0	2760	30.234622839999	0.169238156905
0	2762	30.403860996904	0.001855577494
0	2764	30.405716574398	0.086973286586
0	2766	30.492689860984	0.082460580865
0	2768	30.575150441849	0.08285778574
0	2796	30.658008227589	0.005830060702
0	2798	30.663838288291	0.140429517639
0	2808	30.80426780593	0.014711885559
0	2810	30.818979691489	0.005226514996
0	2812	30.824206206485	0.082998987969
0	2814	30.907205194454	0.04820350576
0	2816	30.955408700214	0.078937575498
0	2818	31.034346275712	0.052692904723
0	2820	31.087039180435	0.002801264619
0	2822	31.089840445054	0.196109784049
0	2825	31.285950229103	0.014079350955
0	2828	31.300029580058	0.020731175023
0	2836	31.320760755081	0.020289282891
0	2847	31.341050037972	0.016531676222
0	2858	31.357581714194	0.067855108751
0	2875	31.425436822945	0.006341230446
0	2877	31.431778053391	0.003906771887
0	2882	31.435684825278	0.000993965665
0	2884	31.436678790943	0.048668461334
0	2895	31.485347252277	0.159153510931
0	2901	31.644500763208	0.000556981463
0	2903	31.645057744671	0.066504585253
0	2905	31.711562329924	0.107399376269
0	2908	31.818961706193	0.092269722869
0	2910	31.911231429062	0.249358265734
0	2928	32.160589694796	0.019854592871
0	2933	32.180444287667	0.072941428402
0	2939	32.253385716069	0.052972832697
0	2941	32.306358548766	0.012026531705
0	2943	32.318385080471	0.003965520642
0	2945	32.322350601113	0.043094788806
0	2947	32.365445389919	0.039888464973
0	2949	32.405333854892	0.052113943888
0	2951	32.45744779878	0.227641426985
0	2954	32.685089225765	0.092940700749
0	2981	32.778029926514	0.125493394357
0	2987	32.903523320871	0.055956711316
0	2989	32.959480032187	0.024763792004
0	2991	32.984243824191	0.014784949333
0	2993	32.999028773524	0.195535258631
0	2996	33.194564032155	0.036436757317
0	2998	33.231000789472	0.01581462677
0	3000	33.246815416242	0.126653326463
0	3002	33.373468742705	0.178932040528
0	3030	33.552400783233	0.040668120123
0	3035	33.593068903356	0.170198411603
0	3041	33.763267314959	0.075434219734
0	3043	33.838701534693	0.096327525784
0	3045	33.935029060477	0.039950549198
0	3047	33.974979609675	0.059727818602
0	3049	34.034707428277	0.073972827782
0	3055	34.108680256059	0.124425687786
0	3072	34.233105943845	0.041366072271
0	3077	34.274472016116	0.020805198227
0	3082	34.295277214343	0.111685898579
0	3088	34.406963112922	0.113406101886
0	3090	34.520369214808	0.012965772996
0	3093	34.533334987804	0.057720715595
0	3095	34.591055703399	0.089054548959
0	3115	34.680110252358	0.00079951469
0	3117	34.680909767048	0.219579439846
0	3128	34.900489206894	0.025592148722
0	3134	34.926081355616	0.118964934276
0	3140	35.045046289892	0.009620045669
0	3142	35.054666335561	0.09096413579
0	3155	35.145630471351	0.240476979292
0	3163	35.386107450643	0.252111565575
0	3173	35.638219016218	0.039047840542
0	3178	35.67726685676	0.084040541818
0	3184	35.761307398578	0.041276608708
0	3186	35.802584007286	0.000243379279
0	3188	35.802827386565	0.061211225277
0	3190	35.864038611842	0.018839873884
0	3192	35.882878485726	0.027587479067
0	3194	35.910465964793	0.031708033698
0	3196	35.942173998491	0.008833502239
0	3198	35.95100750073	0.033540460199
0	3200	35.984547960929	0.103598002785
0	3202	36.088145963714	0.021215794516
0	3204	36.10936175823	0.012631997292
0	3206	36.121993755522	0.030762878558
0	3209	36.15275663408	0.04296271908
0	3211	36.19571935316	0.007714814237
0	3214	36.203434167397	0.015240682701
0	3222	36.218674850098	0.236857996054
0	3268	36.455532846152	0.006178101823
0	3270	36.461710947975	0.031264729265
0	3272	36.49297567724	0.118913420467
0	3274	36.611889097707	0.05052817817
0	3276	36.662417275877	0.216536460299
0	3280	36.878953736176	0.025259597883
0	3283	36.904213334059	0.194397778014
0	3307	37.098611112073	0.093317661621
0	3313	37.191928773694	0.142223254837
0	3315	37.334152028531	0.031797694756
0	3317	37.365949723287	0.08924578526
0	3322	37.455195508547	0.026708960364
0	3324	37.481904468911	0.024310972941
0	3326	37.506215441852	0.030599450031
0	3328	37.536814891883	0.005074769506
0	3330	37.541889661389	0.021557634308
0	3332	37.563447295697	0.031378059219
0	3334	37.594825354916	0.089557929852
0	3367	37.684383284768	0.015856227848
0	3373	37.700239512616	0.156394308139
0	3379	37.856633820755	0.008527530684
0	3381	37.865161351439	0.023610144667
0	3383	37.888771496106	0.003294442353
0	3385	37.892065938459	0.18329158674
0	3387	38.075357525199	0.077588871528
0	3410	38.152946396727	0.000842795475
0	3412	38.153789192202	0.000689595013
0	3414	38.154478787215	0.045745421053
0	3430	38.200224208268	0.08833224948
0	3436	38.288556457748	0.021794533134
0	3442	38.310350990882	0.009535990779
0	3447	38.319886981661	0.128663127871
0	3452	38.448550109532	0.004971736375
0	3454	38.453521845907	0.017310762621
0	3462	38.470832608528	0.005632472837
0	3464	38.476465081365	0.067882726056
0	3473	38.544347807421	0.066893245314
0	3475	38.611241052735	0.09977794684
0	3477	38.711018999575	0.016891441348
0	3479	38.727910440923	0.033953672498
0	3481	38.761864113421	0.032739462886
0	3483	38.794603576307	0.083692145476
0	3485	38.878295721783	0.048901099854
0	3487	38.927196821637	0.106177189393
0	3502	39.03337401103	0.118203453936
0	3519	39.151577464966	0.028588714956
0	3525	39.180166179922	0.077906738136
0	3531	39.258072918058	0.006092045036
0	3533	39.264164963094	0.018909601723
0	3535	39.283074564817	0.017754112395
0	3537	39.300828677212	0.008458073065
0	3539	39.309286750277	0.053779752301
0	3541	39.363066502578	0.003417991948
0	3543	39.366484494526	0.038830482243
0	3545	39.405314976769	0.021537679103
0	3547	39.426852655872	0.040158172319
0	3549	39.467010828191	0.018238293554
0	3551	39.485249121745	0.036806345376
0	3553	39.522055467121	0.036543867319
0	3555	39.55859933444	0.044614991507
0	3557	39.603214325947	0.068984483265
0	3560	39.672198809212	0.035005426262
0	3566	39.707204235474	0.07136977508
0	3595	39.778574010554	0.114890535459
0	3619	39.893464546013	0.020004200303
0	3625	39.913468746316	0.034090229025
0	3627	39.947558975341	0.028675079251
0	3629	39.976234054592	0.105222878701
0	3631	40.081456933293	0.011991332275
0	3633	40.093448265568	0.042720483937
0	3635	40.136168749505	0.093224730122
0	3637	40.229393479627	0.005420234645
0	3639	40.234813714272	0.003511673937
0	3641	40.238325388209	0.06473561451
0	3643	40.303061002719	0.071640802236
0	3645	40.374701804955	0.013885258317
0	3647	40.388587063272	0.090492913898
0	3681	40.47907997717	0.112747106053
0	3692	40.591827083223	0.090144767623
0	3699	40.681971850846	0.068621437235
0	3701	40.750593288081	0.018019504817
0	3703	40.768612792898	0.011787713154
0	3705	40.780400506052	0.028086387194
0	3708	40.808486893246	0.004345146607
0	3710	40.812832039853	0.053145638762
0	3712	40.865977678615	0.00058412456
0	3714	40.866561803175	0.019115030873
0	3716	40.885676834048	0.133565039367
0	3758	41.019241873415	0.027803401652
0	3763	41.047045275067	0.008595181283
0	3768	41.05564045635	0.013168089654
0	3773	41.068808546004	0.090627696073
0	3781	41.159436242077	0.036955157027
0	3786	41.196391399104	0.155546916527
0	3793	41.351938315631	0.00273828297
0	3795	41.354676598601	0.07535360906
0	3797	41.430030207661	0.096505070945
0	3799	41.526535278606	0.040497058419
0	3801	41.567032337025	0.004804731357
0	3803	41.571837068382	0.038035927589
0	3805	41.609872995971	0.043892720348
0	3807	41.653765716319	0.128585982026
0	3809	41.782351698345	0.02198707751
0	3812	41.804338775855	0.040213912595
0	3832	41.84455268845	0.051700049508
0	3849	41.896252737958	0.032124261066
0	3854	41.928376999024	0.192288529777
0	3860	42.120665528801	0.011477762754
0	3862	42.132143291555	0.062234705646
0	3864	42.194377997201	0.03869450947
0	3867	42.233072506671	0.002160169785
0	3869	42.235232676456	0.091850905137
0	3872	42.327083581593	0.033769512109
0	3874	42.360853093702	0.048773901671
0	3876	42.409626995373	0.042803056968
0	3878	42.452430052341	0.010451709622
0	3880	42.462881761963	0.046095200512
0	3886	42.508976962475	0.00931713513
0	3891	42.518294097605	0.068627722747
0	3923	42.586921820352	0.062897346297
0	3930	42.649819166649	0.019510252229
0	3935	42.669329418878	0.04649054277
0	3941	42.715819961648	0.008277193916
0	3943	42.724097155564	0.023643454317
0	3945	42.747740609881	0.029921539972
0	3947	42.777662149853	0.009540721008
0	3949	42.787202870861	0.187969769373
0	3951	42.975172640234	0.010451922995
0	3953	42.985624563229	0.012431110935
0	3955	42.998055674164	0.008315209285
0	3957	43.006370883449	0.140594395806
0	3959	43.146965279255	0.051896286566
0	3961	43.198861565821	0.047090221175
0	3983	43.245951786996	0.005807848338
0	3988	43.251759635334	0.0366289707
0	4005	43.288388606034	0.14484098583
0	4014	43.433229591864	0.128245301425
0	4016	43.561474893289	0.005197019667
0	4018	43.566671912956	0.036816252584
0	4020	43.60348816554	0.096679919947
0	4022	43.700168085487	0.077277718505
0	4024	43.777445803992	0.125798176411
0	4027	43.903243980403	0.030552149212
0	4041	43.933796129615	0.005887171358
0	4046	43.939683300973	0.140632178448
0	4061	44.080315479421	0.033339534789
0	4068	44.11365501421	0.070275821697
0	4071	44.183930835907	0.038458412716
0	4073	44.222389248623	0.07216282703
0	4075	44.294552075653	0.052078198921
0	4077	44.346630274574	0.023824857001
0	4079	44.370455131575	0.075578470237
0	4081	44.446033601812	0.084826999772
0	4083	44.530860601584	0.001646526026
0	4085	44.53250712761	0.060646149786
0	4087	44.593153277396	0.078871325885
0	4118	44.672024603281	0.01646781132
0	4126	44.688492414601	0.087393612695
0	4131	44.775886027296	0.010499702893
0	4136	44.786385730189	0.000588866184
0	4138	44.786974596373	0.095493367368
0	4147	44.882467963741	0.022114976377
0	4149	44.904582940118	0.191895298606
0	4152	45.096478238724	0.015905586084
0	4154	45.112383824808	0.036764726692
0	4156	45.1491485515	0.042001538167
0	4158	45.191150089667	0.053640084161
0	4160	45.244790173828	0.184384513367
0	4186	45.429174687195	0.116998614711
0	4192	45.546173301906	0.048961113838
0	4194	45.595134415744	0.036663453677
0	4196	45.631797869421	0.00615311358
0	4198	45.637950983001	0.182036554344
0	4206	45.819987537345	0.058320653464
0	4226	45.878308190809	0.051446106157
0	4231	45.929754296966	0.119276367291
0	4239	46.049030664257	0.103144158707
0	4244	46.152174822964	0.010292317642
0	4249	46.162467140606	0.143710787363
0	4256	46.306177927969	0.293009939421
0	4258	46.59918786739	0.101414097286
0	4263	46.700601964676	0.005329942959
0	4265	46.705931907635	0.010419393793
0	4273	46.716351301428	0.005953291589
0	4278	46.722304593017	0.059476770346
0	4289	46.781781363363	0.060243070433
0	4294	46.842024433796	0.030493167243
0	4299	46.872517601039	0.17890677944
0	4305	47.051424380479	0.003885941567
0	4307	47.055310322046	0.165636267341
0	4310	47.220946589387	0.033102216755
0	4312	47.254048806142	0.03558489584
0	4314	47.289633701982	0.017959702945
0	4317	47.307593404927	0.078050245648
0	4319	47.385643650575	0.113443749266
0	4343	47.499087399841	0.081343110831
0	4348	47.580430510672	0.002032311315
0	4350	47.582462821987	0.022002309228
0	4359	47.604465131215	0.191625712361
0	4361	47.796090843576	0.007654414428
0	4363	47.803745258004	0.026344619135
0	4365	47.830089877139	0.035206128401
0	4367	47.86529600554	0.026469288644
0	4369	47.891765294184	0.029832557181
0	4371	47.921597851365	0.000987797039
0	4373	47.922585648404	0.045537886455
0	4375	47.968123534859	0.012291136029
0	4377	47.980414670888	0.111998428211
0	4380	48.092413099099	0.03077561951
0	4392	48.123188718609	0.046107754643
0	4412	48.169296473252	0.158951295734
0	4428	48.328247768986	0.068416732615
0	4430	48.396664501601	0.00629596484
0	4432	48.402960466441	0.056370119152
0	4434	48.459330585593	0.174355176219
0	4436	48.633685761812	0.006220250199
0	4438	48.639906012011	0.122177651236
0	4441	48.762083663247	0.005792476742
0	4443	48.767876139989	0.036326026898
0	4446	48.804202166887	0.003455575009
0	4451	48.807657741896	0.023733936024
0	4462	48.83139167792	0.005430448209
0	4467	48.836822126129	0.015896096258
0	4475	48.852718222387	0.016243463444
0	4483	48.868961685831	0.057187352296
0	4501	48.926149038127	0.109772529352
0	4507	49.035921567479	0.002018035255
0	4509	49.037939602734	0.044335201196
0	4511	49.08227480393	0.000943747426
0	4513	49.083218551356	0.043178693861
0	4515	49.126397245217	0.0336005024
0	4517	49.159997747617	0.062960529956
0	4519	49.222958277573	0.004230116902
0	4521	49.227188394475	0.047193545514
0	4524	49.274381939989	0.017416404907
0	4526	49.291798344896	0.001980239103
0	4528	49.293778583999	0.014997048999
0	4530	49.308775632998	0.052071712193
0	4532	49.360847345191	0.017516764304
0	4535	49.378364109495	0.088465333487
0	4537	49.466829442982	0.008428543017
0	4539	49.475257985999	0.028318085266
0	4542	49.503576071265	0.000726554704
0	4544	49.504302625969	0.04052135221
0	4565	49.544823978179	0.007362900439
0	4570	49.552186878618	0.239853808603
0	4613	49.792040687221	0.057815561777
0	4615	49.849856248998	0.016834555571
0	4617	49.866690804569	0.219573727108
0	4620	50.086264531677	0.028135279636
0	4622	50.114399811313	0.278416799757
0	4641	50.39281661107	0.002804094104
0	4643	50.395620705174	0.031561847746
0	4652	50.42718255292	0.022269703248
0	4654	50.449452256168	0.010672605471
0	4656	50.460124861639	0.106856080493
0	4659	50.566980942132	0.061093054728
0	4661	50.62807399686	0.098711005624
0	4663	50.726785002484	0.040436606653
0	4665	50.767221609137	0.061303100845
0	4668	50.828524709982	0.272869431112
0	4696	51.101394141094	0.027541675649
0	4698	51.128935816743	0.004052049413
0	4700	51.132987866156	0.022503716587
0	4702	51.155491582743	0.091736332243
0	4704	51.247227914986	0.097119663985
0	4707	51.344347578971	0.020414233177
0	4709	51.364761812148	0.004383099429
0	4711	51.369144911577	0.016578311576
0	4713	51.385723223153	0.069039755576
0	4748	51.454762978729	0.065172198669
0	4756	51.519935177398	0.028752761669
0	4761	51.548687939067	0.016946802718
0	4766	51.565634741785	0.060295998544
0	4772	51.625930740329	0.065771553661
0	4778	51.69170229399	0.156938455945
0	4785	51.848640749935	0.043702654382
0	4787	51.892343404317	0.11542431424
0	4792	52.007767718557	0.033108127298
0	4794	52.040875845855	0.041310833283
0	4796	52.082186679138	0.048538781708
0	4798	52.130725460846	0.033499607356
0	4800	52.164225068202	0.020300767122
0	4802	52.184525835324	0.103747178261
0	4804	52.288273013585	0.073567932734
0	4831	52.361840946319	0.080416557719
0	4839	52.442257504038	0.03215392772
0	4844	52.474411431758	0.035559445076
0	4850	52.509970876834	0.026828394156
0	4853	52.53679927099	0.208238704832
0	4855	52.745037975822	0.105845243531
0	4857	52.850883219353	0.027074327909
0	4859	52.877957547262	0.15538956873
0	4874	53.033347115992	0.030403392834
0	4882	53.063750508826	0.002825956263
0	4884	53.066576465089	0.080521184471
0	4892	53.14709764956	0.0158869364
0	4897	53.16298458596	0.035770313484
0	4902	53.198754899444	0.025710456251
0	4908	53.224465355695	0.16614866897
0	4911	53.390614024665	0.101233097325
0	4913	53.49184712199	0.017842411674
0	4915	53.509689533664	0.25398094778
0	4930	53.763670481444	0.028852693458
0	4935	53.792523174902	0.208371342354
0	4941	54.000894517256	0.07166939661
0	4945	54.072563913866	0.141200086084
0	4948	54.21376399995	0.136422430001
0	4964	54.350186429951	0.021106043126
0	4969	54.371292473077	0.007742310191
0	4974	54.379034783268	0.289783214878
0	4981	54.668817998146	0.016588362993
0	4983	54.685406361139	0.017214545723
0	4985	54.702620906862	0.015546735353
0	4987	54.718167642215	0.006716672469
0	4989	54.724884314684	0.040342974122
0	4992	54.765227288806	0.180898096331
0	4994	54.946125385137	0.133272850992
0	4996	55.079398236129	0.015948992941
0	4998	55.09534722907	0.02660006376
0	5010	55.12194729283	0.070226143801
0	5034	55.192173436631	0.029191148385
0	5039	55.221364585016	0.003607702148
0	5041	55.224972287164	0.149137865061
0	5050	55.374110152225	0.078717784865
0	5053	55.45282793709	0.007249883776
0	5055	55.460077820866	0.128082143672
0	5057	55.588159964538	0.05983793545
0	5060	55.647997899988	0.019083272711
0	5062	55.667081172699	0.008550176739
0	5064	55.675631349438	0.028590949258
0	5066	55.704222298696	0.028127741498
0	5068	55.732350040194	0.028132689338
0	5070	55.760482729532	0.023529677377
0	5072	55.784012406909	0.082887544791
0	5103	55.8668999517	0.0683877244
0	5114	55.9352876761	0.016293347501
0	5119	55.951581023601	0.095241433782
0	5125	56.046822457383	0.011313883455
0	5127	56.058136340838	0.04206273056
0	5129	56.100199071398	0.035792995013
0	5131	56.135992066411	0.021079276893
0	5133	56.157071343304	0.021784730411
0	5135	56.178856073715	0.130273552881
0	5137	56.309129626596	0.109651576069
0	5140	56.418781202665	0.026019891322
0	5142	56.444801093987	0.016288197986
0	5144	56.461089291973	0.080454103475
0	5162	56.541543395448	0.04187625293
0	5182	56.583419648378	0.048629588831
0	5187	56.632049237209	0.171445520869
0	5193	56.803494758078	0.013502549632
0	5195	56.81699730771	0.060306938914
0	5197	56.877304246624	0.047713332079
0	5200	56.925017578703	0.121175070193
0	5202	57.046192648896	0.043993520321
0	5204	57.090186169217	0.169014703798
0	5225	57.259200873015	0.025734710146
0	5230	57.284935583161	0.083361510417
0	5235	57.368297093578	0.001495685744
0	5237	57.369792779322	0.072153440683
0	5246	57.441946220005	0.00966855473
0	5248	57.451614774735	0.206456642855
0	5250	57.65807141759	0.008483586764
0	5252	57.666555004354	0.311107765382
0	5269	57.977662769736	0.073843131062
0	5274	58.051505900798	0.036069278783
0	5279	58.087575179581	0.074080792563
0	5285	58.161655972144	0.004410382645
0	5287	58.166066354789	0.056766104475
0	5289	58.222832459264	0.02078599965
0	5291	58.243618458914	0.066867493903
0	5293	58.310485952817	0.009917580739
0	5295	58.320403533556	0.035599834096
0	5297	58.356003367652	0.032424161856
0	5299	58.388427529508	0.071458887204
0	5301	58.459886416712	0.008444709326
0	5303	58.468331126038	0.028520380178
0	5305	58.496851506216	0.055598316018
0	5307	58.552449822234	0.006323767795
0	5309	58.558773590029	0.02895451291
0	5311	58.587728102939	0.193518965023
0	5358	58.781247067962	0.135448607445
0	5364	58.916695675407	0.00451150855
0	5366	58.921207183957	0.206137403549
0	5369	59.127344587506	0.001169357577
0	5371	59.128513945083	0.047496545676
0	5373	59.176010490759	0.233454605424
0	5391	59.409465096183	0.019280418172
0	5396	59.428745514355	0.009643802434
0	5401	59.438389316789	0.053823180846
0	5406	59.492212497635	0.017961180176
0	5412	59.510173677811	0.136242606444
0	5414	59.646416284255	0.014564726242
0	5416	59.660981010497	0.031326678265
0	5418	59.692307688762	0.05203752113
0	5420	59.744345209892	0.048188206315
0	5422	59.792533416207	0.223164498654
0	5431	60.015697914861	0.019018642793
0	5439	60.034716557654	0.019130462905
0	5450	60.053847020559	0.036467085847
0	5458	60.090314106406	0.21054381306
0	5465	60.300857919466	0.030821136796
0	5467	60.331679056262	0.001549682666
0	5469	60.333228738928	0.01713413523
0	5471	60.350362874158	0.131378802873
0	5474	60.481741677031	0.042296959283
0	5476	60.524038636314	0.073985323633
0	5478	60.598023959947	0.02229694529
0	5481	60.620320905237	0.01952500303
0	5483	60.639845908267	0.028011860614
0	5485	60.667857768881	0.135149572204
0	5518	60.803007341085	0.044662695684
0	5523	60.847670036769	0.001612837171
0	5525	60.84928287394	0.083320636432
0	5534	60.932603510372	0.058951700563
0	5536	60.991555210935	0.024343580632
0	5538	61.015898791567	0.023987716349
0	5541	61.039886507916	0.154746787847
0	5544	61.194633295763	0.204895494146
0	5547	61.399528789909	0.118968754816
0	5569	61.518497544725	0.011076952374
0	5574	61.529574497099	0.002994936146
0	5576	61.532569433245	0.139051563754
0	5586	61.671620996999	0.017553036071
0	5588	61.68917403307	0.024022891888
0	5590	61.713196924958	0.035450113224
0	5592	61.748647038182	0.132019759227
0	5594	61.880666797409	0.006630952596
0	5596	61.887297750005	0.043101950113
0	5598	61.930399700118	0.025706461727
0	5600	61.956106161845	0.042878051243
0	5602	61.998984213088	0.080846929421
0	5605	62.079831142509	0.029346504637
0	5611	62.109177647146	0.068462600055
0	5640	62.177640247201	0.045312709066
0	5648	62.222952956267	0.058432715489
0	5653	62.281385671756	0.173707057021
0	5660	62.455092728777	0.074381884837
0	5662	62.529474613614	0.134018391066
0	5664	62.66349300468	0.013759030298
0	5666	62.677252034978	0.067827431899
0	5668	62.745079466877	0.025085499537
0	5671	62.770164966414	0.061137190865
0	5686	62.831302157279	0.067665626014
0	5697	62.898967783293	0.047692370164
0	5703	62.946660153457	0.126834408879
0	5709	63.073494562336	0.019103580963
0	5711	63.092598143299	0.047073401815
0	5714	63.139671545114	0.009629046441
0	5716	63.149300591555	0.019935637415
0	5718	63.16923622897	0.116402892593
0	5720	63.285639121563	0.001842106381
0	5722	63.287481227944	0.060480812429
0	5725	63.347962040373	0.074342190443
0	5727	63.422304230816	0.021369946894
0	5729	63.44367417771	0.00047492079
0	5731	63.4441490985	0.036995585311
0	5733	63.481144683811	0.027977821586
0	5739	63.509122505397	0.001489992465
0	5741	63.510612497862	0.045369974867
0	5761	63.555982472729	0.048995561331
0	5784	63.60497803406	0.153148589613
0	5793	63.758126623673	0.026885278103
0	5796	63.785011901776	0.005625323257
0	5798	63.790637225033	0.041914860365
0	5801	63.832552085398	0.031246731892
0	5803	63.86379881729	0.010007745487
0	5805	63.873806562777	0.001476818644
0	5807	63.875283381421	0.033256108405
0	5809	63.908539489826	0.025168759408
0	5811	63.933708249234	0.141977415831
0	5813	64.075685665065	0.058408352619
0	5815	64.134094017684	0.000512881119
0	5817	64.134606898803	0.01963262288
0	5819	64.154239521683	0.208163630327
0	5861	64.36240315201	0.01412435199
0	5866	64.376527504	0.070444208208
0	5872	64.446971712208	0.007377754013
0	5874	64.454349466221	0.006282736406
0	5876	64.460632202627	0.051642882451
0	5878	64.512275085078	0.020530481497
0	5880	64.532805566575	0.071299749617
0	5882	64.604105316192	0.046471007276
0	5884	64.650576323468	0.06687666018
0	5886	64.717452983648	0.077273414347
0	5889	64.794726397995	0.178392500369
0	5919	64.973118898364	0.029546482583
0	5924	65.002665380947	0.000162412475
0	5926	65.002827793422	0.01545509198
0	5934	65.018282885402	0.062510667889
0	5940	65.080793553291	0.036402744555
0	5946	65.117196297846	0.055036307815
0	5948	65.172232605661	0.21471010355
0	5950	65.386942709211	0.05331172274
0	5952	65.440254431951	0.10768038684
0	5954	65.547934818791	0.197438929816
0	5973	65.745373748607	0.147758656164
0	5980	65.893132404771	0.001020937424
0	5982	65.894153342195	0.066028111829
0	5984	65.960181454024	0.071538946453
0	5987	66.031720400477	0.034860519328
0	5989	66.066580919805	0.100816944005
0	5991	66.16739786381	0.069328483725
0	5994	66.236726347535	0.042777388748
0	5996	66.279503736283	0.062749517567
0	6014	66.34225325385	0.024384772005
0	6029	66.366638025855	0.00177190867
0	6031	66.368409934525	0.093879393042
0	6039	66.462289327567	0.151193321631
0	6045	66.613482649198	0.006138106861
0	6047	66.619620756059	0.046913065386
0	6049	66.666533821445	0.035007610338
0	6051	66.701541431783	0.283583711812
0	6053	66.985125143595	0.044032198021
0	6065	67.029157341616	0.028983181456
0	6076	67.058140523072	0.071041664181
0	6081	67.129182187253	0.098601194112
0	6087	67.227783381365	0.005717068972
0	6089	67.233500450337	0.037083142628
0	6091	67.270583592965	0.015507554923
0	6093	67.286091147888	0.105206887097
0	6095	67.391298034985	0.031688639443
0	6097	67.422986674428	0.046476824181
0	6099	67.469463498609	0.058577521378
0	6101	67.528041019987	0.130962833357
0	6104	67.659003853344	0.130801226829
0	6134	67.789805080173	0.127269267411
0	6141	67.917074347584	0.057869985706
0	6143	67.97494433329	0.023876903679
0	6145	67.998821236969	0.008594922227
0	6147	68.007416159196	0.031093670886
0	6149	68.038509830082	0.236487521078
0	6154	68.27499735116	0.047200986928
0	6156	68.322198338088	0.123243149032
0	6177	68.44544148712	0.058322938109
0	6185	68.503764425229	0.041916214017
0	6190	68.545680639246	0.028619865057
0	6195	68.574300504303	0.153331063
0	6202	68.727631567303	0.046870127399
0	6204	68.774501694702	0.04677210173
0	6206	68.821273796432	0.007732718763
0	6208	68.829006515195	0.154075957722
0	6210	68.983082472917	0.068496931411
0	6212	69.051579404328	0.106281199159
0	6233	69.157860603487	0.020306467969
0	6238	69.178167071456	0.207060607762
0	6244	69.385227679218	0.002635634048
0	6246	69.387863313266	0.151381047681
0	6248	69.539244360947	0.00740456829
0	6250	69.546648929237	0.002201944217
0	6252	69.548850873454	0.006751796783
0	6254	69.555602670237	0.011525734569
0	6256	69.567128404806	0.022830656914
0	6258	69.58995906172	0.029572726102
0	6260	69.619531787822	0.016984346151
0	6262	69.636516133973	0.182371895408
0	6271	69.818888029381	0.049639555416
0	6294	69.868527584797	0.02140297516
0	6305	69.889930559957	0.14209416318
0	6311	70.032024723137	0.010494615606
0	6313	70.042519338743	0.052065308576
0	6315	70.094584647319	0.130453974428
0	6317	70.225038621747	0.054668748484
0	6319	70.279707370231	0.035478167134
0	6322	70.315185537365	0.016311950314
0	6324	70.331497487679	0.143076920594
0	6326	70.474574408273	0.05217692165
0	6338	70.526751329923	0.010477667789
0	6346	70.537228997712	0.00946032317
0	6351	70.546689320882	0.064926113069
0	6368	70.611615433951	0.024535051755
0	6373	70.636150485706	0.034817375279
0	6379	70.670967860985	0.058934291065
0	6385	70.72990215205	0.004774209306
0	6387	70.734676361356	0.026899758397
0	6389	70.761576119753	0.071535134525
0	6391	70.833111254278	0.14514308365
0	6393	70.978254337928	0.017053184612
0	6395	70.99530752254	0.126466821504
0	6397	71.121774344044	0.002425294659
0	6399	71.124199638703	0.034166166832
0	6401	71.158365805535	0.003708968919
0	6403	71.162074774454	0.043740403283
0	6406	71.205815177737	0.003781406655
0	6411	71.209596584392	0.038623488351
0	6429	71.248220072743	0.142984096391
0	6452	71.391204169134	0.012227122933
0	6458	71.403431292067	0.080797637312
0	6460	71.484228929379	0.034230359285
0	6462	71.518459288664	0.137003642065
0	6465	71.655462930729	0.012462197173
0	6467	71.667925127902	0.066991114413
0	6469	71.734916242315	0.075359735926
0	6472	71.810275978241	0.045166179122
0	6474	71.855442157363	0.044415131485
0	6476	71.899857288848	0.021782829264
0	6488	71.921640118112	0.023189650923
0	6499	71.944829769035	0.371754607123
0	6518	72.316584376158	0.000186261409
0	6520	72.316770637567	0.026982802077
0	6522	72.343753439644	0.054574242292
0	6524	72.398327681936	0.038166207262
0	6526	72.436493889198	0.062831535329
0	6528	72.499325424527	0.028512566327
0	6530	72.527837990854	0.000312187968
0	6532	72.528150178822	0.233318683366
0	6559	72.761468862188	0.210838729377
0	6565	72.972307591565	0.011517474117
0	6567	72.983825065682	0.065414735188
0	6570	73.04923980087	0.023848744795
0	6572	73.073088545665	0.020815732989
0	6574	73.093904278654	0.068431468498
0	6576	73.162335747152	0.0134159435
0	6578	73.175751690652	0.003917615739
0	6580	73.179669306391	0.155980394721
0	6598	73.335649701112	0.056074824981
0	6612	73.391724526093	0.022198750785
0	6617	73.413923276878	0.038964643608
0	6622	73.452887920486	0.030972207296
0	6628	73.483860127782	0.020044504984
0	6634	73.503904632766	0.0601537445
0	6636	73.564058377266	0.016341073581
0	6638	73.580399450847	0.132793633892
0	6640	73.713193084739	0.043356134252
0	6643	73.756549218991	0.034002117591
0	6645	73.790551336582	0.027525078159
0	6647	73.818076414741	0.158047883757
0	6649	73.976124298498	0.036585730371
0	6655	74.012710028869	0.053801150195
0	6681	74.066511179064	0.024702034672
0	6686	74.091213213736	0.033915316879
0	6692	74.125128530615	0.211389080474
0	6701	74.336517611089	0.053904141986
0	6703	74.390421753075	0.008593396289
0	6705	74.399015149364	0.026264367367
0	6707	74.425279516731	0.006108938519
0	6709	74.43138845525	0.064204949378
0	6711	74.495593404628	0.025240060344
0	6713	74.520833464972	0.063386459651
0	6715	74.584219924623	0.053646353288
0	6717	74.637866277911	0.103463513128
0	6735	74.741329791039	0.064583427565
0	6752	74.805913218604	0.030926853
0	6757	74.836840071604	0.030375838025
0	6762	74.867215909629	0.002297327866
0	6764	74.869513237495	0.434008107168
0	6777	75.303521344663	0.250526616254
0	6784	75.554047960917	0.026021968224
0	6789	75.580069929141	0.035667961002
0	6795	75.615737890143	0.07668012775
0	6798	75.692418017893	0.166485277295
0	6801	75.858903295188	0.060897537502
0	6805	75.91980083269	0.066892011244
0	6807	75.986692843934	0.100616083979
0	6809	76.087308927913	0.018611767396
0	6812	76.105920695309	0.224348908682
0	6836	76.330269603991	0.049815638806
0	6839	76.380085242797	0.132324048228
0	6842	76.512409291025	0.188699853162
0	6845	76.701109144187	0.086778454329
0	6848	76.787887598516	0.007227496066
0	6850	76.795115094582	0.071889083271
0	6871	76.867004177853	0.019066160483
0	6876	76.886070338336	0.024523059254
0	6881	76.91059339759	0.005137247647
0	6883	76.915730645237	0.009587986826
0	6891	76.925318632063	0.086959312169
0	6898	77.012277944232	0.003881016309
0	6900	77.016158960541	0.001315642841
0	6902	77.017474603382	0.01661653352
0	6904	77.034091136902	0.008857912994
0	6906	77.042949049896	0.033967773102
0	6908	77.076916822998	0.018117300209
0	6911	77.095034123207	0.044288204553
0	6913	77.13932232776	0.122914989396
0	6916	77.262237317156	0.088990404482
0	6919	77.351227721638	0.011863906076
0	6921	77.363091627714	0.191273050336
0	6947	77.55436467805	0.034073261587
0	6961	77.588437939637	0.007487585536
0	6966	77.595925525173	0.023593037219
0	6974	77.619518562392	0.006790399944
0	6977	77.626308962336	0.052538327885
0	6985	77.678847290221	0.053451228113
0	6992	77.732298518334	0.165372784649
0	6994	77.897671302983	0.082083241283
0	6996	77.979754544266	0.169591438234
0	6998	78.1493459825	0.113091876852
0	7014	78.262437859352	0.003236217385
0	7016	78.265674076737	0.164775112213
0	7026	78.43044918895	0.054411786438
0	7028	78.484860975388	0.24599605756
0	7030	78.730857032948	0.133426968945
0	7035	78.864284001893	0.030629709762
0	7037	78.894913711655	0.091102148904
0	7055	78.986015860559	0.028714594264
0	7060	79.014730454823	0.014259952266
0	7065	79.028990407089	0.009596652801
0	7070	79.03858705989	0.086888767437
0	7076	79.125475827327	0.069298472014
0	7079	79.194774299341	0.012573869144
0	7081	79.207348168485	0.064159863502
0	7084	79.271508031987	0.137415433194
0	7086	79.408923465181	0.118857317767
0	7088	79.527780782948	0.00053828324
0	7090	79.528319066188	0.006139108774
0	7092	79.534458174962	0.00567400419
0	7094	79.540132179152	0.041322650637
0	7096	79.581454829789	0.057926147982
0	7114	79.639380977771	0.052204794622
0	7134	79.691585772393	0.028918752574
0	7139	79.720504524967	0.016589261046
0	7144	79.737093786013	0.006092926235
0	7146	79.743186712248	0.011109363209
0	7154	79.754296075457	0.251716117207
0	7161	80.006012192664	0.117787397373
0	7163	80.123799590037	0.136138145197
0	7167	80.259937735234	0.003619081427
0	7169	80.263556816661	0.018974226351
0	7171	80.282531043012	0.038163028267
0	7180	80.320694071279	0.038454925392
0	7194	80.359148996671	0.007386627295
0	7196	80.366535623966	0.039207195584
0	7205	80.40574281955	0.036645250492
0	7210	80.442388070042	0.042604220739
0	7215	80.484992290781	0.234608446179
0	7222	80.71960073696	0.205148190161
0	7224	80.924748927121	0.033068276899
0	7226	80.95781720402	0.006318865152
0	7228	80.964136069172	0.116747075035
0	7244	81.080883144207	0.00242747734
0	7246	81.083310621547	0.007487251342
0	7251	81.090797872889	0.03966478805
0	7259	81.130462660939	0.018985643471
0	7264	81.14944830441	0.036778036121
0	7269	81.186226340531	0.031030015624
0	7276	81.217256356155	0.016093385596
0	7278	81.233349741751	0.030630754556
0	7280	81.263980496307	0.00364045801
0	7282	81.267620954317	0.066771828697
0	7284	81.334392783014	0.00793269599
0	7286	81.342325479004	0.025361387284
0	7288	81.367686866288	0.11659203338
0	7291	81.484278899668	0.07505691964
0	7293	81.559335819308	0.030616283866
0	7295	81.589952103174	0.061163711284
0	7297	81.651115814458	0.028817508829
0	7299	81.679933323287	0.030565710613
0	7305	81.7104990339	0.001333119121
0	7307	81.711832153021	0.033912698091
0	7324	81.745744851112	0.028176481928
0	7335	81.77392133304	0.057197155873
0	7358	81.831118488913	0.065012891298
0	7363	81.896131380211	0.004356963486
0	7366	81.900488343697	0.058907094336
0	7371	81.959395438033	0.103695562378
0	7375	82.063091000411	0.14719835049
0	7377	82.210289350901	0.063578696593
0	7380	82.273868047494	0.066846884188
0	7382	82.340714931682	0.07775266899
0	7388	82.418467600672	0.023501072393
0	7402	82.441968673065	0.046191716149
0	7413	82.488160389214	0.02280714188
0	7420	82.510967531094	0.00702420236
0	7422	82.517991733454	0.107499260153
0	7432	82.625490993607	0.031155223493
0	7434	82.6566462171	0.089713867088
0	7437	82.746360084188	0.031189316693
0	7439	82.777549400881	0.019806401643
0	7441	82.797355802524	0.023231848034
0	7443	82.820587650558	0.075090537417
0	7445	82.895678187975	0.001824479626
0	7447	82.897502667601	0.049474303391
0	7478	82.946976970992	0.080194105039
0	7489	83.027171076031	0.030615549022
0	7494	83.057786625053	0.006977500006
0	7496	83.064764125059	0.045411259034
0	7505	83.110175384093	0.055931204434
0	7510	83.166106588527	0.005345157449
0	7512	83.171451745976	0.072885342514
0	7521	83.24433708849	0.065738992215
0	7527	83.310076080705	0.060436361303
0	7529	83.370512442008	0.001804967732
0	7531	83.37231740974	0.191859525444
0	7534	83.564176935184	0.132049012462
0	7537	83.696225947646	0.006541911817
0	7539	83.702767859463	0.068764682104
0	7541	83.771532541567	0.121119825596
0	7565	83.892652367163	0.133157731306
0	7571	84.025810098469	0.001777485138
0	7573	84.027587583607	7.2498113e-005
0	7575	84.02766008172	0.045932344936
0	7577	84.073592426656	0.166086003461
0	7579	84.239678430117	0.031075406704
0	7581	84.270753836821	0.190645837288
0	7584	84.461399674109	0.044563424982
0	7587	84.505963099091	0.095472135801
0	7613	84.601435234892	0.027257254624
0	7618	84.628692489516	0.290255246944
0	7625	84.91894773646	0.012685270499
0	7627	84.931633006959	0.026331250623
0	7629	84.957964257582	0.001158486312
0	7631	84.959122743894	0.11316690641
0	7635	85.072289650304	0.043807321215
0	7637	85.116096971519	0.088356771753
0	7640	85.204453743272	0.111005353192
0	7663	85.315459096464	0.076491087153
0	7668	85.391950183617	0.028029193588
0	7674	85.419979377205	0.060211463274
0	7676	85.480190840479	0.015128380586
0	7678	85.495319221065	0.02203609005
0	7680	85.517355311115	0.005037602402
0	7682	85.522392913517	0.046237863648
0	7684	85.568630777165	0.005350264936
0	7686	85.573981042101	0.019259859474
0	7688	85.593240901575	0.015015196824
0	7690	85.608256098399	0.000523673778
0	7692	85.608779772177	0.006322568438
0	7694	85.615102340615	0.001515667308
0	7696	85.616618007923	0.018476327735
0	7698	85.635094335658	0.009349151167
0	7700	85.644443486825	0.004106332523
0	7702	85.648549819348	0.043263144265
0	7704	85.691812963613	0.004071352683
0	7706	85.695884316296	0.015112487082
0	7708	85.710996803378	0.116391705575
0	7711	85.827388508953	0.027673546656
0	7713	85.855062055609	0.010612842367
0	7715	85.865674897976	0.003401032869
0	7717	85.869075930845	0.049215539557
0	7726	85.918291470402	0.145280198787
0	7791	86.063571669189	0.089088844443
0	7797	86.152660513632	0.129744296564
0	7799	86.282404810196	0.036573550851
0	7801	86.318978361047	0.136543198984
0	7804	86.455521560031	0.009989411635
0	7806	86.465510971666	0.024225174427
0	7808	86.489736146093	0.013358331122
0	7810	86.503094477215	0.074881093877
0	7815	86.577975571092	0.03404208718
0	7822	86.612017658272	0.033406248686
0	7840	86.645423906958	0.04507634242
0	7854	86.690500249378	0.021545740969
0	7859	86.712045990347	0.025795332164
0	7865	86.737841322511	0.004380752631
0	7867	86.742222075142	0.091252554458
0	7877	86.8334746296	0.032874746262
0	7880	86.866349375862	0.083423359634
0	7882	86.949772735496	0.029492721525
0	7884	86.979265457021	0.157212094613
0	7886	87.136477551634	0.010489320002
0	7888	87.146966871636	0.001762796837
0	7890	87.148729668473	0.025866109633
0	7892	87.174595778106	0.135624026843
0	7898	87.310219804949	0.006030331424
0	7903	87.316250136373	0.029910979915
0	7917	87.346161116288	0.122924279614
0	7934	87.469085395902	0.126407527553
0	7940	87.595492923455	0.066083764698
0	7942	87.661576688153	0.070423063672
0	7944	87.731999751825	0.01284493168
0	7946	87.744844683505	0.262199985086
0	7950	88.007044668591	0.150129478952
0	7968	88.157174147543	0.085447860938
0	7974	88.242622008481	0.05200446424
0	7976	88.294626472721	0.0272048051
0	7978	88.321831277821	0.036517161243
0	7982	88.358348439064	0.041716546859
0	7984	88.400064985923	0.061692319097
0	7986	88.46175730502	0.028333724919
0	7988	88.490091029939	0.017583809867
0	7991	88.507674839806	0.027239486805
0	7993	88.534914326611	0.048054520972
0	7995	88.582968847583	0.018139688283
0	7997	88.601108535866	0.008487126299
0	7999	88.609595662165	0.041107204676
0	8001	88.650702866841	0.013427326328
0	8003	88.664130193169	0.068693186968
0	8016	88.732823380137	0.043299524861
0	8034	88.776122904998	0.019489008279
0	8045	88.795611913277	0.006154755594
0	8050	88.801766668871	0.044588139258
0	8067	88.846354808129	0.11457330111
0	8077	88.960928109239	0.00749165147
0	8079	88.968419760709	0.030205566927
0	8082	88.998625327636	0.010450153266
0	8084	89.009075480902	0.015922197466
0	8086	89.024997678368	0.002876231975
0	8088	89.027873910343	0.052831106299
0	8090	89.080705016642	0.21187448403
0	8094	89.292579500672	0.082423155881
0	8096	89.375002656553	0.000232069391
0	8098	89.375234725944	0.056341116211
0	8113	89.431575842155	0.011803241318
0	8121	89.443379083473	0.051908943535
0	8141	89.495288027008	0.056939180807
0	8146	89.552227207815	0.011186978051
0	8151	89.563414185866	0.005092284662
0	8153	89.568506470528	0.06957095796
0	8162	89.638077428488	0.128171635579
0	8164	89.766249064067	0.225820847612
0	8166	89.992069911679	0.076296600139
0	8168	90.068366511818	0.056280486936
0	8181	90.124646998754	0.203575842878
0	8193	90.328222841632	0.023883660299
0	8195	90.352106501931	0.042512164526
0	8197	90.394618666457	0.097379401024
0	8200	90.491998067481	0.021435107716
0	8202	90.513433175197	0.108606660688
0	8205	90.622039835885	0.04784390855
0	8207	90.669883744435	0.032197324978
0	8209	90.702081069413	0.16026149841
0	8235	90.862342567823	0.032231024225
0	8243	90.894573592048	0.044133405297
0	8248	90.938706997345	0.165513679375
0	8254	91.10422067672	0.018653523786
0	8256	91.122874200506	0.076847779384
0	8258	91.19972197989	0.125929105714
0	8260	91.325651085604	0.002007285548
0	8262	91.327658371152	0.027905144625
0	8264	91.355563515777	0.033301903519
0	8266	91.388865419296	8.3058756e-005
0	8268	91.388948478052	0.005915970012
0	8270	91.394864448064	0.017076011039
0	8272	91.411940459103	0.230514978208
0	8306	91.642455437311	0.022984084025
0	8311	91.665439521336	0.051369969444
0	8317	91.71680949078	0.117445103534
0	8319	91.834254594314	0.061915242175
0	8322	91.896169836489	0.036805083967
0	8324	91.932974920456	0.027197068249
0	8326	91.960171988705	0.035282628701
0	8328	91.995454617406	0.066105715039
0	8330	92.061560332445	0.024577629605
0	8332	92.08613796205	0.05089600859
0	8334	92.13703397064	0.127555834197
0	8364	92.264589804837	0.089414945201
0	8370	92.354004750038	0.174054542471
0	8377	92.528059292509	0.138216412598
0	8379	92.666275705107	0.288881879984
0	8389	92.955157585091	0.031081743427
0	8394	92.986239328518	0.028367612683
0	8399	93.014606941201	0.135425228498
0	8406	93.150032169699	0.203144454174
0	8409	93.353176623873	0.004037818032
0	8411	93.357214441905	0.094178301276
0	8413	93.451392743181	0.069401957382
0	8416	93.520794700563	0.067563167862
0	8418	93.588357868425	0.015765324596
0	8421	93.604123193021	0.01685346933
0	8429	93.620976662351	0.046444322561
0	8449	93.667420984912	0.014635780192
0	8454	93.682056765104	0.088977561863
0	8460	93.771034326967	0.01089475306
0	8465	93.781929080027	0.08236344035
0	8471	93.864292520377	0.153647634886
0	8473	94.017940155263	0.076685177633
0	8475	94.094625332896	0.020894918051
0	8477	94.115520250947	0.039570168004
0	8479	94.155090418951	0.036208727546
0	8481	94.191299146497	0.012941990477
0	8483	94.204241136974	0.040868116686
0	8485	94.24510925366	0.013807546089
0	8487	94.258916799749	0.090351068585
0	8508	94.349267868334	0.046003522928
0	8522	94.395271391262	0.111564394345
0	8528	94.506835785607	0.034555378372
0	8530	94.541391163979	0.008984712495
0	8532	94.550375876474	0.221308318529
0	8534	94.771684195003	0.033402159846
0	8536	94.805086354849	0.02147116034
0	8538	94.826557515189	0.111035138795
0	8541	94.937592653984	0.004935753928
0	8543	94.942528407912	0.102235896265
0	8566	95.044764304177	0.077870194149
0	8578	95.122634498326	0.006482764012
0	8580	95.129117262338	0.222359438239
0	8591	95.351476700577	0.010203425328
0	8593	95.361680125905	0.09142021682
0	8596	95.453100342725	0.021761468172
0	8598	95.474861810897	0.017025006152
0	8600	95.491886817049	0.004700988066
0	8602	95.496587805115	0.002234765538
0	8604	95.498822570653	0.03316796001
0	8606	95.531990530663	0.031345754601
0	8608	95.563336285264	0.006831639438
0	8610	95.570167924702	0.126101615045
0	8613	95.696269539747	0.050390010083
0	8634	95.74665954983	0.033937375261
0	8651	95.780596925091	0.016986109739
0	8659	95.79758303483	0.020051724898
0	8664	95.817634759728	0.054444775196
0	8669	95.872079534924	0.164281397716
0	8675	96.03636093264	0.007501532931
0	8677	96.043862465571	0.08877450848
0	8679	96.132636974051	0.223492462446
0	8681	96.356129436497	0.056648475124
0	8687	96.412777911621	0.161792091235
0	8702	96.574570002856	0.0001608395
0	8704	96.574730842356	0.029834788191
0	8713	96.604565630547	0.160859705385
0	8716	96.765425335932	0.016638451736
0	8718	96.782063787668	0.067221544965
0	8720	96.849285332633	0.017292790075
0	8722	96.866578122708	0.015252279763
0	8724	96.881830402471	0.039628433657
0	8726	96.921458836128	0.001503875253
0	8728	96.922962711381	0.002448870021
0	8730	96.925411581402	0.000449780667
0	8732	96.925861362069	0.061249945143
0	8734	96.987111307212	0.157369531314
0	8754	97.144480838526	0.031485626644
0	8772	97.17596646517	0.070884323915
0	8783	97.246850789085	0.02843169474
0	8788	97.275282483825	0.073276810614
0	8794	97.348559294439	0.09944367124
0	8796	97.448002965679	0.054390076633
0	8799	97.502393042312	0.074073232187
0	8801	97.576466274499	0.046232239246
0	8803	97.622698513745	0.185183828333
0	8810	97.807882342078	0.036481897546
0	8825	97.844364239624	0.02602597137
0	8833	97.870390210994	0.055006432301
0	8838	97.925396643295	0.136698584568
0	8844	98.062095227863	0.063693198978
0	8847	98.125788426841	0.088171998952
0	8849	98.213960425793	0.028012330648
0	8851	98.241972756441	0.02653627134
0	8854	98.268509027781	0.066199518162
0	8857	98.334708545943	0.058318583585
0	8859	98.393027129528	0.036626012582
0	8861	98.42965314211	0.020428691492
0	8863	98.450081833602	0.005334253494
0	8865	98.455416087096	0.124479142944
0	8898	98.57989523004	0.015929702559
0	8903	98.595824932599	0.007155892199
0	8905	98.602980824798	0.005092423429
0	8910	98.608073248227	0.014328513567
0	8918	98.622401761794	0.023318013974
0	8923	98.645719775768	0.012129416175
0	8928	98.657849191943	0.056701079437
0	8934	98.71455027138	0.030952903352
0	8936	98.745503174732	0.027496473783
0	8938	98.772999648515	0.08204434314
0	8941	98.855043991655	0.077727399836
0	8943	98.932771391491	0.044907854095
0	8945	98.977679245586	0.068003295618
0	8947	99.045682541204	0.04012792105
0	8949	99.085810462254	0.00937755855
0	8951	99.095188020804	3.2767198e-005
0	8953	99.095220788002	0.011038436618
0	8955	99.10625922462	0.033245048691
0	8957	99.139504273311	0.003996308234
0	8959	99.143500581545	0.003939791111
0	8961	99.147440372656	0.018418642953
0	8963	99.165859015609	0.014010822362
0	8965	99.179869837971	0.025695481729
0	8968	99.2055653197	0.161643461099
0	9021	99.367208780799	0.005543251125
0	9023	99.372752031924	0.014554737533
0	9031	99.387306769457	0.055312755497
0	9038	99.442619524954	0.117258526302
0	9042	99.559878051256	0.07518468564
0	9044	99.635062736896	0.097440626628
0	9046	99.732503363524	0.010263109142
0	9048	99.742766472666	0.010400251274
0	9050	99.75316672394	0.025125561135
0	9052	99.778292285075	0.055840413397
0	9054	99.834132698472	0.077951959946
0	9061	99.912084658418	0.007374947289
0	9066	99.919459605707	0.065316970383
0	9092	99.98477657609	0.078092526507
0	9097	100.062869102597	0.115638269835
0	9103	100.178507372432	0.060877605256
0	9106	100.239384977688	0.048527407577
0	9108	100.287912385265	0.100259194512
0	9110	100.388171579777	0.001565637898
0	9112	100.389737217675	0.039164617233
0	9114	100.428901834908	0.003541743171
0	9116	100.432443578079	0.147809677751
0	9118	100.58025325583	0.005006881054
0	9120	100.585260136884	0.003036492559
0	9122	100.588296629443	0.04368137298
0	9137	100.631978002423	0.020794020548
0	9148	100.652772022971	0.084415832717
0	9165	100.737187855688	0.07532704029
0	9171	100.812514895978	0.001968333283
0	9173	100.814483229261	0.03248834962
0	9175	100.846971578881	0.036604247477
0	9177	100.883575826358	0.011393505448
0	9179	100.894969331806	0.104508841288
0	9181	100.999478173094	0.006804283332
0	9183	101.006282456426	0.066266808299
0	9185	101.072549264725	0.102007435756
0	9189	101.174556700481	0.04736859569
0	9191	101.221925296171	0.03844956429
0	9193	101.260374860461	0.053322241657
0	9199	101.313697102118	0.128368651379
0	9234	101.442065753497	0.13607942345
0	9240	101.578145176947	0.079295406371
0	9243	101.657440583318	0.051350953287
0	9245	101.708791536605	0.031630127382
0	9247	101.740421663987	0.032872121639
0	9249	101.773293785626	0.028057444636
0	9252	101.801351230262	0.072831633784
0	9254	101.874182864046	0.043495406178
0	9257	101.917678270224	0.026515991332
0	9259	101.944194261556	0.13192591738
0	9289	102.076120178936	0.216519301016
0	9295	102.292639479952	0.080199662325
0	9299	102.372839142277	0.123485470659
0	9301	102.496324612936	0.000309977166
0	9303	102.496634590102	0.010222641521
0	9305	102.506857231623	0.071081169039
0	9307	102.577938400662	0.069144661163
0	9309	102.647083061825	0.151175409537
0	9333	102.798258471362	0.002079882154
0	9335	102.800338353516	0.074366829527
0	9344	102.874705183043	0.129877630541
0	9350	103.004582813584	0.011688365791
0	9352	103.016271179375	0.111803159028
0	9354	103.128074338403	0.039642905605
0	9356	103.167717244008	0.042816669195
0	9358	103.210533913203	0.009071425587
0	9360	103.21960533879	0.008196531581
0	9362	103.227801870371	0.026683107297
0	9364	103.254484977668	0.058288077214
0	9366	103.312773054882	0.165988810083
0	9396	103.478761864965	0.016413891735
0	9401	103.4951757567	0.154075363186
0	9407	103.649251119886	0.059796556749
0	9409	103.709047676635	0.019947115295
0	9411	103.72899479193	0.071000371401
0	9414	103.799995163331	0.024897394963
0	9416	103.824892558294	0.006740080839
0	9418	103.831632639133	0.055009382238
0	9420	103.886642021371	0.038884221581
0	9422	103.925526242952	0.198131037147
0	9435	104.123657280099	0.052854457037
0	9455	104.176511737136	0.009596136232
0	9460	104.186107873368	0.017551684375
0	9465	104.203659557743	0.017816823527
0	9470	104.22147638127	0.013464432212
0	9475	104.234940813482	0.124077738909
0	9482	104.359018552391	0.060942760383
0	9484	104.419961312774	0.040623702741
0	9486	104.460585015515	0.085813160895
0	9488	104.54639817641	0.137534977551
0	9490	104.683933153961	0.026693908139
0	9492	104.7106270621	0.0123121691
0	9494	104.7229392312	0.074044801604
0	9496	104.796984032804	0.04564299611
0	9517	104.842627028914	0.053113010679
0	9528	104.895740039593	0.023695517525
0	9533	104.919435557118	0.099515603214
0	9539	105.018951160332	0.022835453959
0	9541	105.041786614291	0.013694797392
0	9544	105.055481411683	0.035530488239
0	9546	105.091011899922	0.095494926785
0	9548	105.186506826707	0.03405195503
0	9550	105.220558781737	0.018588128074
0	9552	105.239146909811	0.026529010316
0	9554	105.265675920127	0.021251916845
0	9556	105.286927836972	0.147885608185
0	9559	105.434813445157	0.229474179386
0	9594	105.664287624543	0.078948853907
0	9600	105.74323647845	0.002826350249
0	9602	105.746062828699	0.078017348522
0	9604	105.824080177221	0.012625014194
0	9606	105.836705191415	0.020542104772
0	9608	105.857247296187	0.044147599621
0	9610	105.901394895808	0.051723697638
0	9612	105.953118593446	0.028295743227
0	9614	105.981414336673	0.090624289121
0	9616	106.072038625794	0.016632206311
0	9618	106.088670832105	0.095257757254
0	9620	106.183928589359	0.069225825802
0	9644	106.253154415161	0.025344206964
0	9658	106.278498622125	0.066381183898
0	9666	106.344879806023	0.088408666599
0	9673	106.433288472622	0.199024042663
0	9676	106.632312515285	0.079884261027
0	9678	106.712196776312	0.126520048913
0	9680	106.838716825225	0.009154568888
0	9682	106.847871394113	0.357974141985
0	9701	107.205845536098	0.120570517002
0	9705	107.3264160531	0.027048588638
0	9707	107.353464641738	0.034930863188
0	9709	107.388395504926	0.002777370355
0	9711	107.391172875281	0.039979852561
0	9714	107.431152727842	0.023608943818
0	9716	107.45476167166	0.035692575354
0	9719	107.490454247014	0.041219738154
0	9721	107.531673985168	0.050338396976
0	9723	107.582012382144	0.011338711003
0	9725	107.593351093147	0.058239944871
0	9749	107.651591038018	0.005334861741
0	9754	107.656925899759	0.041370775315
0	9771	107.698296675074	0.03616865448
0	9776	107.734465329554	0.12094904786
0	9783	107.855414377414	0.161884982577
0	9785	108.017299359991	0.05928891919
0	9787	108.076588279181	0.0864234963
0	9789	108.163011775481	0.030792502874
0	9791	108.193804278355	0.022393183701
0	9793	108.216197462056	0.032342370512
0	9795	108.248539832568	0.131686022927
0	9819	108.380225855495	0.099909283643
0	9825	108.480135139138	0.071695688002
0	9831	108.55183082714	0.025680309028
0	9833	108.577511136168	0.037343881461
0	9835	108.614855017629	0.014253932576
0	9837	108.629108950205	0.018442036365
0	9839	108.64755098657	0.003673165927
0	9841	108.651224152497	0.051415386089
0	9844	108.702639538586	0.125261415788
0	9846	108.827900954374	0.013007401545
0	9848	108.840908355919	0.150463340116
0	9852	108.991371696035	0.081109325164
0	9885	109.072481021199	0.007678196692
0	9890	109.080159217891	0.165808586435
0	9896	109.245967804326	0.024430630832
0	9898	109.270398435158	0.064599518931
0	9900	109.334997954089	0.011569379328
0	9902	109.346567333417	0.077457762335
0	9904	109.424025095752	0.007391002337
0	9906	109.431416098089	0.010782663555
0	9908	109.442198761644	0.138075201962
0	9911	109.580273963606	0.082752921044
0	9914	109.66302688465	0.003513530899
0	9916	109.666540415549	0.041272486289
0	9922	109.707812901838	0.236196367789
0	9955	109.944009269627	0.005486318882
0	9957	109.949495588509	0.006085487003
0	9959	109.955581075512	0.029309357183
0	9961	109.984890432695	0.11947293843
0	9963	110.104363371125	0.0784374831
0	9967	110.182800854225	0.050152654052
0	9970	110.232953508277	0.051794912656
0	9972	110.284748420933	0.02752412048
0	9974	110.312272541413	0.021950090348
0	9976	110.334222631761	0.025144248214
0	9978	110.359366879975	0.269237904674
0	10016	110.628604784649	0.08497160883
0	10019	110.713576393479	0.051203441173
0	10023	110.764779834652	0.022662822332
0	10025	110.787442656984	0.173969919221
0	10028	110.961412576205	0.064257302782
0	10030	111.025669878987	0.049228054075
0	10032	111.074897933062	0.043704838525
0	10041	111.118602771587	0.049898577162
0	10061	111.168501348749	0.039811301096
0	10066	111.208312649845	0.003151565421
0	10068	111.211464215266	0.138856493917
0	10077	111.350320709183	0.006594166511
0	10079	111.356914875694	0.048533021317
0	10081	111.405447897011	0.057183205571
0	10083	111.462631102582	0.10521984104
0	10085	111.567850943622	0.078924149554
0	10087	111.646775093176	0.077584316273
0	10089	111.724359409449	0.016785408144
0	10091	111.741144817593	0.002359214996
0	10093	111.743504032589	0.199413727584
0	10124	111.942917760173	0.088997411898
0	10130	112.031915172071	0.081110811414
0	10132	112.113025983485	0.014667413556
0	10134	112.127693397041	0.016309411141
0	10136	112.144002808182	0.140075293324
0	10139	112.284078101506	0.062040349364
0	10141	112.34611845087	0.002632360677
0	10143	112.348750811547	0.024908783669
0	10145	112.373659595216	0.024304393751
0	10147	112.397963988967	0.078002760551
0	10149	112.475966749518	0.006303829974
0	10151	112.482270579492	0.05270972943
0	10166	112.534980308922	0.038728786262
0	10186	112.573709095184	0.084796188917
0	10197	112.658505284101	0.102895386246
0	10204	112.761400670347	0.017378141876
0	10206	112.778778812223	0.021245328006
0	10208	112.800024140229	0.16155599206
0	10210	112.961580132289	0.009817164811
0	10212	112.9713972971	0.297721964694
0	10231	113.269119261794	0.024052572819
0	10236	113.293171834613	0.01078584529
0	10241	113.303957679903	0.100881863715
0	10248	113.404839543618	0.043157806336
0	10250	113.447997349954	0.009076166703
0	10252	113.457073516657	0.11947538948
0	10254	113.576548906137	0.015476713757
0	10256	113.592025619894	0.025634856978
0	10259	113.617660476872	0.004280220385
0	10261	113.621940697257	0.016674782808
0	10263	113.638615480065	0.073391384433
0	10265	113.712006864498	0.078797181321
0	10268	113.790804045819	0.030174745001
0	10270	113.82097879082	0.227701940023
0	10306	114.048680730843	0.022336906988
0	10311	114.071017637831	0.04204026253
0	10317	114.113057900361	0.076084315431
0	10319	114.189142215792	0.029897329033
0	10321	114.219039544825	0.02456635876
0	10323	114.243605903585	0.029848198645
0	10325	114.27345410223	0.078066758272
0	10327	114.351520860502	0.094940439017
0	10329	114.446461299519	0.101308669681
0	10332	114.5477699692	0.073462982159
0	10341	114.621232951359	0.014728168928
0	10352	114.635961120287	0.023044294302
0	10363	114.659005414589	0.218562581281
0	10375	114.87756799587	0.220353575114
0	10378	115.097921570984	0.010629864655
0	10380	115.108551435639	0.13330483215
0	10383	115.241856267789	0.0206205231
0	10385	115.262476790889	0.072424269654
0	10400	115.334901060543	0.011892079233
0	10408	115.346793139776	0.034872438187
0	10413	115.381665577963	0.025433540419
0	10418	115.407099118382	0.013938321849
0	10423	115.421037440231	0.039242613751
0	10428	115.460280053982	0.065611162629
0	10434	115.525891216611	0.044310752221
0	10436	115.570201968832	0.08411861682
0	10438	115.654320585652	0.115287236159
0	10441	115.769607821811	0.055592214632
0	10443	115.825200036443	0.132136106726
0	10445	115.957336143169	0.041065136494
0	10449	115.998401279663	0.014915671456
0	10455	116.013316951119	0.007536620961
0	10460	116.02085357208	0.058513742546
0	10483	116.079367314626	0.092151891947
0	10488	116.171519206573	0.007092971702
0	10493	116.178612178275	0.040588192792
0	10499	116.219200371067	0.036856816717
0	10501	116.256057187784	0.11549615026
0	10505	116.371553338044	0.023346003504
0	10507	116.394899341548	0.008688968069
0	10509	116.403588309617	0.022831782606
0	10511	116.426420092223	0.201297862762
0	10514	116.627717954985	0.03953451281
0	10516	116.667252467795	0.040542138946
0	10523	116.707794606741	0.078521709584
0	10549	116.786316316325	0.004506070252
0	10551	116.790822386577	0.004301533083
0	10556	116.79512391966	0.01971972346
0	10564	116.81484364312	0.126803897057
0	10570	116.941647540177	0.139723553231
0	10572	117.081371093408	0.079639378349
0	10574	117.161010471757	0.024389554054
0	10576	117.185400025811	0.011651458727
0	10578	117.197051484538	0.210549876549
0	10584	117.407601361087	0.167971366108
0	10601	117.575572727195	0.035232322278
0	10608	117.610805049473	0.042351119707
0	10611	117.65315616918	0.027441474687
0	10613	117.680597643867	0.513661095559
0	10626	118.194258739426	0.093573076903
0	10631	118.287831816329	0.01318342473
0	10637	118.301015241059	0.03776747408
0	10639	118.338782715139	0.045931228431
0	10641	118.38471394357	0.004714453617
0	10643	118.389428397187	0.020570383552
0	10645	118.409998780739	0.105909706774
0	10647	118.515908487513	0.021759300782
0	10650	118.537667788295	0.093771093264
0	10652	118.631438881559	0.053651999413
0	10654	118.685090880972	0.043415506086
0	10656	118.728506387058	0.152847075054
0	10689	118.881353462112	0.000583830356
0	10691	118.881937292468	0.098166584436
0	10699	118.980103876904	0.008795747553
0	10704	118.988899624457	0.077228526349
0	10711	119.066128150806	0.074685724728
0	10714	119.140813875534	0.049146272603
0	10716	119.189960148137	0.053621513505
0	10718	119.243581661642	0.153292847384
0	10722	119.396874509026	0.072247269607
0	10724	119.469121778633	0.040679131303
0	10730	119.509800909936	0.026864896485
0	10744	119.536665806421	0.12420854029
0	10755	119.660874346711	0.059554147071
0	10762	119.720428493782	0.10773941633
0	10764	119.828167910112	0.03423736548
0	10766	119.862405275592	0.014435341665
0	10768	119.876840617257	0.032045759278
0	10770	119.908886376535	0.088501098874
0	10772	119.997387475409	0.032171951408
0	10774	120.029559426817	0.000734750331
0	10776	120.030294177148	0.001954839215
0	10778	120.032249016363	0.023389934791
0	10780	120.055638951154	0.003776068912
0	10782	120.059415020066	0.015648189374
0	10784	120.07506320944	0.113555479744
0	10786	120.188618689184	0.042418089843
0	10801	120.231036779027	0.07135008447
0	10834	120.302386863497	0.08010258506
0	10839	120.382489448557	0.015713975435
0	10844	120.398203423992	0.006166921921
0	10847	120.404370345913	0.007542413326
0	10852	120.411912759239	0.043406760004
0	10854	120.455319519243	0.002493727128
0	10856	120.457813246371	0.167237317961
0	10858	120.625050564332	0.039201808033
0	10860	120.664252372365	0.015576514781
0	10862	120.679828887146	0.053199128076
0	10864	120.733028015222	0.067832401808
0	10866	120.80086041703	0.136941033899
0	10881	120.937801450929	0.053918877282
0	10901	120.991720328211	0.151747886398
0	10907	121.143468214609	0.000606880537
0	10909	121.144075095146	0.027365505944
0	10911	121.17144060109	0.038755917214
0	10913	121.210196518304	0.160279480225
0	10916	121.370475998529	0.074018596656
0	10938	121.444494595185	0.047350329945
0	10948	121.49184492513	0.002698300076
0	10950	121.494543225206	0.051211900221
0	10960	121.545755125427	0.126977030882
0	10966	121.672732156309	0.011807307967
0	10971	121.684539464276	0.04404832898
0	10976	121.728587793256	0.007388490415
0	10981	121.735976283671	0.001868456007
0	10983	121.737844739678	0.016812688686
0	10991	121.754657428364	0.015248154772
0	10996	121.769905583136	0.007963141791
0	11001	121.777868724927	0.184325318413
0	11007	121.96219404334	0.015161422615
0	11009	121.977355465955	0.052382343103
0	11011	122.029737809058	0.046567390657
0	11013	122.076305199715	0.006821881705
0	11015	122.08312708142	0.121613217425
0	11017	122.204740298845	0.02034226966
0	11019	122.225082568505	0.09508114241
0	11028	122.320163710915	0.036606018132
0	11045	122.356769729047	0.001973476188
0	11050	122.358743205235	0.001270357911
0	11052	122.360013563146	0.071950541764
0	11064	122.43196410491	0.031822479892
0	11069	122.463786584802	0.002875315026
0	11071	122.466661899828	0.0403370167
0	11080	122.506998916528	0.373645930079
0	11084	122.880644846607	0.016757274121
0	11086	122.897402120728	0.091980384346
0	11088	122.989382505074	0.053297046129
0	11103	123.042679551203	0.015789653796
0	11108	123.058469204999	0.083960373745
0	11114	123.142429578744	0.040413647428
0	11119	123.182843226172	0.016138231701
0	11124	123.198981457873	0.081778399901
0	11130	123.280759857774	0.058134024174
0	11133	123.338893881948	0.109882378806
0	11135	123.448776260754	0.061236149079
0	11137	123.510012409833	0.015592917125
0	11139	123.525605326958	0.178017379625
0	11141	123.703622706583	0.008628681287
0	11144	123.71225138787	0.090379359736
0	11167	123.802630747606	0.160485563632
0	11174	123.963116311238	0.113168929614
0	11178	124.076285240852	0.066658400782
0	11180	124.142943641634	0.040450093768
0	11184	124.183393735402	0.125386433261
0	11205	124.308780168663	0.012299698443
0	11211	124.321079867106	0.015867873715
0	11216	124.336947740821	0.328579131084
0	11225	124.665526871905	0.008265902613
0	11227	124.673792774518	0.008311310527
0	11229	124.682104085045	0.025876999929
0	11231	124.707981084974	0.038257903155
0	11233	124.746238988129	0.017477309004
0	11235	124.763716297133	0.004231341876
0	11237	124.767947639009	0.004532187655
0	11239	124.772479826664	0.17278462688
0	11242	124.945264453544	0.062050274326
0	11244	125.00731472787	0.201015906342
0	11278	125.208330634212	0.01735795969
0	11283	125.225688593902	0.076247167163
0	11289	125.301935761065	0.035894712921
0	11291	125.337830473986	0.025846314785
0	11293	125.363676788771	0.020405974989
0	11295	125.38408276376	0.017612544201
0	11297	125.401695307961	0.15244460623
0	11300	125.554139914191	0.018497853076
0	11303	125.572637767267	0.035893042486
0	11305	125.608530809753	0.008169394402
0	11307	125.616700204155	0.127144197167
0	11310	125.743844401322	0.04476869982
0	11313	125.788613101142	0.00270086885
0	11315	125.791313969992	0.009176294205
0	11318	125.800490264197	0.046046635382
0	11338	125.846536899579	0.022851969262
0	11349	125.869388868841	0.036168834263
0	11366	125.905557703104	0.059123414673
0	11374	125.964681117777	0.023681987953
0	11379	125.98836310573	0.078016603767
0	11385	126.066379709497	0.021416738177
0	11387	126.087796447674	0.001474328746
0	11389	126.08927077642	0.018619236882
0	11391	126.107890013302	0.033739345498
0	11393	126.1416293588	0.013353338219
0	11395	126.154982697019	0.063354653959
0	11397	126.218337350978	0.040711172909
0	11399	126.259048523887	0.11513984548
0	11401	126.374188369367	0.025399824363
0	11404	126.39958819373	0.038698550261
0	11406	126.438286743991	0.024082456513
0	11408	126.462369200504	0.208825885222
0	11447	126.671195085726	0.004110040907
0	11449	126.675305126633	0.018524746077
0	11457	126.69382987271	0.000837724095
0	11459	126.694667596805	0.000816046559
0	11461	126.695483643364	0.145591533547
0	11467	126.841075176911	0.039670181047
0	11469	126.880745357958	0.032041400443
0	11471	126.912786758401	0.017752032431
0	11473	126.930538790832	0.067814450336
0	11476	126.998353241168	0.10414010697
0	11480	127.102493348138	0.036132497643
0	11482	127.138625845781	0.015898328143
0	11484	127.154524173924	0.013436457627
0	11486	127.167960631551	0.022318560506
0	11488	127.190279192057	0.159107437525
0	11527	127.349386629582	0.093990588311
0	11534	127.443377217893	0.007851776147
0	11536	127.45122899404	0.075346131708
0	11538	127.526575125748	0.039394478549
0	11540	127.565969604297	0.048993679864
0	11542	127.614963284161	0.00577268965
0	11544	127.620735973811	0.073236232312
0	11546	127.693972206123	0.015625504169
0	11549	127.709597710292	0.032542781623
0	11579	127.742140491915	0.069390045969
0	11591	127.811530537884	0.000319451904
0	11593	127.811849989788	0.044845120531
0	11601	127.856695110319	0.000685205193
0	11604	127.857380315512	0.047917729826
0	11613	127.905298045338	0.042950786839
0	11618	127.948248832177	0.107112847055
0	11623	128.055361679232	0.005217910661
0	11625	128.060579589893	0.003762214335
0	11630	128.064341804228	0.003145561131
0	11632	128.067487365359	0.141123353104
0	11645	128.208610718463	0.202036698732
0	11647	128.410647417195	0.063200136812
0	11649	128.473847554007	0.117540847229
0	11651	128.591388401236	0.06145048674
0	11666	128.652838887976	0.009894405356
0	11672	128.662733293332	0.001840432541
0	11674	128.664573725873	3.9866173e-005
0	11676	128.664613592046	0.144525164442
0	11689	128.809138756488	0.170496057351
0	11692	128.979634813839	0.001702856927
0	11694	128.981337670766	0.019570847851
0	11696	129.000908518617	0.012307018531
0	11698	129.013215537148	0.012340147198
0	11700	129.025555684346	0.135750648227
0	11702	129.161306332573	0.070563583633
0	11705	129.231869916206	0.008130469658
0	11707	129.240000385864	0.006918169432
0	11709	129.246918555296	0.03044868984
0	11711	129.277367245136	0.01844448901
0	11713	129.295811734146	0.08563928188
0	11749	129.381451016026	0.221560423273
0	11758	129.603011439299	0.049662109305
0	11760	129.652673548604	0.061209603682
0	11762	129.713883152286	0.07866632782
0	11765	129.792549480106	0.044122934543
0	11767	129.836672414649	0.012854455308
0	11769	129.849526869957	0.030441759365
0	11771	129.879968629322	0.031867051147
0	11773	129.911835680469	0.089366362207
0	11776	130.001202042676	0.041395714308
0	11796	130.042597756984	0.009116211516
[...]
21	16777	189.222331659597	0.87606175606674
21	16865	190.098393415664	4.4068659490538
21	17283	194.505259364718	0.98663025837274
21	17359	195.491889623091	4.4661431570037
21	17754	199.958032780095	2.2217815092785
21	17960	202.179814289373	3.1909639217887
21	18184	205.370778211162	6.9758605017895
21	18857	212.346638712951	0.31098129837197
21	18903	212.657620011323	7.0254177062207
21	19607	219.683037717544	0.30307877653036
21	19619	219.986116494074	0.53086832904459
21	19667	220.516984823119	0.80191826174657
21	19740	221.318903084866	1.0679738269862
21	19811	222.386876911852	4.621707039762
21	20183	227.008583951614	0.056808935722111
21	20188	227.065392887336	0.1093228705379
21	20229	227.174715757874	1.2520511781996
21	20330	228.426766936074	1.838349475002
21	20509	230.265116411076	2.1489325487024
21	20710	232.414048959778	1.9882756571201
21	20883	234.402324616898	0.59816509434225
21	20909	235.00048971124	1.1477304003919
21	21051	236.148220111632	7.2082079621631
21	21682	243.356428073795	9.9266505759847
21	22667	253.28307864978	0.13739984187845
21	22690	253.420478491658	2.3715456631246
21	22931	255.792024154783	1.3785123477652
21	23038	257.170536502548	2.4910810131701
21	23287	259.661617515718	1.2361988432705
21	23405	260.897816358988	1.7080632369898
21	23568	262.605879595978	4.8589041905876
21	23974	267.464783786566	3.1805859436672
21	24218	270.645369730233	9.0658441176437
21	24943	279.711213847877	3.7832006859551
21	25288	283.494414533832	2.688575249453
21	25504	286.182989783285	2.9895682007513
21	25792	289.172557984036	2.1036708038978
21	25927	291.276228787934	0.68400129634766
21	26002	291.960230084282	7.6942945797673
21	26750	299.654524664049	0.65827737038759
21	26786	300.312802034437	0.22522252202023
21	26796	300.538024556457	5.6145069908601
21	27330	306.152531547317	5.0222124473151
21	27797	311.174743994632	1.0294079046215
21	27898	312.204151899253	1.5195563816163
21	28023	313.723708280869	2.4014336588241
21	28222	316.125141939693	0.070138628219987
21	28223	316.195280567913	0.66229776739992
21	28278	316.857578335313	1.8456268677224
21	28496	318.703205203035	2.4469187343929
21	28699	321.150123937428	0.940896399422
21	28771	322.09102033685	6.2484538519318
21	29316	328.339474188782	1.5921570156928
21	29438	329.931631204475	3.6077880801025
21	29791	333.539419284578	10.154275731826
21	30726	343.693695016404	3.291200027072
21	30948	346.984895043476	1.1300566545734
21	31048	348.114951698049	3.0881994350532
21	31278	351.203151133102	1.0771264163634
21	31358	352.280277549465	4.964005833416
21	31846	357.244283382881	2.5935700301847
21	32064	359.837853413066	2.9348273964876
21	32327	362.772680809554	0.45043595099635
21	32380	363.22311676055	0.6628849668934
21	32428	363.886001727443	0.49965452261994
21	32449	364.385656250063	2.899856074574
21	32740	367.285512324637	0.36187572482602
21	32794	367.647388049463	3.7857964792885
21	33185	371.433184528751	1.2623071025507
21	33273	372.695491631302	1.7926049763685
21	33496	374.488096607671	2.6702586017472
21	33680	377.158355209418	2.3991615954015
21	33918	379.557516804819	0.0061931119847609
21	33919	379.563709916804	0.33410179210719
21	33934	379.897811708911	10.339762547261
21	34934	390.237574256172	5.1984441166045
21	35480	395.436018372776	5.8653783732536
22	1103	12.313726549034	3.1862583372779
22	1378	15.499984886312	0.48249557913301
22	1434	15.982480465445	10.018987674326
22	2325	26.001468139771	2.1716798347672
22	2520	28.173147974538	1.6944612178096
22	2683	29.867609192348	10.578273787286
22	3668	40.445882979634	0.90228066555986
22	3792	41.348163645194	5.3516756987192
22	4261	46.699839343913	1.4707337582
22	4414	48.170573102113	1.6079474280271
22	4612	49.77852053014	10.825848372382
22	5480	60.604368902522	4.1442533517777
22	5888	64.7486222543	0.91867287064434
22	5972	65.667295124944	7.3572769111096
22	6569	73.024572036054	1.1628103702879
22	6697	74.187382406342	0.97486119405509
22	6775	75.162243600397	0.35156775325492
22	6783	75.513811353652	0.96086066612019
22	6841	76.474672019772	1.0494057342004
22	6934	77.524077753972	0.72592570725655
22	7013	78.250003461229	0.95994590661269
22	7083	79.209949367842	0.9665632727378
22	7165	80.17651264058	0.47069961539469
22	7221	80.647212255975	0.79235858753533
22	7290	81.43957084351	0.52912139772893
22	7373	81.968692241239	0.52830247781598
22	7418	82.496994719055	5.4331507610799
22	7948	87.930145480135	2.6731995972103
22	8204	90.603345077345	1.6989573923134
22	8369	92.302302469658	2.6541887103624
22	8545	94.95649118002	6.1937141206312
22	9188	101.150205300651	1.2098342015302
22	9298	102.360039502181	6.5101318526832
22	9850	108.870171354864	1.3116681563967
22	9966	110.181839511261	0.67259112459458
22	10027	110.854430635856	2.5338239032597
22	10246	113.388254539116	5.8656955440101
22	10720	119.253950083126	7.8176161522971
22	11478	127.071566235423	3.9355672715841
22	11852	131.007133507007	8.836449034655
22	12612	139.843582541662	1.2450161362636
22	12695	141.088598677926	11.809727581967
22	13700	152.898326259893	1.9487482334808
22	13818	154.847074493374	0.73734609190123
22	13865	155.584420585275	2.8166073127921
22	14163	158.401027898067	15.865257109258
22	15527	174.266285007325	3.9169182748501
22	15846	178.183203282175	3.3087586650785
22	16163	181.491961947253	1.2346078007853
22	16292	182.726569748038	2.2913636997101
22	16457	185.017933447748	2.4416097452652
22	16661	187.459543193013	4.1464891592869
22	16974	191.6060323523	1.2409544370202
22	17072	192.84698678932	1.0331285850609
22	17226	193.880115374381	3.1390155621175
22	17495	197.019130936498	1.1198480092885
22	17588	198.138978945786	3.8392266098838
22	17931	201.97820555567	0.15986738708026
22	17948	202.13807294275	9.256225016453
22	18786	211.394297959203	0.79063712565201
22	18843	212.184935084855	3.6674596460812
22	19274	215.852394730936	0.66193960521858
22	19326	216.514334336155	3.7468263848137
22	19628	220.261160720969	5.9409930474139
22	20114	226.202153768383	0.42076862074789
22	20130	226.622922389131	6.2609716335039
22	20732	232.883894022635	3.7023224311994
22	21089	236.586216453834	2.9341756749721
22	21382	239.520392128806	1.2540401393417
22	21474	240.774432268148	3.3026825819097
22	21737	244.077114850058	2.486392409993
22	22053	246.563507260051	0.76081337169809
22	22107	247.324320631749	8.499947440247
22	22934	255.824268071996	2.2191950981115
22	23129	258.043463170108	0.59422897065781
22	23199	258.637692140766	1.5331996583927
22	23307	260.170891799159	3.2597713842356
22	23617	263.430663183395	0.51088862775603
22	23693	263.941551811151	8.4483585141455
22	24383	272.389910325296	0.50502704516982
22	24398	272.894937370466	2.6424482606555
22	24614	275.537385631122	0.83710577965915
22	24695	276.374491410781	0.61436485784592
22	24728	276.988856268627	12.065298264513
22	25784	289.05415453314	1.8665980004763
22	25893	290.920752533616	3.6876676456264
22	26290	294.608420179242	1.6050012337176
22	26436	296.21342141296	3.3172476771312
22	26738	299.530669090091	1.6917303038527
22	26860	301.222399393944	1.6531149545935
22	27013	302.875514348538	3.7070296323719
22	27396	306.58254398091	0.82553864917414
22	27457	307.408082630084	0.042004159567686
22	27460	307.450086789652	5.2598812079225
22	27926	312.709967997574	2.051148364348
22	28074	314.761116361922	3.6336194384459
22	28451	318.394735800368	4.6894102054842
22	28845	323.084146005852	0.48800823692163
22	28887	323.572154242774	0.5189371974841
22	28955	324.091091440258	0.78984548546715
22	29023	324.880936925725	1.3335297940629
22	29108	326.214466719788	6.1599541647163
22	29706	332.374420884504	0.8340631380041
22	29772	333.208484022508	6.230504218393
22	30297	339.438988240901	14.457035886657
22	31595	353.896024127558	2.923300004334
22	31803	356.819324131892	0.38895453056547
22	31843	357.208278662457	0.39939487707682
22	31881	357.607673539534	0.73313791883415
22	31977	358.340811458368	2.2638161471731
22	32159	360.604627605541	0.35990456876535
22	32170	360.964532174306	5.2479190285141
22	32656	366.21245120282	0.1621953014486
22	32661	366.374646504269	0.34937291361277
22	32698	366.724019417882	0.69283328497174
22	32782	367.416852702854	0.65577660925064
22	32842	368.072629312105	2.2920911801722
22	33070	370.364720492277	8.1085284854786
22	33806	378.473248977756	0.65017729126694
22	33857	379.123426269023	0.34829611986583
22	33916	379.471722388889	0.029300814333314
22	33917	379.501023203222	1.0321906486021
22	33993	380.533213851824	1.6222694190236
22	34157	382.155483270848	1.9598394818668
22	34338	384.115322752715	1.3537041572767
22	34452	385.469026909992	7.098919842925
22	35157	392.567946752917	0.37991568916569
22	35183	392.947862442083	1.5636143231781
22	35371	394.511476765261	2.9909686982136
22	35621	397.502445463475	1.4692925182006
22	35728	398.971737981676	2.2804519049435
23	1171	13.034736668212	4.7264103624311
23	1614	17.761147030643	6.6087639146457
23	2185	24.369910945289	0.25698387981324
23	2210	24.626894825102	8.8747559547331
23	3029	33.501650779835	1.9676799423511
23	3170	35.469330722186	2.2274338054403
23	3372	37.696764527626	2.1035407124729
23	3606	39.800305240099	2.4198470712186
23	3866	42.220152311318	7.8333183271819
23	4619	50.0534706385	1.2552480548093
23	4706	51.308718693309	9.8470108292533
23	5543	61.155729522562	4.807173226955
23	5986	65.962902749517	1.6328135283263
23	6103	67.595716277843	7.4928350381844
23	6774	75.088551316027	1.8694230725
23	6896	76.957974388527	2.1699481596215
23	7078	79.127922548148	5.5951807101777
23	7624	84.723103258326	1.0117484730514
23	7710	85.734851731377	0.78243511988207
23	7812	86.517286851259	3.6585540234924
23	8189	90.175840874751	0.66204143956655
23	8224	90.837882314318	0.0077577452830852
23	8228	90.845640059601	2.8999228454794
23	8459	93.74556290508	1.3502612947895
23	8577	95.095824199869	1.9910783529716
23	8737	97.086902552841	3.9880570459315
23	9187	101.074959598772	0.83583713604125
23	9256	101.910796734813	3.3916070707124
23	9558	105.302403805525	1.0433313731097
23	9668	106.345735178635	3.7736726930053
23	9965	110.11940787164	0.09696491704777
23	9969	110.216372788688	0.21041527946957
23	9990	110.426788068158	1.4747075637769
23	10123	111.901495631935	4.4055990210837
23	10504	116.307094653019	1.2743940420286
23	10603	117.581488695048	6.2760456231261
23	11172	123.857534318174	0.30791956203762
23	11183	124.165453880212	5.9204414490618
23	11821	130.085895329274	0.74877529783293
23	11842	130.834670627107	6.3763825927021
23	12340	137.211053219809	0.12643459812152
23	12349	137.337487817931	1.4379449256192
23	12480	138.77543274355	0.60519700537918
23	12583	139.380629748929	4.099925358454
23	12904	143.480555107383	4.6854281023522
23	13295	148.165983209735	0.24766164116079
23	13326	148.413644850896	1.684192355915
23	13440	150.097837206811	0.32190323115279
23	13513	150.419740437964	0.57929492353295
23	13562	150.999035361497	1.2297433444377
23	13656	152.228778705935	0.41380568446897
23	13692	152.642584390404	3.1744871308823
23	13878	155.817071521286	0.31833458409627
23	13930	156.135406105382	5.3731040486679
23	14387	161.50851015405	6.244783128557
23	14934	167.753293282607	0.80908334030217
23	15007	168.562376622909	3.8951614315318
23	15343	172.457538054441	3.4128834920311
23	15660	175.870421546472	0.090702695307817
23	15665	175.96112424178	1.0174956655909
23	15751	176.978619907371	10.244045539457
23	16627	187.222665446828	0.8800007974928
23	16690	188.102666244321	2.1203502308745
23	16894	190.223016475196	4.7647216285009
23	17320	194.987738103697	3.5063177475746
23	17599	198.494055851272	1.4651173942576
23	17755	199.95917324553	1.150489956651
23	17847	201.109663202181	7.9688117187596
23	18519	209.078474920941	1.0974267698376
23	18657	210.175901690779	0.095407149334544
23	18659	210.271308840114	8.6944337525099
23	19556	218.965742592624	0.74649923933879
23	19613	219.712241831963	1.8468383355019
23	19777	221.559080167465	0.93029798846885
23	19825	222.489378155934	1.0726479175845
23	19879	223.562026073518	4.3817709920057
23	20279	227.943797065524	2.940881227557
23	20570	230.884678293081	5.0220186382318
23	21044	235.906696931313	1.5434690573537
23	21178	237.450165988667	0.67559839915206
23	21233	238.125764387819	9.5472025767415
23	22159	247.672966964561	0.68651255572848
23	22223	248.359479520289	0.53893243789133
23	22256	248.89841195818	0.53530907118271
23	22305	249.433721029363	12.89104317806
23	23560	262.324764207423	0.1904147668719
23	23567	262.515178974295	2.9488033209119
23	23803	265.463982295207	8.4601758597095
23	24485	273.924158154916	2.2278402025234
23	24686	276.151998357439	1.4278871512703
23	24774	277.579885508709	0.072708087690866
23	24781	277.6525935964	19.513402438353
23	26537	297.165996034753	4.3017237421261
23	26869	301.467719776879	3.8014209672883
23	27261	305.269140744167	0.98271039958125
23	27334	306.251851143748	0.45311123977492
23	27400	306.704962383523	1.1700598858348
23	27510	307.875022269358	2.117207271648
23	27711	309.992229541006	0.32525983383521
23	27741	310.317489374841	1.1111220201725
23	27824	311.428611395014	1.1105716854345
23	27915	312.539183080449	1.9557037114527
23	28069	314.494886791902	2.3257940164798
23	28274	316.820680808382	1.2928351641891
23	28403	318.113515972571	1.6725855930733
23	28590	319.786101565644	2.9417870336787
23	28830	322.727888599323	0.081947667614225
23	28835	322.809836266937	0.9757492220558
23	28901	323.785585488993	5.9909525187844
23	29433	329.776538007777	1.8618330577714
23	29630	331.638371065548	1.7194044024024
23	29784	333.35777546795	0.70698901227447
23	29844	334.064764480224	7.6272798665052
23	30521	341.692044346729	8.270103597299
23	31199	349.962147944028	1.1343987175462
23	31276	351.096546661574	1.1748339385351
23	31357	352.271380600109	6.8689864144534
23	32028	359.140367014562	6.5587768336816
23	32587	365.699143848244	0.84779475157283
23	32669	366.546938599817	1.8862767116866
23	32867	368.433215311504	0.56608662390043
23	32908	368.999301935404	1.0487609279302
23	32980	370.048062863334	9.1509283866574
23	33860	379.198991249991	0.14734917338462
23	33903	379.346340423376	1.9086831573429
23	34060	381.255023580719	0.94253897186399
23	34158	382.197562552583	3.4010931269022
23	34483	385.598655679485	13.764848575909
23	35757	399.363504255394	2.2968674919385
24	1661	18.527692622347	1.136312442241
24	1770	19.664005064588	4.9691999851495
24	2211	24.633205049738	1.368739580575
24	2326	26.001944630313	1.5640173326607
24	2474	27.565961962974	0.082737600254544
24	2477	27.648699563229	4.1187299545198
24	2907	31.767429517749	2.7625316337105
24	3092	34.52996115146	0.5561904462513
24	3144	35.086151597711	1.0402724223642
24	3208	36.126424020075	1.3230792072979
24	3321	37.449503227373	2.185892604752
24	3559	39.635395832125	1.1726517232226
24	3707	40.808047555348	1.4676321738589
24	3871	42.275679729207	4.0039198901016
24	4255	46.279599619309	3.2559217815913
24	4558	49.5355214009	2.9895969590251
24	4852	52.525118359925	0.72482296041573
24	4910	53.249941320341	0.78170289814831
24	4944	54.031644218489	6.3409074038718
24	5473	60.372551622361	1.640075420557
24	5604	62.012627042918	0.7486085676486
24	5670	62.761235610567	7.5199347381347
24	6321	70.281170348702	6.8008974670721
24	6910	77.082067815774	0.30041601859835
24	6923	77.382483834372	4.6084497551525
24	7374	81.990933589524	0.74265444667327
24	7436	82.733588036197	4.061540111629
24	7875	86.795128147826	1.325461285887
24	7967	88.120589433713	7.2457673522617
24	8595	95.366356785975	2.1254981710325
24	8798	97.491854957008	0.61587309071447
24	8846	98.107728047722	3.6927082923893
24	9251	101.800436340111	1.9702036678518
24	9413	103.770640007963	0.50016799301304
24	9480	104.270808000976	8.795126105117
24	10214	113.065934106093	3.6346466942043
24	10519	116.700580800297	2.3242603046111
24	10710	119.024841104908	5.5418110307764
24	11223	124.566652135684	0.98909763641697
24	11302	125.555749772101	0.23148820329919
24	11312	125.7872379754	1.1828913083509
24	11475	126.970129283751	4.2441387864774
24	11862	131.214268070228	0.60739445388582
24	11912	131.821662524114	13.09960706888
24	13005	144.921269592994	3.8798340161506
24	13332	148.801103609145	3.08008989844
24	13645	151.881193507585	0.1866080830828
24	13655	152.067801590668	12.248143436004
24	14616	164.315945026672	0.056110250993108
24	14642	164.372055277665	0.22901846975062
24	14664	164.601073747416	2.9295932399941
24	14925	167.53066698741	5.2270311308637
24	15395	172.757698118274	0.30235737852638
24	15412	173.0600554968	1.9267514638326
24	15576	174.986806960633	0.40457432938258
24	15606	175.391381290016	0.86818227511691
24	15696	176.259563565133	5.6999689120054
24	16229	181.959532477138	9.6346577706683
24	16972	191.594190247806	0.69238437905666
24	17022	192.286574626863	7.616598849035
24	17751	199.903173475898	2.043111736338
24	17927	201.946285212236	0.0056532962066554
24	17928	201.951938508443	5.5188740086072
24	18364	207.47081251705	3.3683102349399
24	18721	210.83912275199	8.1574770427615
24	19560	218.996599794752	0.25627948262597
24	19577	219.252879277378	2.0168205130649
24	19739	221.269699790443	0.45164377882488
24	19795	221.721343569268	2.2954959569992
24	19913	224.016839526267	0.9254649761773
24	19988	224.942304502444	3.3053458574979
24	20327	228.247650359942	2.3260738149217
24	20530	230.573724174864	0.69656594612208
24	20590	231.270290120986	2.2832561322795
24	20793	233.553546253265	1.4577644804479
24	20913	235.011310733713	0.27848251767652
24	20965	235.28979325139	0.95403532855715
24	21058	236.243828579947	0.20836712329088
24	21085	236.452195703238	1.4680301882665
24	21226	237.920225891505	11.760705543552
24	22316	249.680931435057	2.4423447763296
24	22520	252.123276211387	2.8740211849861
24	22846	254.997297396373	4.0919656807329
24	23249	259.089263077106	1.3126989046598
24	23333	260.401961981766	0.39045562263864
24	23395	260.792417604405	1.399332737069
24	23540	262.191750341474	3.5939657937966
24	23813	265.785716135271	1.8089193890224
24	23981	267.594635524293	3.5186560109185
24	24291	271.113291535211	1.3389846896797
24	24384	272.452276224891	0.11337912623309
24	24388	272.565655351124	3.1152101174667
24	24636	275.680865468591	8.1605239234703
24	25296	283.841389392061	5.3093335860346
24	25791	289.150722978096	0.15722010785414
24	25798	289.30794308595	4.8999416861423
24	26242	294.207884772092	4.6225584725876
24	26689	298.83044324468	0.93498117546078
24	26751	299.765424420141	2.335906697984
24	26936	302.101331118125	9.6351430133372
24	27838	311.736474131462	0.13254819418527
24	27848	311.869022325647	0.21996142587365
24	27883	312.088983751521	7.1557920936216
24	28549	319.244775845143	1.9209151899983
24	28705	321.165691035141	1.0972475027147
24	28774	322.262938537856	3.933950673347
24	29102	326.196889211203	2.9415884448522
24	29371	329.138477656055	0.81650474046415
24	29439	329.954982396519	0.44716585837115
24	29510	330.40214825489	1.0864035934234
24	29609	331.488551848313	4.1059911861323
24	29991	335.594543034445	1.8276979847793
24	30153	337.422241019224	1.2453608616508
24	30218	338.667601880875	5.0781251304372
24	30730	343.745727011312	1.4517194100089
24	30828	345.197446421321	2.6324939762444
24	31032	347.829940397565	0.43489293370715
24	31058	348.264833331272	1.2200409555645
24	31148	349.484874286836	1.4368487052697
24	31273	350.921722992106	5.6781351432112
24	31788	356.599858135317	0.34827997058374
24	31824	356.948138105901	4.0980197480612
24	32189	361.046157853962	1.7534223799808
24	32328	362.799580233943	2.0866864734204
24	32508	364.886266707363	1.5555579092047
24	32668	366.441824616568	1.1764403713086
24	32793	367.618264987877	3.0747807320248
24	33081	370.693045719902	1.0766508149597
24	33197	371.769696534862	3.7101989580674
24	33540	375.479895492929	0.050122703236757
24	33543	375.530018196166	0.77612876190453
24	33603	376.306146958071	1.7502714170063
24	33774	378.056418375077	0.77213211135867
24	33836	378.828550486436	2.9182526578219
24	34104	381.746803144258	3.9558401374603
24	34506	385.702643281718	4.6291849933707
24	34937	390.331828275089	0.18522421603475
24	34974	390.517052491124	1.986050967834
24	35127	392.503103458958	1.6561412703911
24	35358	394.159244729349	0.77745542384972
24	35424	394.936700153199	3.661067350749
24	35690	398.597767503948	3.240049630835

