version 2
run Exponential-capacity-16-20210216-13:45:48-24540
attr configname Exponential-capacity
attr datetime 20210216-13:45:48
attr experiment Exponential-capacity
attr inifile aerocom.ini
attr iterationvars "$0=0.5, $1=50, $2=0.5, $3=4"
attr iterationvarsf 0.5,50,0.5,4-
attr measurement "$0=0.5, $1=50, $2=0.5, $3=4"
attr network Aerocom
attr processid 24540
attr repetition 1
attr replication #1
attr resultdir results
attr runnumber 16
attr seedset 1
param **.t 0.5s
param **.k 50ms
param **.X 0.5s
param **.m 4s
param **.tDistribution "\"exponential\""
param **.operationMode 0
param **.s "70 byte"
param **.dimPoolMax 10000
param **.dimPoolMin 8000
param **.nDL 10
param **.nA 1
param **.DLMaxCapacity 0
param **.trasmitting false

vector 0 Aerocom.aircraft[0].linkSelector responseTime:vector ETV
attr "" ""
attr source computeResponseTime
vector 1 Aerocom.aircraft[0].dataLink[2] tDistribution:vector ETV
attr "" ""
attr source computeTDistribution
vector 2 Aerocom.aircraft[0].dataLink[7] tDistribution:vector ETV
attr "" ""
attr source computeTDistribution
vector 3 Aerocom.aircraft[0].dataLink[4] tDistribution:vector ETV
attr "" ""
attr source computeTDistribution
vector 4 Aerocom.aircraft[0].dataLink[3] tDistribution:vector ETV
attr "" ""
attr source computeTDistribution
vector 5 Aerocom.aircraft[0].packetGenerator arrivalTime:vector ETV
attr "" ""
attr source computeArrivalTime
vector 6 Aerocom.aircraft[0].linkSelector waitingTime:vector ETV
attr "" ""
attr source computeWaitingTime
vector 7 Aerocom.aircraft[0].linkSelector queueLength:vector ETV
attr "" ""
attr source computeQueueLength
vector 8 Aerocom.aircraft[0].dataLink[1] actualCapacity:vector ETV
attr "" ""
attr source computeActualCapacity
vector 9 Aerocom.aircraft[0].linkSelector serviceTime:vector ETV
attr "" ""
attr source computeServiceTime
vector 10 Aerocom.aircraft[0].dataLink[6] tDistribution:vector ETV
attr "" ""
attr source computeTDistribution
vector 11 Aerocom.aircraft[0].dataLink[9] tDistribution:vector ETV
attr "" ""
attr source computeTDistribution
vector 12 Aerocom.aircraft[0].dataLink[5] tDistribution:vector ETV
attr "" ""
attr source computeTDistribution
vector 13 Aerocom.aircraft[0].dataLink[1] tDistribution:vector ETV
attr "" ""
attr source computeTDistribution
vector 14 Aerocom.aircraft[0].dataLink[0] tDistribution:vector ETV
attr "" ""
attr source computeTDistribution
vector 15 Aerocom.aircraft[0].dataLink[8] tDistribution:vector ETV
attr "" ""
attr source computeTDistribution
vector 16 Aerocom.aircraft[0].dataLink[0] actualCapacity:vector ETV
attr "" ""
attr source computeActualCapacity
vector 17 Aerocom.aircraft[0].dataLink[2] actualCapacity:vector ETV
attr "" ""
attr source computeActualCapacity
vector 18 Aerocom.aircraft[0].dataLink[3] actualCapacity:vector ETV
attr "" ""
attr source computeActualCapacity
vector 19 Aerocom.aircraft[0].dataLink[4] actualCapacity:vector ETV
attr "" ""
attr source computeActualCapacity
vector 20 Aerocom.aircraft[0].dataLink[5] actualCapacity:vector ETV
attr "" ""
attr source computeActualCapacity
vector 21 Aerocom.aircraft[0].dataLink[6] actualCapacity:vector ETV
attr "" ""
attr source computeActualCapacity
vector 22 Aerocom.aircraft[0].dataLink[7] actualCapacity:vector ETV
attr "" ""
attr source computeActualCapacity
vector 23 Aerocom.aircraft[0].dataLink[8] actualCapacity:vector ETV
attr "" ""
attr source computeActualCapacity
vector 24 Aerocom.aircraft[0].dataLink[9] actualCapacity:vector ETV
attr "" ""
attr source computeActualCapacity
0	1393	10.000759202124	0.007840501792
0	1403	10.078248819655	0.00786163522
0	1409	10.093907150891	0.007866052365
0	1415	10.127105453761	0.007875787579
0	1425	10.236109014296	0.007906031172
0	1431	10.266492063662	0.007914970602
0	1439	10.301485872775	0.007924827352
0	1445	10.313783580174	0.007928417714
0	1452	10.356254642565	0.007940108893
0	1457	10.366011166224	0.007943713118
0	1465	10.386975989753	0.007949125596
0	1468	10.394927824355	0.012077224335
0	1474	10.437849221439	0.007963594994
0	1484	10.54918004823	0.007830853563
0	1487	10.557000403498	0.009224450243
0	1496	10.606633274076	0.007750221435
0	1501	10.614373212156	0.013505377137
0	1504	10.622102040686	0.013498945647
0	1535	11.146578064008	0.007206836199
0	1540	11.17329438247	0.007190549563
0	1547	11.188879962823	0.007180960197
0	1550	11.19605650578	0.011839715135
0	1555	11.206253569722	0.007169927276
0	1560	11.217993437206	0.007163323782
0	1565	11.234175708933	0.007153075823
0	1572	11.299733704119	0.007113098262
0	1577	11.314225380385	0.007104435197
0	1584	11.366927242306	0.007154538021
0	1591	11.481100669328	0.007317583107
0	1597	11.513746585301	0.007365319865
0	1603	11.604047522605	0.007501071582
0	1608	11.620136569856	0.007526072465
0	1613	11.628058448863	0.007538229593
0	1620	11.680951049077	0.007621121394
0	1636	11.950959271148	0.008072886634
0	1645	12.106748764424	0.00717066175
0	1653	12.128746021972	0.007186120522
0	1658	12.157360044888	0.007207578254
0	1667	12.19699669649	0.007236638065
0	1670	12.20423857524	0.010842857583
0	1678	12.234505682886	0.007264425073
0	1685	12.241775388982	0.011560881158
0	1688	12.249050383786	0.011892401844
0	1692	12.256330674998	0.014847335229
0	1699	12.347157161495	0.007349081365
0	1709	12.507861034218	0.007473841555
0	1714	12.520191096904	0.007483429549
0	1720	12.55912196754	0.007505092742
0	1726	12.646052507442	0.007477833565
0	1731	12.736865371741	0.007448393275
0	1740	13.055128521165	0.007349081365
0	1745	13.064443935685	0.007345996432
0	1756	13.301569204333	0.007274238803
0	1761	13.316643247506	0.007269706096
0	1766	13.325219385196	0.007266687429
0	1772	13.3840812002	0.007249378625
0	1777	13.415878234941	0.007239631813
0	1785	13.528806769559	0.007206094297
0	1792	13.590241095236	0.007187596262
0	1797	13.61106315319	0.007181696932
0	1804	13.631833484612	0.007175807278
0	1807	13.63900708576	0.011006444184
0	1813	13.694817990332	0.007157464213
0	1822	13.794821008396	0.00736144705
0	1828	13.864041620274	0.007584787084
0	1833	13.881285582004	0.007642755759
0	1840	13.966497956281	0.007932011331
0	1846	14.033671319325	0.007543103448
0	1854	14.127373432015	0.007142857143
0	1861	14.136007879969	0.007176542957
0	1864	14.143213232517	0.010127359326
0	1871	14.199890159316	0.007438104346
0	1876	14.218355663823	0.007517989475
0	1884	14.310618214374	0.007705856451
0	1890	14.351791337966	0.007717750827
0	1897	14.416752137484	0.007736516357
0	1906	14.542989211652	0.007774322523
0	1913	14.565240804642	0.007781236105
0	1916	14.573023771064	0.010579741473
0	1922	14.635103465352	0.007802050825
0	1930	14.661146595288	0.007809885083
0	1933	14.668958223454	0.008111340161
0	1938	14.707329588176	0.007822977202
0	1943	14.72616641291	0.00782910189
0	1950	14.778612386536	0.007844895215
0	1955	14.805820709971	0.007852815795
0	1960	14.824377285541	0.007858987313
0	1966	14.929273992369	0.007890880397
0	1971	15.021356486634	0.007919447901
0	1976	15.029704723073	0.00792124024
0	1981	15.064040455982	0.007932011331
0	1989	15.170682213262	0.008508569345
0	1995	15.231452570277	0.008453085376
0	2003	15.31159435362	0.008381226054
0	2009	15.368341970483	0.008331349679
0	2017	15.546300244617	0.008178525529
0	2022	15.595088424415	0.008137642409
0	2027	15.617988407999	0.008117824423
0	2040	15.923989451506	0.007871359496
0	2045	15.935447480531	0.007862518252
0	2050	15.944137093111	0.007855459544
0	2055	15.957885905856	0.007844895215
0	2088	16.507343684431	0.471689789848
0	2091	16.514690451853	0.391063383738
0	2096	16.522040304856	0.380400720951
0	2099	16.529393246032	0.219806307565
0	2102	16.536750051077	0.221565015035
0	2106	16.544109950141	0.16892421451
0	2109	16.551472945828	0.159422292324
0	2112	16.558839815961	0.133852160894
0	2116	16.566209788587	0.078703048013
0	2119	16.57358286632	0.06915894288
0	2122	16.580959829119	0.062916832854
0	2127	16.615129992394	0.007392544091
0	2133	16.674968508739	0.00741997032
0	2143	16.777872424345	0.007467463196
0	2147	16.785343075359	0.013645146078
0	2151	16.792817714975	0.016286993979
0	2157	16.915965357191	0.007532551383
0	2162	16.928135125782	0.007538229593
0	2167	16.950700962715	0.007548797584
0	2173	17.039862867298	0.007592190889
0	2181	17.120387997117	0.007631091246
0	2187	17.214727831778	0.007677122176
0	2193	17.278328136865	0.007708402158
0	2198	17.297228985098	0.007717750827
0	2203	17.34337885445	0.007740793984
0	2209	17.359763665211	0.007749363445
0	2214	17.372933734902	0.007756232687
0	2219	17.401124999923	0.00777000777
0	2224	17.430451973409	0.007784697509
0	2230	17.469238249161	0.007804660497
0	2237	17.520775919428	0.007830853563
0	2240	17.528611155604	0.010643747405
0	2247	17.602091695386	0.007873130132
0	2255	17.692812217622	0.007920343969
0	2262	17.771789944784	0.007961783439
0	2268	17.810068220831	0.007982666211
0	2273	17.834057740988	0.007995431182
0	2281	17.908659905822	0.008022003209
0	2286	17.93486900721	0.008025682183
0	2293	17.947993418784	0.008027522936
0	2296	17.956021862413	0.010472547892
0	2304	18.121642971826	0.008052455999
0	2309	18.150549565436	0.008057090239
0	2314	18.22008038242	0.008067304368
0	2321	18.316380835478	0.008081274532
0	2327	18.33739434182	0.008084074373
0	2334	18.51180507686	0.008109360519
0	2344	18.660009357107	0.007978117164
0	2349	18.723594749807	0.007888212756
0	2355	18.783795207442	0.007804660497
0	2360	18.810148208088	0.007768283209
0	2368	18.901830742408	0.00764609503
0	2377	18.909466828369	0.00778889073
0	2380	18.91709293143	0.013086753052
0	2385	18.92470907766	0.019585720111
0	2388	18.932315293025	0.024329462146
0	2391	18.939911603389	0.019350143856
0	2397	18.99596797684	0.007523645744
0	2403	19.018001339226	0.007496251874
0	2408	19.036147748641	0.007473043664
0	2417	19.112390281852	0.007378517972
0	2422	19.148710060467	0.007333682556
0	2429	19.178557505019	0.007343684431
0	2434	19.187086471639	0.007376962799
0	2440	19.219617574011	0.007505897491
0	2453	19.410814672089	0.007975390224
0	2458	19.447070881085	0.007918552036
0	2464	19.481949837375	0.007864284912
0	2469	19.504895958699	0.00782910189
0	2476	19.593067448323	0.007695690413
0	2484	19.608265047883	0.007673755755
0	2487	19.61592704438	0.011489659217
0	2492	19.693171745383	0.00755042606
0	2497	19.725717755418	0.007504288165
0	2507	19.841106580269	0.007376962799
0	2510	19.848481211537	0.011536427754
0	2515	19.866711526123	0.007367645511
0	2524	19.974484615648	0.007328308208
0	2562	20.507329842932	0.432437398948
0	2565	20.514675068535	0.410270223907
0	2571	20.522036515585	0.399358332989
0	2576	20.529413478384	0.403184661589
0	2579	20.536806803268	0.393895912639
0	2582	20.54421656298	0.397326649752
0	2588	20.551642042984	0.392782490889
0	2591	20.559084101245	0.361529170138
0	2595	20.566542811954	0.341728543021
0	2598	20.574018249801	0.345275278008
0	2602	20.581510489981	0.346044009973
0	2607	20.589019608196	0.343400031268
0	2610	20.596545680661	0.103376908378
0	2613	20.604088784109	0.082253293799
0	2616	20.611648995795	0.061396568871
0	2619	20.6192263935	0.034537834166
0	2625	20.64026221737	0.007626103061
0	2631	20.684135808866	0.00772882853
0	2642	20.877943868314	0.008190966534
0	2648	20.926590879876	0.008391273076
0	2655	20.944023197839	0.008462282398
0	2661	20.967325141543	0.008438818565
0	2668	20.997581116205	0.008409418549
0	2675	21.045748137612	0.008363201912
0	2680	21.071109496645	0.008338296605
0	2685	21.079655487267	0.008330358205
0	2691	21.157279384226	0.008256664308
0	2696	21.17337906232	0.008242081714
0	2703	21.221380964354	0.008198641368
0	2709	21.301463946103	0.00812913715
0	2715	21.346191775156	0.008090614887
0	2722	21.354493235822	0.008084074373
0	2726	21.362570780248	0.009506658778
0	2733	21.37376796023	0.008067304368
0	2738	21.381828761704	0.014557225791
0	2743	21.389883070759	0.008693374544
0	2748	21.402437582971	0.008043203493
0	2758	21.435059842426	0.008016491067
0	2761	21.443069912228	0.015384683816
0	2769	21.451072656026	0.023350137701
0	2772	21.459069000554	0.015292296873
0	2775	21.467058956039	0.021743240042
0	2782	21.595492218031	0.007884658707
0	2787	21.626420289497	0.007859869751
0	2792	21.642609208745	0.007847533632
0	2799	21.651470112999	0.007840501792
0	2802	21.659303595542	0.011733283434
0	2808	21.712255873829	0.007791629564
0	2813	21.728278273762	0.007779506557
0	2819	21.807503706765	0.007717750827
0	2827	22.02080889586	0.007493844342
0	2833	22.063897389272	0.007425480004
0	2838	22.091317433118	0.007382408775
0	2846	22.150561111636	0.007292426294
0	2851	22.215959148813	0.007194244604
0	2856	22.240716504144	0.007158196135
0	2864	22.288397841495	0.007089325501
0	2869	22.295477129521	0.011798506337
0	2873	22.302546408455	0.008900075934
0	2881	22.330566480586	0.00798084597
0	2887	22.398696792429	0.008015573113
0	2892	22.421968850898	0.008028443629
0	2898	22.444725294489	0.008040431886
0	2903	22.490190716703	0.008064516129
0	2913	22.56520577657	0.008103727715
0	2916	22.573314197745	0.009006032438
0	2922	22.651287951247	0.00814995925
0	2927	22.66421549461	0.008157557394
0	2932	22.71453977213	0.008184262832
0	2939	22.798897162103	0.008230452675
0	2944	22.870426598898	0.008270321361
0	2949	22.885783779747	0.008279124778
0	2955	22.936625132204	0.008307619274
0	2960	22.963048728495	0.008322434907
0	2966	23.016308473107	0.008352225271
0	2974	23.153591197922	0.008213070515
0	2979	23.161790799656	0.01638872574
0	2982	23.169977934159	0.008458563727
0	2989	23.207552700607	0.008126306013
0	2992	23.215666761115	0.008390716508
0	2997	23.225208615025	0.008099039685
0	3002	23.285650615876	0.008004574042
0	3008	23.359046532148	0.008104665972
0	3016	23.401209847678	0.008409418549
0	3020	23.409683398096	0.015615782011
0	3030	23.449828402139	0.008475602373
0	3033	23.458301952557	0.0135421758
0	3038	23.466773452012	0.019866689849
0	3041	23.475242901498	0.008590292125
0	3047	23.502116191583	0.008462282398
0	3056	23.545949032642	0.008450024143
0	3059	23.554397017194	0.016684230302
0	3064	23.56284296314	0.019830045007
0	3067	23.571286871463	0.014120286715
0	3073	23.600452416647	0.008435767655
0	3079	23.661654513573	0.008419533317
0	3093	23.742354877068	0.008398320336
0	3096	23.750751182694	0.013618835395
0	3101	23.759145474576	0.018364709148
0	3104	23.767537753679	0.009300847816
0	3112	23.857892663745	0.008368200837
0	3142	24.508571078731	0.437432175659
0	3145	24.517142157462	0.387399542265
0	3148	24.525713236193	0.218563006828
0	3151	24.534284314924	0.220505630838
0	3154	24.542854344307	0.196201483558
0	3159	24.55142437369	0.166636473733
0	3162	24.559994403073	0.108674231186
0	3165	24.568564432456	0.024205828624
0	3170	24.603000379773	0.008568980291
0	3177	24.651030356051	0.008567931457
0	3182	24.682368548886	0.008566882878
0	3194	24.942693968761	0.008559550012
0	3201	25.039959595512	0.008556411197
0	3208	25.060295568669	0.008555365436
0	3213	25.069763979878	0.008555365436
0	3220	25.16274527442	0.008553274682
0	3225	25.250880897834	0.008550140467
0	3232	25.276948033337	0.008550140467
0	3236	25.285497129575	0.014950233125
0	3243	25.376206104361	0.008547008547
0	3250	25.47705587573	0.008543878921
0	3258	25.556615524547	0.008541793777
0	3268	25.612964544131	0.008540751586
0	3271	25.621504253781	0.011492441507
0	3276	25.648073300368	0.00853970965
0	3281	25.710901069891	0.00853762654
0	3286	25.766570603333	0.008535544446
0	3293	25.855128154416	0.008533463367
0	3298	25.885970553427	0.008532423208
0	3303	25.936331353549	0.008531383303
0	3309	26.012036393499	0.008529304252
0	3316	26.0328363204	0.008528265107
0	3321	26.041364585507	0.011035976083
0	3325	26.049892850614	0.0089489113
0	3331	26.083873747837	0.007449978714
0	3336	26.125764302775	0.0075610283
0	3344	26.228639818972	0.007849293564
0	3347	26.236512063686	0.014351340449
0	3355	26.361645044286	0.00825569053
0	3361	26.369927107703	0.013816263522
0	3364	26.378235713044	0.009680236566
0	3371	26.461859682589	0.008590011044
0	3376	26.476423536324	0.00864090853
0	3382	26.562942669029	0.008513743615
0	3390	26.679813069731	0.008207292766
0	3393	26.687999246786	0.015228862711
0	3398	26.702116801578	0.008150908244
0	3405	26.71243945082	0.008125362739
0	3408	26.720544116792	0.013302334944
0	3413	26.771317129444	0.007981755986
0	3419	26.833913158702	0.007834359261
0	3431	26.953141294492	0.007569204152
0	3436	26.97984195825	0.007512341704
0	3442	27.042634681111	0.007380851961
0	3447	27.108964183257	0.007247877407
0	3454	27.18680042867	0.007278777165
0	3461	27.21924218165	0.007303077726
0	3464	27.226550596768	0.009974037652
0	3472	27.258622651499	0.007332146224
0	3477	27.286883520077	0.007353713625
0	3483	27.313930279824	0.007373854419
0	3490	27.436916760497	0.007468259895
0	3495	27.45408900483	0.007481829842
0	3500	27.526374267575	0.007538229593
0	3509	27.641953089785	0.007631091246
0	3514	27.653473149551	0.00764025322
0	3520	27.708768215281	0.007685551164
0	3525	27.721963412433	0.007696536559
0	3532	27.799783412052	0.007761392616
0	3541	27.913245359286	0.007858105074
0	3562	28.507799442897	0.489369040338
0	3565	28.515601493722	0.429216977669
0	3568	28.523406154219	0.422624936958
0	3571	28.531213426135	0.403348822122
0	3576	28.539023311218	0.284984268531
0	3579	28.546834939384	0.10846461016
0	3582	28.554649183635	0.017034059102
0	3589	28.726239085003	0.007869589657
0	3596	28.761520222026	0.007881107859
0	3599	28.769403992721	0.01284632559
0	3604	28.806409051465	0.007896221094
0	3613	28.845234085304	0.00790871088
0	3616	28.853145477709	0.009715550123
0	3622	28.950854270902	0.007943713118
0	3630	29.022676351295	0.007967220578
0	3636	29.067574319426	0.007982666211
0	3641	29.077088186147	0.007985398129
0	3650	29.190808831948	0.008023842274
0	3657	29.228982621961	0.00803673938
0	3667	29.268735513778	0.008049678013
0	3670	29.276787969777	0.009343365442
0	3679	29.367863087123	0.008084074373
0	3682	29.375949963278	0.012385336633
0	3688	29.421781711215	0.008102789675
0	3695	29.468753582746	0.008118765948
0	3702	29.547097688154	0.008146165484
0	3710	29.580894401136	0.008157557394
0	3713	29.589054811488	0.014093924706
0	3719	29.63930572967	0.008177570093
0	3725	29.655220828623	0.008183306056
0	3733	29.733484844999	0.008211143695
0	3741	29.783058610985	0.008228517691
0	3751	29.985948103845	0.00830170778
0	3761	30.03139298909	0.008317490494
0	3765	30.039713445526	0.012246597266
0	3774	30.238547840263	0.007924827352
0	3781	30.288331424019	0.007831729693
0	3786	30.336218926824	0.007744219493
0	3794	30.379157926695	0.007667031763
0	3799	30.421413813597	0.007592190889
0	3805	30.473907231577	0.007502679528
0	3812	30.535689602106	0.007398795053
0	3818	30.574798490072	0.007334450964
0	3823	30.594158055761	0.007303077726
0	3829	30.634843871326	0.007238134629
0	3835	30.66166061257	0.007196463452
0	3843	30.763176985192	0.007254637786
0	3848	30.805531339464	0.007282563462
0	3853	30.835626151853	0.007302315877
0	3858	30.845494650045	0.00730917824
0	3864	30.883803190645	0.007334450964
0	3870	30.943918354103	0.007375408282
0	3877	31.002673027315	0.007415254237
0	3886	31.032570716105	0.007435734013
0	3889	31.040011983246	0.010189206995
0	3894	31.063867983104	0.007457121551
0	3899	31.092163015636	0.007477034822
0	3911	31.262438398703	0.007597134795
0	3916	31.270041309532	0.009813310917
0	3921	31.277650005184	0.014646001828
0	3925	31.285263666267	0.014845688374
0	3936	31.342159575392	0.007655293088
0	3939	31.349820733321	0.015210059868
0	3944	31.391748632713	0.007691462477
0	3949	31.40352548067	0.007700770077
0	3954	31.429806438571	0.007719453022
0	3959	31.442023785657	0.00772882853
0	3965	31.451022822825	0.007735661399
0	3970	31.487359056825	0.007763114118
0	3975	31.509989573499	0.007779506557
0	3982	31.552244418883	0.007811628166
0	3987	31.567111596272	0.007822977202
0	3993	31.654031145915	0.007889990983
0	3999	31.700808811643	0.007926622127
0	4004	31.734180757391	0.007952738014
0	4010	31.890510166821	0.008077544426
0	4019	32.001630938956	0.008168981211
0	4055	32.509047764555	0.408547976248
0	4058	32.516519212949	0.390888059394
0	4061	32.524046904099	0.349306456086
0	4066	32.531631691183	0.288642785816
0	4069	32.539275281487	0.240782572686
0	4072	32.546979441734	0.208254043947
0	4075	32.554745139537	0.102290285694
0	4081	32.562574241427	0.06123433557
0	4084	32.570467791269	0.011879352958
0	4090	32.582343524474	0.007992692396
0	4095	32.616414092239	0.008291873964
0	4103	32.755078543092	0.008250825083
0	4110	32.824271708086	0.008165169719
0	4116	32.897592876226	0.008077544426
0	4123	32.911286382105	0.008060801474
0	4128	32.919337911896	0.00824483155
0	4131	32.927380191308	0.015791824743
0	4138	32.958142198195	0.008005489478
0	4141	32.966138542723	0.011665509992
0	4157	33.235637843426	0.007693998681
0	4166	33.270778487625	0.007656130373
0	4169	33.278426253385	0.012788873653
0	4174	33.307202737004	0.007617803896
0	4180	33.325219288017	0.007598784195
0	4186	33.376058739778	0.00754554274
0	4197	33.443534271911	0.007510729614
0	4209	33.486353794664	0.007557762902
0	4212	33.493920544205	0.013116659564
0	4215	33.501495481982	0.016808387883
0	4221	33.560982346102	0.007641921397
0	4226	33.586242419627	0.007671232877
0	4231	33.628889409043	0.007720304401
0	4236	33.653328664286	0.007749363445
0	4241	33.719190185801	0.007827351001
0	4247	33.739888048761	0.007851934941
0	4254	33.779954772513	0.007900677201
0	4260	33.817423350037	0.007946418436
0	4271	33.957726639577	0.008073817762
0	4278	33.995792426421	0.008081274532
0	4284	34.017059276728	0.008085008085
0	4289	34.055741827923	0.008092485549
0	4297	34.098471184489	0.008100914246
0	4308	34.161780686169	0.008113120074
0	4311	34.169895687328	0.013622387992
0	4316	34.19073754853	0.008118765948
0	4322	34.231054305315	0.008127249507
0	4330	34.276977265739	0.008135750814
0	4339	34.304166997318	0.008141428239
0	4342	34.312310319794	0.014469279031
0	4354	34.509961233849	0.007914970602
0	4360	34.536556767905	0.00782122905
0	4374	34.681657047126	0.007345225603
0	4387	34.804282981661	0.00702106319
0	4392	34.81172771493	0.007024586051
0	4400	34.922794648591	0.007076425394
0	4403	34.929874652637	0.012031110931
0	4413	35.021707968661	0.007123956849
0	4416	35.02883555241	0.007821501067
0	4422	35.048043518134	0.007137030995
0	4429	35.058754521524	0.007142128354
0	4433	35.065900295309	0.009778337985
0	4438	35.128059788999	0.007175807278
0	4443	35.149049262217	0.007186120522
0	4451	35.188329200599	0.007205352548
0	4454	35.188862399674	0.007434778589
0	4461	35.226930174879	0.00722468779
0	4464	35.234158592888	0.011837603617
0	4469	35.260793291072	0.007241129616
0	4480	35.416422881906	0.007319878699
0	4485	35.423746589795	0.014307750283
0	4491	35.492938725424	0.007359125315
0	4496	35.517868968614	0.007371524853
0	4504	35.556688561058	0.007391763464
0	4527	35.899271675876	0.007574118156
0	4543	36.203806348566	0.00754391637
0	4549	36.289849005975	0.007765697803
0	4556	36.399648591895	0.007756232687
0	4564	36.442170548274	0.007745933385
0	4569	36.449914767767	0.011169101195
0	4572	36.457657274127	0.007975007352
0	4577	36.469887618683	0.007739082366
0	4588	36.596438471004	0.007709251101
0	4594	36.691643995593	0.007686395081
0	4600	36.719232413918	0.00767964893
0	4608	36.826949554193	0.007653619068
0	4613	36.875221950673	0.007635253054
0	4618	36.90801699588	0.00762195122
0	4625	36.919364633023	0.007617803896
0	4630	36.932246699135	0.007612833061
0	4635	36.952118993753	0.007605388961
0	4640	37.025087945031	0.007577397705
0	4647	37.046232201502	0.007569204152
0	4650	37.053798133192	0.011998067224
0	4655	37.074464483928	0.007558578987
0	4662	37.083722795334	0.007554500324
0	4665	37.091274850572	0.013982418469
0	4670	37.102878021309	0.007547169811
0	4677	37.15684928005	0.00752688172
0	4682	37.164373734527	0.013159131531
0	4686	37.171894955114	0.011364474558
0	4697	37.488270465184	0.007479431563
0	4702	37.53449285797	0.007473043664
0	4707	37.584969507052	0.007466666667
0	4712	37.633287154915	0.007460300544
0	4718	37.660983275013	0.007456327226
0	4725	37.720826778973	0.00744918591
0	4731	37.748628374749	0.00744522442
0	4736	37.765886699376	0.007442849548
0	4741	37.802944709181	0.007438104346
0	4746	37.82021015691	0.007435734013
0	4752	37.887554616472	0.007427843803
0	4759	37.957978196755	0.007418397626
0	4768	38.045777501881	0.007515567962
0	4773	38.070394065968	0.007562662057
0	4778	38.099761277674	0.007620291748
0	4784	38.108048959504	0.007636919049
0	4790	38.141711322695	0.007704160247
0	4800	38.259511931017	0.007671232877
0	4809	38.276385449116	0.007562662057
0	4812	38.283901017078	0.014419772831
0	4815	38.291370073843	0.020487493977
0	4825	38.386879429372	0.007206094297
0	4828	38.394091463166	0.008983998264
0	4833	38.409615103809	0.007223942208
0	4838	38.440531194105	0.007247877407
0	4844	38.464599946287	0.00726744186
0	4850	38.488306593297	0.007285595337
0	4857	38.680228074734	0.007442058261
0	4862	38.728396670877	0.007481829842
0	4867	38.75711573155	0.007505897491
0	4874	38.867036995562	0.007599609163
0	4880	38.930010119554	0.007654455987
0	4886	38.990744622286	0.007708402158
0	4893	39.017352439451	0.007732243455
0	4896	39.025091521817	0.013221653312
0	4901	39.142116891076	0.00784577449
0	4907	39.150604037887	0.007852815795
0	4916	39.214220894011	0.007912286651
0	4919	39.222140341912	0.009349227521
0	4924	39.253503125386	0.007949125596
0	4931	39.315812344008	0.008009153318
0	4935	39.323828835075	0.01162659836
0	4940	39.343743204465	0.008035816783
0	4945	39.366364465351	0.008058017728
0	4952	39.407889764744	0.00809810273
0	4958	39.441649430972	0.008131025671
0	4966	39.574803114752	0.007875787579
0	4971	39.591452452622	0.007830853563
0	4977	39.663339453054	0.00764442503
0	4986	39.701491078934	0.007548797584
0	4991	39.73325768362	0.007470651014
0	4998	39.744993128474	0.007442058261
0	5001	39.75241782088	0.012610855822
0	5006	39.781256504475	0.007356031946
0	5011	39.817088613117	0.007272727273
0	5016	39.854543585351	0.00718833436
0	5022	39.909280623547	0.007067137809
0	5032	39.965226827908	0.007068565081
0	5035	39.972296820838	0.009489956517
0	5067	40.507209805335	0.47600656886
0	5070	40.514421839129	0.468452690802
0	5076	40.521635359327	0.410204406315
0	5080	40.528851110281	0.409038827061
0	5083	40.536068349172	0.388663623246
0	5088	40.543287821119	0.35646583468
0	5091	40.550508782538	0.333250875775
0	5095	40.557731979319	0.18259542403
0	5098	40.564957412845	0.086442401814
0	5101	40.572184338304	0.053617006552
0	5104	40.579413502819	0.038313533758
0	5112	40.610798287141	0.00723738627
0	5118	40.6777930946	0.007255389718
0	5126	40.74928154028	0.007274994804
0	5136	41.005733562074	0.00736377025
0	5141	41.024780345193	0.007370748657
0	5150	41.154214558946	0.00741918389
0	5153	41.161636102627	0.01101375333
0	5159	41.197898747136	0.007435734013
0	5164	41.235551065161	0.007449978714
0	5171	41.253757599376	0.007456327226
0	5174	41.261217104917	0.007766021064
0	5182	41.309613343204	0.007477833565
0	5185	41.317094373449	0.010265717038
0	5191	41.371978940682	0.007501875469
0	5196	41.381698025283	0.007505092742
0	5202	41.419141542186	0.007519604684
0	5207	41.464553390838	0.007537417896
0	5212	41.485449279342	0.00754554274
0	5218	41.525859466431	0.0075610283
0	5225	41.556259361334	0.007573298713
0	5232	41.612632675671	0.007595486111
0	5235	41.620230635076	0.010926947433
0	5240	41.676944502309	0.007620291748
0	5246	41.694166868826	0.007627765065
0	5254	41.766109826245	0.007841380083
0	5257	41.7741641353	0.008069035814
0	5263	41.788865491854	0.008473550418
0	5269	41.843821899089	0.008527226215
0	5274	41.873426848963	0.008544921875
0	5286	42.032759445838	0.007881995271
0	5291	42.040617550912	0.010621574363
0	5294	42.048451910173	0.009902596196
0	5307	42.174832409517	0.007519604684
0	5310	42.182349591648	0.013601683663
0	5313	42.18986515961	0.019086871944
0	5318	42.245895522702	0.007501875469
0	5325	42.355652920949	0.007473841555
0	5330	42.377508658272	0.007469056765
0	5336	42.385921280321	0.007466666667
0	5344	42.421170104679	0.007457916045
0	5349	42.428626431905	0.00995205305
0	5353	42.436081170989	0.01425724253
0	5360	42.578272513664	0.00741918389
0	5365	42.58805660423	0.007416825599
0	5370	42.603736340213	0.007413683542
0	5376	42.663176694216	0.007398795053
0	5381	42.682015955194	0.007394105841
0	5387	42.728475180912	0.007383187427
0	5392	42.748233398751	0.007378517972
0	5398	42.84421634195	0.00735525901
0	5405	42.863698730012	0.007350624803
0	5410	43.028397774795	0.007311468561
0	5421	43.18876313653	0.007273482959
0	5427	43.211042143575	0.007268196449
0	5434	43.251674709741	0.007259151716
0	5439	43.300075346161	0.007247877407
0	5444	43.322338332833	0.007242628039
0	5449	43.352011997099	0.007235142119
0	5454	43.359795424159	0.007233646791
0	5461	43.395014140905	0.007232152082
0	5467	43.443090403091	0.007290907197
0	5472	43.467959734447	0.007322175732
0	5478	43.507482676882	0.007371524853
0	5485	43.69720728149	0.007618633
0	5491	43.732048472748	0.007666192093
0	5496	43.780976399272	0.007733952049
0	5506	43.935312946537	0.007953641632
0	5509	43.943278353911	0.008268166344
0	5516	44.005722683549	0.008058945429
0	5551	44.513660091418	0.45617487929
0	5554	44.521582228131	0.454743729958
0	5557	44.529489152337	0.293938089334
0	5561	44.537380922348	0.247707801967
0	5564	44.545258482555	0.142967285153
0	5567	44.553121000807	0.107601846194
0	5570	44.560968534439	0.074626647851
0	5573	44.568801140459	0.06573098923
0	5576	44.576618875549	0.07280751828
0	5584	44.604082860939	0.007776049767
0	5591	44.686397950379	0.008213070515
0	5598	44.716447561372	0.008493084203
0	5605	44.85067037952	0.008405379443
0	5617	44.951096791825	0.00834028357
0	5623	45.017253881136	0.008297771456
0	5632	45.05021718939	0.008277166844
0	5641	45.078213809022	0.008259587021
0	5646	45.087139665939	0.008253743662
0	5653	45.111094761365	0.008239171375
0	5658	45.128675260067	0.008228517691
0	5664	45.196880068097	0.008186177055
0	5674	45.247345368766	0.008154706431
0	5677	45.255495328016	0.01059855429
0	5682	45.265577182243	0.008144269924
0	5691	45.34184502496	0.007626933973
0	5698	45.420030583253	0.007203869507
0	5708	45.454650332774	0.007285595337
0	5713	45.4619534105	0.007883105414
0	5716	45.469274054717	0.011568816052
0	5722	45.515052180281	0.007432575918
0	5734	45.601859586181	0.007646930304
0	5741	45.659197763653	0.007758811793
0	5746	45.684102935347	0.007809013833
0	5754	45.736204339938	0.007914970602
0	5759	45.744136351269	0.010201706689
0	5765	45.752084574273	0.013045119697
0	5769	45.760049075354	0.011463794603
0	5777	45.775248119895	0.007997258083
0	5787	45.873564459294	0.008210180624
0	5793	45.881792976985	0.013325729945
0	5796	45.890039913837	0.012090745953
0	5806	45.984373616897	0.008463305525
0	5815	46.061058543191	0.008466376391
0	5821	46.115549224308	0.008316502317
0	5832	46.196848107964	0.008103727715
0	5835	46.204931248842	0.014523064062
0	5838	46.212993907216	0.018061134356
0	5848	46.341904971668	0.007748505645
0	5854	46.370419342923	0.007682177349
0	5862	46.388052786885	0.007653619068
0	5869	46.465459577157	0.007699923001
0	5884	46.678673165704	0.007828226348
0	5894	46.712367429643	0.007849293564
0	5898	46.72022112649	0.012755718041
0	5905	46.81588026651	0.007913181099
0	5911	46.861959181093	0.007941910597
0	5917	46.885853844225	0.007957258156
0	5923	46.915925446246	0.007976298997
0	5928	46.965442733978	0.008008237044
0	5936	47.037645059515	0.008055235903
0	5941	47.049661897919	0.008062658374
0	5948	47.144111989417	0.008085942012
0	5959	47.236454005227	0.008088745089
0	5964	47.252139757572	0.00808967988
0	5975	47.343571188595	0.008092485549
0	5987	47.505611774062	0.008097165992
0	5995	47.547330102603	0.008099039685
0	6004	47.630030744968	0.008100914246
0	6011	47.649542415775	0.008101851852
0	6016	47.663799814336	0.008101851852
0	6021	47.685153184652	0.008102789675
0	6030	47.805278060498	0.008106543138
0	6038	47.850433257985	0.008107482048
0	6046	47.886834465152	0.008109360519
0	6049	47.894943825671	0.009346966547
0	6054	47.930465710879	0.008110300081
0	6060	47.966182416844	0.008111239861
0	6070	48.031561494486	0.007137758744
0	6076	48.049071793141	0.00713994288
0	6084	48.156079851364	0.007153806847
0	6090	48.176983390387	0.007161857991
0	6097	48.228762291989	0.007184645386
0	6104	48.24818894453	0.007192766132
0	6107	48.255385407982	0.008983415952
0	6115	48.343587573416	0.007235142119
0	6124	48.406604700176	0.007263671267
0	6129	48.416258169561	0.007268196449
0	6135	48.446705677083	0.007281805888
0	6140	48.460200416288	0.007287870901
0	6146	48.485495400652	0.007299270073
0	6151	48.494483954376	0.007303077726
0	6159	48.514058949347	0.00731223232
0	6163	48.521374238301	0.013866723885
0	6168	48.547048029568	0.007326774126
0	6174	48.574782964318	0.007339834329
0	6180	48.67570283606	0.007386303683
0	6187	48.768624089464	0.007429420505
0	6195	48.910949640041	0.007522028799
0	6204	49.02787557054	0.007924827352
0	6209	49.044530032628	0.007986309184
0	6215	49.078064587036	0.008111239861
0	6223	49.171242636616	0.008132915069
0	6230	49.198111803141	0.007646930304
0	6235	49.232047100464	0.007669551879
0	6244	49.333425973003	0.007737371504
0	6249	49.34910261019	0.007748505645
0	6254	49.38671881858	0.007773459189
0	6259	49.401411861645	0.007783831869
0	6266	49.441216297811	0.007810756528
0	6273	49.492921728853	0.007846653963
0	6278	49.545351750955	0.007883770695
0	6286	49.571359136745	0.007901569026
0	6289	49.579266060951	0.011660455736
0	6296	49.665267473567	0.00796812749
0	6303	49.756497552297	0.008033972225
0	6310	49.785104059966	0.008055235903
0	6313	49.79316486144	0.010527931637
0	6320	49.881472279515	0.008126306013
0	6326	49.919499393724	0.008154706431
0	6332	49.958550242938	0.008184262832
0	6340	50.088812626903	0.00825569053
0	6347	50.198517379509	0.00782122905
0	6353	50.238153491922	0.007675438596
0	6359	50.312546583455	0.007416039835
0	6364	50.333419853876	0.007345996432
0	6369	50.349548281076	0.00729318608
0	6376	50.414253322252	0.007151614221
0	6381	50.422545340845	0.007164056903
0	6387	50.538364088432	0.007343684431
0	6393	50.629815089165	0.00749224018
0	6398	50.677781620379	0.007572479446
0	6406	50.745127965792	0.007688083471
0	6411	50.752829583132	0.012514275077
0	6414	50.760544782074	0.014780255574
0	6420	50.859134787356	0.007851054284
0	6427	50.886962379353	0.007844016136
0	6430	50.894803759436	0.014778345721
0	6435	50.944401105481	0.007828226348
0	6440	51.001082728259	0.0078125
0	6445	51.029934990071	0.007804660497
0	6451	51.145056061179	0.007773459189
0	6456	51.164017119505	0.007768283209
0	6461	51.172580384041	0.007765697803
0	6471	51.271277578408	0.007739082366
0	6477	51.308823634709	0.00772882853
0	6484	51.374381905505	0.007710949548
0	6489	51.435414049825	0.007694844454
0	6494	51.443649890479	0.007693153094
0	6499	51.453296967161	0.007690617447
0	6504	51.463354201441	0.007688083471
0	6509	51.477414945129	0.007683863886
0	6516	51.539222649566	0.007667871618
0	6519	51.546888002172	0.011888759588
0	6525	51.598087703746	0.00765194578
0	6530	51.60674352533	0.00764943722
0	6538	51.635551780343	0.007641921397
0	6541	51.643192033563	0.008994825105
0	6548	51.676194100223	0.007631923245
0	6553	51.693358888466	0.007626933973
0	6561	51.833543300663	0.00759054435
0	6567	51.902954768414	0.007572479446
0	6603	52.507151614221	0.418299582244
0	6607	52.514303228442	0.366294218787
0	6610	52.521454112087	0.319555247103
0	6613	52.528604995732	0.254805180567
0	6618	52.53575514895	0.236072457114
0	6623	52.542904571889	0.189330792845
0	6626	52.550053994828	0.130303406038
0	6629	52.557202687638	0.058401267153
0	6632	52.564351380448	0.031935437002
0	6635	52.571499343279	0.031018809158
0	6641	52.617302785601	0.007145044401
0	6646	52.657707583701	0.007142857143
0	6653	52.666230926621	0.007142128354
0	6656	52.673372326335	0.013198860024
0	6661	52.683826879637	0.007141399714
0	6668	52.7176553162	0.007139214686
0	6673	52.730510334359	0.007138486641
0	6679	52.823215827136	0.007135575943
0	6685	53.009687510629	0.007152344947
0	6690	53.04165058152	0.007155269345
0	6697	53.094127747627	0.007159660428
0	6702	53.111648662222	0.00716112532
0	6707	53.124167876609	0.007162590811
0	6712	53.140224736629	0.007164056903
0	6718	53.153982165628	0.007164790174
0	6724	53.178991044808	0.007167724759
0	6731	53.225427800056	0.007171396373
0	6737	53.348006433614	0.007182433819
0	6743	53.450814228759	0.007192027124
0	6754	53.633886084657	0.007208320461
0	6757	53.641095147479	0.008491588078
0	6763	53.708811677762	0.007215750954
0	6770	53.823796883742	0.007226179416
0	6778	54.042958718313	0.007246376812
0	6785	54.069065636965	0.007248627938
0	6794	54.140988887308	0.007347538575
0	6799	54.150084928157	0.007382408775
0	6804	54.166871443787	0.007448393275
0	6809	54.188867409569	0.007536606374
0	6817	54.217538997631	0.007654455987
0	6820	54.225226236814	0.00870309717
0	6829	54.288701460622	0.007964501081
0	6834	54.304498910107	0.00803673938
0	6841	54.36654295124	0.008300723349
0	6846	54.420290476847	0.008286965787
0	6853	54.47695637309	0.008273253753
0	6858	54.510998890768	0.00826446281
0	6864	54.544451698795	0.008256664308
0	6871	54.601986935402	0.008242081714
0	6876	54.610227076662	0.008758645484
0	6879	54.61846527838	0.011514685986
0	6888	54.775644222414	0.008199601734
0	6894	54.900869009093	0.008168981211
0	6899	54.913297119015	0.008166122259
0	6906	54.939072054024	0.008160410352
0	6913	55.133109987381	0.008113120074
0	6923	55.17943558786	0.008102789675
0	6926	55.187536502106	0.009388442165
0	6929	55.195634604836	0.017104212231
0	6937	55.383043188208	0.008065445328
0	6944	55.416582403674	0.008063587144
0	6950	55.440171026536	0.008062658374
0	6956	55.584296641563	0.008053382421
0	6961	55.667575658486	0.008048752443
0	6972	55.699004193711	0.008046901943
0	6975	55.707050170722	0.015726936693
0	6978	55.715096147733	0.016694016847
0	6984	55.735886612827	0.008045052293
0	6989	55.755082087456	0.008043203493
0	6997	55.769394768493	0.008042279412
0	7000	55.777437047905	0.008694167005
0	7005	55.836075865217	0.008038585209
0	7010	55.891601028705	0.008035816783
0	7015	55.945984926535	0.008032128514
0	7052	56.507683020525	0.473583574005
0	7055	56.515372793127	0.450286107417
0	7060	56.523069329686	0.455643064899
0	7065	56.530773489933	0.402030191604
0	7068	56.538484439481	0.408649167727
0	7073	56.546202190308	0.224933125287
0	7076	56.553926754422	0.219811110116
0	7079	56.561658143863	0.222648207851
0	7082	56.569396370704	0.218894273394
0	7085	56.577141447048	0.185285295885
0	7088	56.584893385032	0.192824048215
0	7091	56.592653056909	0.144239142522
0	7094	56.600419616323	0.131017536808
0	7097	56.608193075512	0.088641536361
0	7100	56.615973446747	0.087610091891
0	7103	56.62376074233	0.080189718128
0	7108	56.634319466551	0.007796836712
0	7113	56.738368886764	0.007892659826
0	7118	56.765850323959	0.007918552036
0	7123	56.779950848536	0.007932011331
0	7129	56.793480933446	0.007944614686
0	7135	56.886784549386	0.008044127787
0	7142	57.015466526854	0.008293838863
0	7149	57.047343594998	0.008358208955
0	7158	57.06455069294	0.008393285372
0	7161	57.072961121872	0.009082448226
0	7171	57.255434531422	0.008221752408
0	7178	57.341859968108	0.007746790615
0	7184	57.34956752151	0.00807114727
0	7187	57.357236233166	0.011669469131
0	7196	57.439614590385	0.007470651014
0	7204	57.518733933459	0.00735525901
0	7213	57.594544391229	0.007278020378
0	7218	57.640380943693	0.007298509019
0	7223	57.689618181327	0.007320644217
0	7232	57.794306280355	0.007368421053
0	7239	57.825182809099	0.007382408775
0	7245	57.906499882898	0.00741997032
0	7251	57.932075696091	0.007431786814
0	7258	57.957793330761	0.007443641004
0	7268	58.125091764766	0.007522837184
0	7271	58.132617837231	0.0077865127
0	7278	58.183275251497	0.007534172855
0	7283	58.19869506973	0.007478632479
0	7292	58.320318680627	0.007068565081
0	7296	58.327364478312	0.014048192431
0	7302	58.359506215595	0.007036590269
0	7307	58.412488709846	0.007039420756
0	7315	58.439427214252	0.007040836854
0	7318	58.446468759368	0.009612813396
0	7323	58.456045176879	0.007041545116
0	7329	58.465925071679	0.007042253521
0	7335	58.496526570056	0.007044379591
0	7341	58.510577600612	0.007045088567
0	7346	58.656027195019	0.007052896725
0	7351	58.682081041897	0.007054318251
0	7357	58.719042800448	0.007056451613
0	7362	58.777092015971	0.007060010086
0	7369	58.823611528103	0.007062146893
0	7375	58.853005080366	0.007064284993
0	7380	58.908801937224	0.007067137809
0	7386	58.943839922655	0.007069278934
0	7393	59.020246402435	0.007073565077
0	7396	59.027319967512	0.009255032176
0	7402	59.101408903343	0.007101552196
0	7407	59.122063399293	0.007118161481
0	7414	59.150812464089	0.007140671223
0	7419	59.162397654356	0.007150153218
0	7425	59.199824077328	0.007179487179
0	7432	59.267067085698	0.007234394378
0	7441	59.297017349057	0.007259151716
0	7444	59.30428177413	0.013633062758
0	7449	59.387977658261	0.007334450964
0	7458	59.43598110733	0.007378517972
0	7463	59.574271106124	0.007552870091
0	7469	59.634196190936	0.007630259429
0	7475	59.67578972732	0.007685551164
0	7481	59.710960250099	0.007732243455
0	7490	59.7227077832	0.007748505645
0	7493	59.730466594993	0.013232468881
0	7498	59.738236602763	0.016560733418
0	7501	59.746016973998	0.009884112201
0	7507	59.840998233341	0.007912286651
0	7512	59.854596054482	0.007931112622
0	7517	59.906592761006	0.008005489478
0	7522	59.922198553105	0.008028443629
0	7548	60.507643590304	0.491667531585
0	7551	60.515305586801	0.484058272431
0	7554	60.522986078352	0.330113808329
0	7557	60.530686001353	0.157741938497
0	7560	60.538404603183	0.118501205664
0	7563	60.546142830024	0.047929790079
0	7569	60.568584156793	0.007794232268
0	7577	60.679654371159	0.008085008085
0	7582	60.693993283111	0.008123476848
0	7587	60.756669904129	0.008298755187
0	7593	60.790435825031	0.008396305626
0	7598	60.811781747388	0.008459214502
0	7608	60.930634739421	0.008384237633
0	7617	61.07266271351	0.008172796264
0	7623	61.10327723171	0.008128193219
0	7631	61.136356861693	0.008081274532
0	7636	61.169983186504	0.008033050264
0	7642	61.180224431279	0.008019246191
0	7648	61.199319384033	0.007992692396
0	7653	61.264603167445	0.007902461052
0	7660	61.354600075981	0.007782101167
0	7665	61.369588551846	0.007762253271
0	7672	61.429233423952	0.007684707432
0	7679	61.515643350046	0.007574937777
0	7685	61.571962195793	0.007505092742
0	7691	61.639326873567	0.007423904974
0	7697	61.695389597496	0.007356805045
0	7706	61.712508942846	0.007337526205
0	7709	61.719863429083	0.011155418562
0	7715	61.746902657023	0.007418397626
0	7721	61.813923891698	0.007581501137
0	7728	61.876864421689	0.007741650077
0	7735	61.962412820947	0.007969941933
0	7741	62.017701586047	0.008125362739
0	7750	62.141702790581	0.008338296605
0	7757	62.179056626283	0.008303677343
0	7762	62.187353414241	0.012572352732
0	7765	62.195642342601	0.008812264232
0	7770	62.230664908744	0.008257638315
0	7777	62.250253628485	0.008239171375
0	7780	62.258486017054	0.008641560972
0	7786	62.317362203833	0.008179481187
0	7791	62.330411612585	0.008168028005
0	7798	62.360915753097	0.008141428239
0	7801	62.369049613195	0.011420706487
0	7807	62.428978734368	0.008082207597
0	7812	62.467482001535	0.008048752443
0	7817	62.525052262533	0.008
0	7823	62.636771188178	0.007906031172
0	7830	62.658729160618	0.007888212756
0	7837	62.667019507598	0.007881107859
0	7841	62.674894409162	0.010538060858
0	7846	62.707089632452	0.007848413499
0	7852	62.764138005589	0.007802050825
0	7857	62.812767522943	0.007763114118
0	7862	62.83471997434	0.007745076344
0	7869	62.984036918616	0.007628596338
0	7874	63.025621050069	0.007596310364
0	7883	63.07421425868	0.007559395248
0	7886	63.081767943799	0.008436786247
0	7892	63.127412575432	0.007519604684
0	7897	63.135298566874	0.007513148009
0	7902	63.143602205249	0.007507507508
0	7908	63.171149739006	0.007486631016
0	7913	63.195517040371	0.007469056765
0	7922	63.250814931511	0.007427843803
0	7930	63.279412879611	0.007446808511
0	7933	63.286880342807	0.008666448397
0	7939	63.314700659774	0.007544729468
0	7947	63.389375648704	0.007759671877
0	7953	63.42525174206	0.007867820614
0	7960	63.520866628542	0.008169934641
0	7965	63.54370868495	0.008245965367
0	7972	63.599732645629	0.00843780135
0	7978	63.660768813446	0.00843373494
0	7985	63.728788157248	0.007216494845
0	7991	63.807299802825	0.007299270073
0	7996	63.82093625357	0.007313760318
0	8003	63.83371422709	0.007327541087
0	8006	63.841049446623	0.009379898641
0	8011	63.85195450583	0.007347538575
0	8016	63.871935133471	0.007369196758
0	8056	64.50702106319	0.449907968
0	8059	64.514041422231	0.45022078873
0	8062	64.521060373399	0.455863852942
0	8067	64.528078620842	0.435947424753
0	8070	64.535095461259	0.404991812244
0	8073	64.542111598374	0.340417340249
0	8076	64.549126329309	0.344108739099
0	8079	64.556139654627	0.334620617221
0	8082	64.563152277348	0.335970291304
0	8088	64.570163495297	0.246138382037
0	8092	64.577174011071	0.207421983509
0	8096	64.584242576152	0.184326625197
0	8099	64.591385433295	0.180556329557
0	8105	64.598604905242	0.178944597598
0	8109	64.605904175315	0.135787124276
0	8112	64.613285027276	0.091767738433
0	8116	64.620750897583	0.05352993334
0	8120	64.628304582702	0.032224298214
0	8128	64.769899668449	0.007721155967
0	8134	64.789819956127	0.007600434311
0	8141	64.85995473531	0.007975390224
0	8146	64.896589644853	0.008286965787
0	8156	64.97242810082	0.007777777778
0	8171	65.208035635108	0.007454739084
0	8175	65.215499913206	0.01003981758
0	8184	65.282704097725	0.007551240561
0	8190	65.322234868645	0.007603736693
0	8197	65.339632939886	0.007626103061
0	8202	65.36291763683	0.007641087218
0	8212	65.494168910096	0.007725416621
0	8219	65.520273790736	0.00774250636
0	8224	65.530457850543	0.007749363445
0	8233	65.682115115687	0.007177278786
0	8240	65.708373560468	0.007211290821
0	8243	65.715594521887	0.008306995168
0	8249	65.737845763875	0.007250129467
0	8254	65.790283370344	0.007320644217
0	8261	66.00294457793	0.007618633
0	8271	66.102269468888	0.007766559414
0	8274	66.110048110959	0.015318770903
0	8277	66.117838873341	0.017184720062
0	8283	66.16087919976	0.007838745801
0	8290	66.222423457486	0.007890880397
0	8295	66.25798578971	0.007922136713
0	8301	66.270415797049	0.007932910245
0	8306	66.278899250365	0.007940108893
0	8311	66.298049054913	0.007956353717
0	8317	66.349410711623	0.008001828989
0	8322	66.441036667914	0.008083140878
0	8330	66.52358716064	0.008157557394
0	8333	66.531752330359	0.014201097159
0	8340	66.598609720356	0.008226583617
0	8348	66.678383898321	0.00830170778
0	8351	66.686693489964	0.012571106357
0	8357	66.769064961048	0.008351228824
0	8362	66.847856362126	0.007881107859
0	8367	66.869392430851	0.007762253271
0	8372	66.890504088613	0.007648601399
0	8380	66.938991894807	0.007473841555
0	8387	67.034489099594	0.00724187875
0	8392	67.06985979341	0.007182433819
0	8398	67.111079602182	0.007114544161
0	8407	67.125959614271	0.007090043553
0	8410	67.133038902297	0.010003924845
0	8418	67.206783427115	0.007360672976
0	8425	67.275342057921	0.007643590304
0	8428	67.283018338215	0.014405837106
0	8434	67.317901636694	0.007829977629
0	8440	67.356632558251	0.007964501081
0	8446	67.386674324926	0.007984487282
0	8457	67.548791628786	0.008
0	8462	67.599491394936	0.007830853563
0	8469	67.644346608003	0.007686395081
0	8474	67.673578802344	0.007595486111
0	8482	67.692804838265	0.007536606374
0	8487	67.700318792752	0.013169345649
0	8490	67.707810231108	0.009357204605
0	8500	67.827795017329	0.00741918389
0	8508	67.994811926758	0.007453151618
0	8549	68.507575757576	0.503246780301
0	8552	68.515154796121	0.468409899379
0	8555	68.522737118478	0.459612548814
0	8558	68.530322727494	0.466732450485
0	8561	68.537910803375	0.471770377177
0	8565	68.545502170906	0.469703331358
0	8569	68.553096832944	0.41411268455
0	8572	68.560694792349	0.397888138655
0	8575	68.568296051986	0.285394462043
0	8578	68.575899788679	0.26314843999
0	8583	68.583506830626	0.239671881925
0	8586	68.591117180702	0.22493762281
0	8591	68.598730841785	0.148417448609
0	8595	68.606347816758	0.028240160719
0	8599	68.613967279042	0.015924083691
0	8604	68.624345188609	0.007626933973
0	8609	68.648657839789	0.007654455987
0	8616	68.734406216134	0.007753655295
0	8624	68.751672940198	0.007774322523
0	8630	68.858970936419	0.00790335328
0	8635	68.876465027177	0.007923930269
0	8640	68.903852483039	0.007958162801
0	8648	68.945099209871	0.008009153318
0	8651	68.953118456062	0.015714911965
0	8656	68.965160362111	0.008034894399
0	8663	68.98575464268	0.008060801474
0	8666	68.9938256677	0.012728798392
0	8672	69.122199516093	0.00823723229
0	8678	69.180880225225	0.008315514374
0	8684	69.274026026431	0.008442889881
0	8689	69.292507149215	0.008469449486
0	8696	69.333635917419	0.008588957055
0	8701	69.358474589224	0.00852514919
0	8707	69.412076419588	0.008272276058
0	8712	69.422337518522	0.008225616921
0	8722	69.520542552895	0.007804660497
0	8725	69.528315148942	0.013046015521
0	8730	69.545505142144	0.007704160247
0	8739	69.598563854015	0.007656130373
0	8745	69.618056604994	0.007691462477
0	8751	69.64561996705	0.007740793984
0	8756	69.696004428121	0.007833482543
0	8764	69.830964635434	0.008093421205
0	8775	69.874807210404	0.008181393174
0	8778	69.883005851772	0.015424749447
0	8781	69.891220850012	0.019275717001
0	8787	69.967438080725	0.008374207441
0	8796	69.994998432194	0.00843271895
0	8799	70.003449476502	0.015948103719
0	8804	70.011918925988	0.01777794888
0	8807	70.020406860995	0.016770337373
0	8815	70.045772741191	0.008543878921
0	8818	70.054335432322	0.016409935233
0	8824	70.085540757526	0.008549096238
0	8831	70.121128768079	0.008532423208
0	8836	70.143694595641	0.008523073177
0	8841	70.165509164272	0.008512708257
0	8846	70.199189877303	0.00849720806
0	8851	70.218343477669	0.008488964346
0	8857	70.277966304926	0.008462282398
0	8866	70.461126608402	0.008381226054
0	8869	70.46950382238	0.008805355226
0	8875	70.512200809081	0.00835920707
0	8880	70.530747563037	0.008351228824
0	8886	70.661108128566	0.008294821661
0	8893	70.693077540444	0.008281083639
0	8903	70.802923835254	0.008234325373
0	8908	70.85506222983	0.008212106992
0	8913	70.875796557131	0.008203445447
0	8920	70.942598517424	0.008175659893
0	8925	70.995576839279	0.008153756552
0	8931	71.013295176248	0.008109360519
0	8937	71.024066011647	0.008031206976
0	8942	71.055232746158	0.007814244251
0	8948	71.077828773201	0.007664513303
0	8953	71.09285577499	0.007568385771
0	8963	71.150318685352	0.007306126709
0	8966	71.157603522484	0.007966965653
0	8973	71.199872868819	0.008174705127
0	8980	71.212852561364	0.008156606852
0	8983	71.220997778958	0.011862900672
0	8994	71.387093774067	0.007922136713
0	8997	71.395005166472	0.01176547214
0	9002	71.476541528102	0.007806401249
0	9007	71.550151564856	0.007714348689
0	9013	71.599195839233	0.007654455987
0	9020	71.659498760493	0.007581501137
0	9025	71.675352549998	0.007562662057
0	9031	71.72757902054	0.007501071582
0	9041	71.804497153828	0.007412113511
0	9046	71.816957956123	0.007397231322
0	9053	71.988929248062	0.007175807278
0	9085	72.507515567962	0.449180315644
0	9090	72.515033557437	0.449045504184
0	9093	72.522553162121	0.41355293106
0	9096	72.53007519092	0.416417652843
0	9099	72.537598836664	0.415984891057
0	9102	72.545124909129	0.414614003323
0	9107	72.552652600279	0.413055225943
0	9110	72.560182720761	0.307283092732
0	9113	72.567714461669	0.266329968686
0	9116	72.575248634524	0.258675447799
0	9119	72.58278442955	0.074750630575
0	9122	72.590322659143	0.043022313865
0	9127	72.598944116622	0.007540665733
0	9136	72.77748715188	0.007588898526
0	9141	72.794981821352	0.007593838143
0	9151	72.933884987527	0.007632755425
0	9158	72.996859669176	0.007650273224
0	9164	73.03738232078	0.007661157929
0	9169	73.048744125625	0.007664513303
0	9174	73.083778227786	0.007674597084
0	9180	73.13506562172	0.007688927944
0	9186	73.155994325464	0.007899785577
0	9196	73.183185352922	0.008377213978
0	9199	73.191654802408	0.015720570044
0	9202	73.200012013487	0.022513448653
0	9208	73.218832494483	0.008116883117
0	9214	73.255062384177	0.008022003209
0	9219	73.2695929299	0.008022922636
0	9227	73.305009810529	0.008025682183
0	9230	73.313036412983	0.015743141941
0	9240	73.426806666201	0.008035816783
0	9243	73.434843405581	0.013573740604
0	9248	73.49135473601	0.008041355543
0	9255	73.608792632143	0.008051529791
0	9262	73.626901750245	0.008052455999
0	9265	73.634955132666	0.008064568317
0	9270	73.686751005123	0.008057090239
0	9275	73.697544180538	0.008058017728
0	9280	73.711930262635	0.008059873345
0	9285	73.747516541837	0.008062658374
0	9291	73.800608721809	0.008067304368
0	9298	73.847065863732	0.00807102502
0	9305	73.893064626183	0.008074749106
0	9308	73.901140306848	0.00816339103
0	9315	73.94871333245	0.008077544426
0	9320	73.970136520313	0.008070094535
0	9325	73.978917539723	0.008066374741
0	9332	74.189177781649	0.00799086758
0	9339	74.251166888446	0.00796812749
0	9346	74.328868267002	0.007941009643
0	9352	74.36743438305	0.007927519819
0	9357	74.379157580789	0.00792303339
0	9364	74.446932355671	0.007898894155
0	9377	74.609563482695	0.007843137255
0	9380	74.617403106393	0.013397810248
0	9383	74.625240096989	0.019572918527
0	9389	74.679513682428	0.007818608288
0	9394	74.700785153773	0.007811628166
0	9402	74.850783060543	0.007760532151
0	9413	75.109467192797	0.007673755755
0	9419	75.153505247262	0.007659481344
0	9427	75.194432026801	0.00764609503
0	9430	75.202075617105	0.007739882838
0	9435	75.244701623658	0.007629427793
0	9444	75.373361631355	0.007587253414
0	9452	75.492462200513	0.007549611734
0	9458	75.533011912348	0.007536606374
0	9465	75.598208410053	0.007515567962
0	9471	75.614449669753	0.007510729614
0	9476	75.654854529109	0.007497857755
0	9484	75.703500935817	0.00748262961
0	9493	75.807469748371	0.007449978714
0	9502	75.905350807902	0.00741918389
0	9507	75.912768419431	0.011458764761
0	9510	75.920183673668	0.013142811079
0	9515	75.984881604079	0.007394886964
0	9551	76.507534172855	0.489036718313
0	9554	76.515096834912	0.464544628263
0	9557	76.522687379262	0.422051358063
0	9560	76.530306012262	0.422026678616
0	9565	76.537953778022	0.299410391505
0	9568	76.545630900198	0.272703121979
0	9571	76.553337605031	0.278463019378
0	9574	76.561074121388	0.192428629416
0	9580	76.568840680802	0.164789045953
0	9583	76.576637517514	0.10966450291
0	9587	76.584465743862	0.051537720941
0	9590	76.592324731175	0.030636842645
0	9596	76.623569497088	0.007986309184
0	9605	76.689760787303	0.007994518045
0	9614	76.788365768093	0.007783831869
0	9619	76.802452113578	0.007755373366
0	9629	76.855762807665	0.007646930304
0	9632	76.86339473091	0.009225411577
0	9642	76.91178479145	0.007682177349
0	9645	76.919438410518	0.012393518407
0	9650	76.961610745202	0.007497857755
0	9655	76.973107866716	0.007456327226
0	9662	76.982073709789	0.007424692406
0	9675	77.131708530835	0.007335219533
0	9681	77.228382708267	0.007568385771
0	9687	77.297078708572	0.007743362832
0	9692	77.333443765732	0.007839623698
0	9700	77.421271580949	0.008081274532
0	9703	77.429376246921	0.015106824024
0	9711	77.49595428782	0.008298755187
0	9720	77.582045924023	0.008520998174
0	9725	77.59213064234	0.008500303582
0	9731	77.650340032561	0.008385241974
0	9736	77.698148519058	0.008292856297
0	9742	77.75160805453	0.008191925102
0	9750	77.819067083465	0.008068234209
0	9753	77.827120465886	0.013464101536
0	9759	77.865659780658	0.007984487282
0	9764	77.926667661899	0.007877560207
0	9770	77.947385335942	0.00784225857
0	9776	77.967975901618	0.007807271916
0	9781	78.004612410011	0.007745933385
0	9787	78.088702859866	0.00760786871
0	9794	78.170414031107	0.007478632479
0	9799	78.178884687944	0.007465870307
0	9804	78.197896835208	0.007436523956
0	9809	78.218296400695	0.007405056596
0	9816	78.260370344401	0.007341373886
0	9819	78.267700954936	0.009231120633
0	9828	78.313324121255	0.007262917618
0	9833	78.320576504181	0.013588966686
0	9836	78.327818382931	0.011320656577
0	9841	78.343263239461	0.007219471947
0	9846	78.356545160083	0.007200164575
0	9853	78.416554870448	0.007114544161
0	9861	78.499700773366	0.007166257166
0	9867	78.526992235632	0.007240380637
0	9872	78.597905875932	0.007438894793
0	9879	78.615643859516	0.007489835224
0	9884	78.623288002115	0.007494646681
0	9891	78.760938169357	0.00750348376
0	9896	78.805168513125	0.007506702413
0	9904	78.870031895598	0.007510729614
0	9909	78.89216427055	0.007512341704
0	9916	79.070289039333	0.007523645744
0	9921	79.080541372101	0.007524454477
0	9926	79.098586797143	0.007525263384
0	9932	79.165344464315	0.007530120482
0	9937	79.17612956078	0.007530120482
0	9943	79.284965151149	0.007537417896
0	9954	79.457637854399	0.007548797584
0	9962	79.490836341342	0.007551240561
0	9965	79.498387581903	0.010963266667
0	9970	79.519827535843	0.007552870091
0	9976	79.596802948251	0.007557762902
0	9981	79.608319015945	0.007558578987
0	9989	79.755469610387	0.007568385771
0	9997	79.858652510465	0.007574937777
0	10002	79.921961171069	0.007579038545
0	10009	79.949063676293	0.007581501137
0	10016	79.991783974625	0.00758396533
0	10056	80.508136696501	0.501776917501
0	10059	80.51626961157	0.486891047905
0	10062	80.52439874872	0.486903492268
0	10066	80.532523168404	0.477512783689
0	10069	80.540643818056	0.427266759705
0	10072	80.548760701173	0.431910991257
0	10075	80.556872881032	0.397876160075
0	10078	80.564981302207	0.382173499952
0	10081	80.573085029922	0.357956306669
0	10084	80.581185006779	0.331105723748
0	10089	80.589281236249	0.304186658515
0	10092	80.597372786359	0.297973647303
0	10095	80.605460596873	0.192476829917
0	10100	80.613544671246	0.025868333733
0	10103	80.621624080295	0.008960309305
0	10115	80.947275768708	0.007919447901
0	10122	81.111159387817	0.007841380083
0	10127	81.128239476419	0.007833482543
0	10133	81.182128365875	0.007808142777
0	10139	81.22795357218	0.007787295583
0	10144	81.239620859215	0.007781236105
0	10152	81.346759578782	0.007732243455
0	10158	81.419656451732	0.007699076111
0	10165	81.463454800209	0.007678806494
0	10171	81.494860101258	0.007664513303
0	10176	81.516533703257	0.007655293088
0	10182	81.541069799926	0.007634420329
0	10194	81.634194738708	0.007261410788
0	10200	81.663228925289	0.007280291212
0	10205	81.700868407805	0.007303839733
0	10210	81.731786150119	0.007323707889
0	10219	81.780101219538	0.00735525901
0	10227	81.915306659327	0.007444432628
0	10233	81.986076989324	0.00749224018
0	10239	82.016960975813	0.007513148009
0	10245	82.033973372091	0.007522028799
0	10250	82.049011815865	0.007522028799
0	10257	82.106958992624	0.007520412548
0	10267	82.215538897432	0.007517989475
0	10272	82.231036593908	0.007517182131
0	10279	82.307875411491	0.007515567962
0	10284	82.360717383055	0.007513954487
0	10290	82.405810790319	0.007513148009
0	10295	82.420636624038	0.007512341704
0	10300	82.451597332698	0.007511535572
0	10307	82.531136501643	0.007509923828
0	10312	82.590539919258	0.007508312775
0	10318	82.611872733967	0.007507507508
0	10326	82.726629246257	0.007505092742
0	10334	82.888103623764	0.007501071582
0	10339	82.899871148841	0.007500267867
0	10345	82.909391724529	0.007500267867
0	10351	82.98375278472	0.007498660953
0	10356	83.046396577355	0.007497054728
0	10363	83.093556692622	0.007495449192
0	10369	83.190096467642	0.007493042175
0	10375	83.230623247019	0.00749224018
0	10382	83.333117759369	0.007489835224
0	10390	83.431774935526	0.007487431811
0	10396	83.468475217363	0.007486631016
0	10402	83.752326135727	0.007479431563
0	10407	83.792179784663	0.007478632479
0	10414	83.839307443927	0.007477034822
0	10421	83.856728586223	0.007476236249
0	10424	83.864204822472	0.013722858474
0	10429	83.955071618602	0.007473841555
0	10437	84.006576224235	0.007473043664
0	10478	84.514418482805	0.443481758195
0	10481	84.522398418966	0.404296056407
0	10484	84.530524724979	0.376410375855
0	10488	84.538804829072	0.376352806536
0	10491	84.54721626863	0.349807758152
0	10494	84.555617612845	0.277122490506
0	10499	84.564009891948	0.15956496375
0	10502	84.572392121621	0.143234134151
0	10507	84.580765327363	0.110457124925
0	10510	84.589128529275	0.116216874007
0	10513	84.597482748156	0.119643743838
0	10516	84.605827008497	0.114629460642
0	10519	84.61416232643	0.117240549831
0	10522	84.622487730807	0.114968977166
0	10525	84.630804233124	0.050531864057
0	10532	84.680124468947	0.008261536646
0	10538	84.717392352863	0.008219821512
0	10544	84.763123580716	0.008169934641
0	10549	84.803717188076	0.008126306013
0	10555	84.830008896212	0.00809810273
0	10560	84.858341921979	0.008068234209
0	10567	84.87661605036	0.008049678013
0	10570	84.884656482246	0.014942111838
0	10575	84.8981550809	0.008026602454
0	10583	84.979359098812	0.007942811755
0	10586	84.987293807495	0.01094170502
0	10593	85.008291559884	0.007913181099
0	10597	85.016196698224	0.014478969672
0	10605	85.040797074988	0.007880220646
0	10619	85.113071945444	0.0078125
0	10627	85.14214990835	0.007836113288
0	10636	85.209453731457	0.007891770011
0	10639	85.217351734391	0.008613336673
0	10645	85.243001729593	0.007919447901
0	10662	85.408277978939	0.008059873345
0	10665	85.416345283307	0.015573894244
0	10680	85.56920063363	0.008213070515
0	10689	85.631683290826	0.008293838863
0	10692	85.639987953301	0.016107354101
0	10705	85.762085298721	0.008467400508
0	10708	85.770563980892	0.014140480345
0	10714	85.886406044414	0.008638775762
0	10725	85.910843781118	0.008674101611
0	10729	85.919526490123	0.011191743841
0	10738	86.116951170891	0.008349236641
0	10744	86.136760935352	0.008317490494
0	10750	86.169577381621	0.00826446281
0	10756	86.184804277887	0.008241111373
0	10767	86.312586240754	0.008044127787
0	10773	86.369277577395	0.007933809362
0	10779	86.390140041695	0.007891770011
0	10786	86.424557573089	0.00782385157
0	10791	86.458684470212	0.007757951901
0	10797	86.510276917119	0.007660319545
0	10805	86.598364751017	0.007499464324
0	10817	86.718952628512	0.007289388733
0	10824	86.772620439171	0.007219471947
0	10830	86.812295783423	0.007597134795
0	10836	86.83059487072	0.007592190889
0	10841	86.842272779784	0.007589721349
0	10847	86.872764333318	0.007581501137
0	10855	86.933706688142	0.007566749541
0	10862	86.982617554976	0.007554500324
0	10867	87.007123557834	0.007548797584
0	10873	87.03273211452	0.007542290701
0	10878	87.094586831233	0.00752688172
0	10884	87.105632227108	0.007524454477
0	10889	87.115657436037	0.007522028799
0	10894	87.128382953703	0.007518796992
0	10899	87.158771679027	0.007511535572
0	10906	87.226222669351	0.007494646681
0	10913	87.237351975793	0.00749224018
0	10918	87.24916297373	0.007489033915
0	10924	87.289126372962	0.007479431563
0	10929	87.299382120164	0.007477034822
0	10940	87.453687161035	0.007470651014
0	10945	87.47062486464	0.007477034822
0	10950	87.479530253929	0.007481030245
0	10968	87.705337804347	0.007574937777
0	10974	87.724233683898	0.007583143755
0	10991	87.962355731027	0.007684707432
0	10997	87.97728729804	0.007691462477
0	11021	88.212427129848	0.21015225538
0	11024	88.219516455349	0.190055748065
0	11028	88.22660578085	0.184849318366
0	11031	88.231323009399	0.148609989165
0	11034	88.233695106351	0.121686188523
0	11037	88.2384123349	0.080039633317
0	11044	88.27271305157	0.007090043553
0	11050	88.330368454984	0.007091480093
0	11055	88.373703346751	0.007092198582
0	11061	88.394236927784	0.007092917216
0	11071	88.509666743417	0.007095793208
0	11077	88.560940552699	0.007096512571
0	11086	88.667101464909	0.007105156313
0	11092	88.695674534576	0.007108764091
0	11099	88.779831315879	0.007120333638
0	11102	88.786952373865	0.012862954973
0	11109	88.88890471125	0.007134848639
0	11115	88.947894344076	0.007142857143
0	11120	88.983862265098	0.007147962831
0	11127	89.043305337747	0.007156000818
0	11132	89.052551737725	0.007157464213
0	11137	89.071466084095	0.007159660428
0	11145	89.147886891334	0.007991779884
0	11151	89.232025397415	0.007865168539
0	11157	89.475426524351	0.007517989475
0	11163	89.490303628291	0.007497857755
0	11170	89.544509915194	0.007425480004
0	11177	89.586894165369	0.007399577167
0	11182	89.601080443916	0.007391763464
0	11189	89.627417966273	0.007376185458
0	11195	89.758981835691	0.007299270073
0	11200	89.802825833803	0.007273482959
0	11208	89.931683078185	0.007465870307
0	11213	89.979960789024	0.007446016381
0	11221	90.108816708528	0.007392544091
0	11224	90.116206131097	0.008491194794
0	11233	90.169463616991	0.007367645511
0	11236	90.176828161967	0.012630497452
0	11243	90.310793994425	0.007310704961
0	11251	90.375141132525	0.007285595337
0	11256	90.388384134766	0.007280291212
0	11262	90.40028253426	0.007274994804
0	11269	90.443048394298	0.007258399005
0	11272	90.450303784016	0.011790252228
0	11281	90.697269259768	0.007709251101
0	11288	90.795098895764	0.007912286651
0	11297	91.058365065102	0.007493042175
0	11302	91.068995946135	0.007468259895
0	11308	91.149532927921	0.007284079084
0	11314	91.25100813417	0.007063572149
0	11320	91.29534926773	0.007192027124
0	11325	91.30696229051	0.007238134629
0	11333	91.356567109109	0.007443641004
0	11336	91.364042546956	0.010995919844
0	11344	91.385521346985	0.007569204152
0	11349	91.393124257814	0.014042474811
0	11352	91.400761176863	0.009081851277
0	11358	91.4883387593	0.008049678013
0	11363	91.602359473095	0.008659079664
0	11370	91.669151221119	0.008492053864
0	11375	91.712963162682	0.008320456436
0	11381	91.829699876699	0.007895330476
0	11387	91.85184772701	0.00781948168
0	11398	91.909655349564	0.007628596338
0	11404	91.929415676862	0.00756593169
0	11410	91.942959700543	0.007522837184
0	11417	91.952395226343	0.007493844342
0	11422	91.959865877357	0.010389412953
0	11425	91.967313478166	0.007605748718
0	11464	92.507413683542	0.470556261918
0	11467	92.514831295071	0.422896198218
0	11470	92.522252838752	0.422090274885
0	11473	92.529677531158	0.412647172733
0	11476	92.537106163228	0.310437460704
0	11480	92.544538739146	0.298817023263
0	11484	92.551975263102	0.264442796224
0	11487	92.55941494851	0.178637300185
0	11490	92.566858589514	0.168656420223
0	11493	92.574306190323	0.171191456232
0	11496	92.58175696201	0.108455191732
0	11501	92.629707232659	0.007475437847
0	11508	92.704446792637	0.007513148009
0	11515	92.731269109669	0.00752688172
0	11522	92.83879156322	0.00769738289
0	11531	92.92708120267	0.008133860098
0	11534	92.935257817551	0.009258910243
0	11544	93.02148251439	0.008644109657
0	11549	93.06968765011	0.008363201912
0	11555	93.126744613513	0.008053382421
0	11562	93.153601253923	0.007914970602
0	11565	93.161477041502	0.013079007661
0	11570	93.219080686291	0.007597959405
0	11576	93.272134261525	0.007483429549
0	11582	93.302677092201	0.007438104346
0	11587	93.33221404316	0.007394886964
0	11594	93.438971919776	0.007244127083
0	11599	93.457530926567	0.007217983089
0	11605	93.587377950698	0.007204610951
0	11613	93.623966674033	0.007211290821
0	11617	93.631179450952	0.012302371505
0	11622	93.680715914536	0.007221706386
0	11629	93.689359579232	0.007223196781
0	11636	93.714087425635	0.007227671657
0	11641	93.762347050486	0.007236638065
0	11646	93.788635239507	0.007241129616
0	11651	93.803736957974	0.007244127083
0	11657	93.815868749788	0.007246376812
0	11664	93.865039074677	0.007255389718
0	11669	93.874145303512	0.007256894049
0	11674	93.902959535143	0.007262164125
0	11680	93.951711880546	0.007271216371
0	11686	93.979017912872	0.007275750961
0	11704	94.162937020877	0.007298509019
0	11707	94.170234769	0.013381097808
0	11710	94.177532517123	0.015516290562
0	11720	94.367069232223	0.0072863537
0	11728	94.420558970572	0.007283321194
0	11731	94.427842291766	0.01395524652
0	11736	94.466944424783	0.007281048471
0	11742	94.482956922021	0.00727953411
0	11748	94.55179937077	0.007275750961
0	11753	94.561746804832	0.007274994804
0	11758	94.580966016022	0.007274238803
0	11763	94.617581173122	0.007271971743
0	11770	94.632745486441	0.007271216371
0	11774	94.640016702812	0.014522655619
0	11779	94.649686401033	0.007270461155
0	11784	94.661820869908	0.007269706096
0	11792	94.752766647317	0.007264425073
0	11798	94.781667932038	0.007262917618
0	11806	94.876127556879	0.007256894049
0	11816	95.02374752807	0.007248627938
0	11824	95.10751277226	0.007244127083
0	11830	95.16351826038	0.007241129616
0	11837	95.179845224407	0.007239631813
0	11840	95.18708485622	0.008242178756
0	11845	95.209808767979	0.007238134629
0	11852	95.296052188416	0.007232899359
0	11857	95.31319370819	0.007232152082
0	11862	95.382506063378	0.007228418009
0	11868	95.440479290957	0.00722468779
0	11873	95.486288136366	0.007222451506
0	11878	95.499688654335	0.007221706386
0	11885	95.559956796526	0.007217983089
0	11891	95.62789395862	0.00721426363
0	11902	95.725856851542	0.007209062822
0	11909	95.804590929029	0.007204610951
0	11914	95.851306940473	0.007201646091
0	11919	95.889414041711	0.007199424046
0	11924	95.921435183042	0.007197943445
0	11931	95.931023328578	0.007197203372
0	11934	95.93821979203	0.012697719833
0	11940	95.947944714546	0.007196463452
0	11970	96.507362221287	0.434722060671
0	11973	96.514736075706	0.400220504854
0	11976	96.522121600078	0.38831630754
0	11980	96.5295188314	0.329284609863
0	11983	96.536927806845	0.335571547489
0	11986	96.544348563762	0.331782803443
0	11989	96.55178113968	0.335952124179
0	11992	96.559225572308	0.291160456204
0	11996	96.566681899534	0.27390489797
0	12001	96.574150159429	0.161747825031
0	12004	96.581630390248	0.010355913834
0	12010	96.644739151789	0.00758396533
0	12015	96.660430763	0.007609522774
0	12022	96.770268239959	0.007797705247
0	12025	96.778079868125	0.008165233386
0	12031	96.937452893768	0.008101851852
0	12038	96.974805245883	0.008173750584
0	12046	96.990879402159	0.008204406939
0	12049	96.999100189006	0.009012284716
0	12055	97.009992214568	0.008242081714
0	12061	97.053729934241	0.008328375967
0	12069	97.169406525863	0.008565834557
0	12074	97.18395737186	0.008597396217
0	12079	97.20868593016	0.008650519031
0	12087	97.253733067377	0.008361204013
0	12090	97.261853717029	0.010772290808
0	12096	97.291697142528	0.007345996432
0	12103	97.340314207391	0.007123231912
0	12109	97.382580247086	0.007172131148
0	12115	97.415174947073	0.007211290821
0	12120	97.455712984062	0.007259904584
0	12125	97.466387662412	0.007272727273
0	12139	97.605512310721	0.00744522442
0	12148	97.729627322624	0.007606215365
0	12153	97.742529373981	0.007622781226
0	12158	97.775252072868	0.007667031763
0	12163	97.833190996806	0.007745933385
0	12176	98.070049385028	0.008085008085
0	12181	98.092332450717	0.008118765948
0	12186	98.108873732458	0.008144269924
0	12193	98.118547924643	0.008158508159
0	12197	98.126718812935	0.013255259876
0	12202	98.141538359492	0.008183306056
0	12210	98.260674558562	0.00821499824
0	12214	98.268891485431	0.008236228652
0	12219	98.286443097233	0.008221752408
0	12224	98.298513912404	0.008224650452
0	12231	98.427270931241	0.008259587021
0	12237	98.465885578249	0.008270321361
0	12242	98.49903639242	0.008279124778
0	12248	98.508218240918	0.008282063417
0	12254	98.567335179408	0.008297771456
0	12262	98.74441799381	0.008346250149
0	12265	98.752766234716	0.010516203004
0	12271	98.857854119739	0.008378216637
0	12277	98.873225584371	0.008382229673
0	12282	98.895977679222	0.008388256441
0	12288	98.952791265192	0.008404370273
0	12294	98.96330434799	0.008407398511
0	12303	99.115317455503	0.008303677343
0	12308	99.133624924822	0.008258612553
0	12316	99.219160265779	0.008053382421
0	12322	99.287329161926	0.007898002934
0	12332	99.404519637098	0.007643590304
0	12337	99.417762430337	0.00761614623
0	12344	99.492123947342	0.007463482248
0	12349	99.553731097277	0.007342914088
0	12357	99.732595794298	0.007390202703
0	12362	99.743799150357	0.00757002271
0	12367	99.757628752544	0.007804660497
0	12378	99.837058746488	0.007331378299
0	12383	99.844441155263	0.008186901163
0	12388	99.851875309893	0.013829976678
0	12391	99.859362741704	0.007561326602
0	12397	99.902512739353	0.007759671877
0	12402	99.945934681902	0.007796836712
0	12407	99.960510193414	0.007809885083
0	12417	99.983688376235	0.007830853563
0	12420	99.991525366831	0.011801872808
0	12423	99.999369382967	0.017855960175
0	12467	100.508364201219	0.432437240756
0	12470	100.516680703536	0.434094669519
0	12474	100.524950047895	0.435197317721
0	12477	100.533172766091	0.426912429706
0	12480	100.541350336184	0.37299209633
0	12483	100.549482306444	0.360693880636
0	12486	100.557570116958	0.363381664645
0	12489	100.565615169251	0.352323099596
0	12492	100.57361699824	0.306941465433
0	12495	100.581576970949	0.273222248179
0	12500	100.589495522985	0.156249272064
0	12505	100.597373083192	0.110853347807
0	12508	100.605210951292	0.115322819479
0	12512	100.613008656539	0.029963778722
0	12517	100.620767468332	0.026458281616
0	12520	100.628487772733	0.010284993199
0	12525	100.6995171623	0.007384745226
0	12533	100.838197461599	0.007038005228
0	12542	100.876622033924	0.007056451613
0	12547	100.900622062313	0.007068565081
0	12553	101.140716224001	0.00718907261
0	12558	101.168255857233	0.007203128216
0	12563	101.190874619199	0.007215007215
0	12569	101.217632134122	0.007228418009
0	12575	101.246558033857	0.007243377483
0	12580	101.318932255438	0.007281048471
0	12585	101.353698982898	0.007300031286
0	12592	101.420664824447	0.007335219533
0	12595	101.42800388924	0.007556102616
0	12600	101.455240466174	0.007353713625
0	12607	101.475142767142	0.007364544976
0	12612	101.496129797813	0.007375408282
0	12619	101.532880925836	0.007395668251
0	12622	101.540280503003	0.010492257345
0	12628	101.558764630509	0.007409759712
0	12633	101.573410815697	0.007417611529
0	12643	101.703460961026	0.007489033915
0	12647	101.710954003201	0.011055571744
0	12652	101.721816843658	0.007499464324
0	12658	101.742046060344	0.007510729614
0	12663	101.777862567437	0.007530120482
0	12669	101.788367549547	0.007536606374
0	12675	101.874304325707	0.007584787084
0	12681	101.926229624801	0.007614489285
0	12689	101.993093432114	0.007652782333
0	12696	102.061707583317	0.007693153094
0	12701	102.084886608568	0.007706704833
0	12707	102.118427783302	0.007726269316
0	12713	102.165743445988	0.007754514235
0	12718	102.198704226287	0.007774322523
0	12724	102.262470352244	0.0078125
0	12729	102.283605829747	0.007825600894
0	12734	102.304846584661	0.0078378681
0	12743	102.464813304707	0.007936507937
0	12746	102.472755215304	0.009527265154
0	12756	102.72185503329	0.007844016136
0	12762	102.754461858848	0.007798573975
0	12767	102.805796287295	0.00772882853
0	12773	102.84223506593	0.00767964893
0	12778	102.935719851428	0.007556131261
0	12783	102.955845222909	0.007530120482
0	12788	102.979367571063	0.007500267867
0	12797	103.12800616511	0.007416825599
0	12802	103.172427136191	0.007521220587
0	12809	103.254271703437	0.007537417896
0	12814	103.277316653108	0.007531740908
0	12823	103.369561196868	0.007509923828
0	12828	103.518357072529	0.007474639616
0	12833	103.573080638032	0.007461891056
0	12838	103.619861899869	0.007450771687
0	12844	103.654621317075	0.007442058261
0	12851	103.767015501664	0.007567567568
0	12856	103.77508147897	0.007577397705
0	12861	103.823259515966	0.007636919049
0	12870	103.840393796415	0.007657805492
0	12874	103.848061668033	0.010896708739
0	12879	103.867736535333	0.007692307692
0	12886	103.886191154544	0.007716049383
0	12889	103.893916571165	0.014235368698
0	12894	103.932416456841	0.007774322523
0	12899	103.948237092719	0.007795100223
0	12940	104.507611177558	0.443555147498
0	12945	104.515231469306	0.318846525646
0	12948	104.522860065644	0.273010475763
0	12951	104.530496984693	0.24280380795
0	12955	104.538143079723	0.228577139723
0	12958	104.54579753571	0.233423936103
0	12961	104.553460370959	0.187459261184
0	12964	104.561132444611	0.049849524001
0	12969	104.569028883242	0.007680491551
0	12975	104.632634289078	0.007692307692
0	12989	104.811728984944	0.007906031172
0	12996	104.821354979574	0.007918552036
0	13007	104.86807688784	0.007901569026
0	13010	104.875973999753	0.010568138886
0	13013	104.883867549595	0.018056354002
0	13020	104.986494273124	0.007836990596
0	13030	105.203936226797	0.007759671877
0	13036	105.280464952482	0.007794232268
0	13041	105.288343474277	0.007797705247
0	13046	105.304326161893	0.007804660497
0	13053	105.326733339675	0.007815116669
0	13056	105.334551947963	0.008512640423
0	13063	105.501062782379	0.007895330476
0	13068	105.518918597482	0.007904245709
0	13074	105.574735547771	0.007930214116
0	13079	105.58356256198	0.007934708683
0	13086	105.640937892406	0.007961783439
0	13091	105.694960883469	0.007987220447
0	13096	105.723426439861	0.00800091439
0	13103	105.806610481838	0.008077544426
0	13109	105.832242722654	0.008110300081
0	13117	105.894442639747	0.008077544426
0	13124	105.912440436425	0.008012820513
0	13127	105.920424923707	0.00874726692
0	13135	105.991036769618	0.00774250636
0	13138	105.998753669629	0.01253779165
0	13143	106.016515934106	0.007659481344
0	13152	106.048848108879	0.007555315704
0	13157	106.056379849787	0.008464419977
0	13162	106.063909160317	0.012972234259
0	13165	106.071435232782	0.009144987287
0	13170	106.112275766595	0.007510729614
0	13177	106.120041320985	0.007507507508
0	13180	106.12754560915	0.01115218488
0	13185	106.237829985472	0.007462686567
0	13192	106.306713531687	0.007436523956
0	13197	106.322300895536	0.007430209107
0	13204	106.373105776603	0.007411328745
0	13209	106.386247017503	0.007406623638
0	13215	106.400628711564	0.00740114189
0	13225	106.453830195555	0.007380851961
0	13228	106.461208713527	0.009924208612
0	13233	106.476546169602	0.007372301211
0	13238	106.485402165917	0.007369196758
0	13244	106.566811020021	0.007339064793
0	13249	106.609440161327	0.007323707889
0	13254	106.667474369153	0.007302315877
0	13259	106.675179382516	0.007299270073
0	13266	106.71967856171	0.007283321194
0	13272	106.737692691284	0.007277263749
0	13279	106.770032764325	0.007265179035
0	13282	106.777295681943	0.008700068937
0	13287	106.799467869376	0.007254637786
0	13292	106.839999218554	0.007240380637
0	13299	106.869066854456	0.007229911175
0	13304	106.933199850673	0.007206836199
0	13312	106.995696970688	0.008324414318
0	13319	107.034890256425	0.00823626309
0	13322	107.043108147949	0.013412693134
0	13327	107.104224779661	0.008084074373
0	13332	107.117362922685	0.008056162965
0	13337	107.193401025122	0.007897111913
0	13343	107.253411096032	0.007776049767
0	13349	107.304463588313	0.007676280294
0	13355	107.366155985382	0.007672914611
0	13360	107.414342657628	0.007673755755
0	13365	107.456805674299	0.007675438596
0	13372	107.535830962019	0.007677964243
0	13379	107.550987338903	0.007677964243
0	13387	107.632237424071	0.007680491551
0	13395	107.645013209514	0.007680491551
0	13400	107.666594916701	0.007681334358
0	13405	107.704714981418	0.007683020525
0	13413	107.798846608968	0.00784577449
0	13418	107.814215728489	0.007911392405
0	13429	107.942555979691	0.008007320979
0	13463	108.507147233	0.505350873475
0	13467	108.514302502345	0.508513930752
0	13470	108.521465826127	0.442692022613
0	13473	108.5286372225	0.357414219766
0	13476	108.535815973397	0.301057520082
0	13479	108.543002831713	0.307027721765
0	13484	108.550197815781	0.264627264015
0	13487	108.557400943997	0.235905985782
0	13490	108.564612234818	0.131200209306
0	13493	108.571831706765	0.02871396445
0	13501	108.590575061173	0.007240380637
0	13506	108.621360405103	0.007275750961
0	13512	108.637947221507	0.007294706128
0	13518	108.661958331862	0.007322175732
0	13523	108.675548674093	0.007337526205
0	13532	108.732455637643	0.007404273323
0	13537	108.739868536086	0.009544179311
0	13540	108.747290866698	0.011916457777
0	13545	108.79093273349	0.007473841555
0	13551	108.910753093737	0.007621121394
0	13558	108.98329636061	0.007713498623
0	13564	109.032708638486	0.007776913676
0	13569	109.079885313059	0.007839623698
0	13577	109.147008802568	0.007691462477
0	13580	109.154674994661	0.008256030298
0	13585	109.171798147074	0.00761200522
0	13591	109.23200371519	0.00742626777
0	13596	109.287056127623	0.007264425073
0	13605	109.354063519807	0.007080004046
0	13611	109.430836791676	0.007110208228
0	13617	109.453860529906	0.007119609439
0	13622	109.471162445755	0.007126132546
0	13627	109.510807555383	0.007142128354
0	13634	109.544142085027	0.007155269345
0	13639	109.551300281162	0.010301745788
0	13642	109.558461406482	0.007263654677
0	13649	109.604014721473	0.007179487179
0	13656	109.615158435073	0.007183908046
0	13659	109.622345293389	0.013429719734
0	13665	109.689461759622	0.007213520198
0	13670	109.710867229527	0.007222451506
0	13675	109.748990837082	0.007238134629
0	13681	109.831800606842	0.007271971743
0	13686	109.886800690622	0.007294706128
0	13693	109.936368944064	0.007315288954
0	13698	109.945325758267	0.007319113342
0	13703	109.968827101857	0.007329075489
0	13708	110.012201454999	0.007346767422
0	13715	110.134808553138	0.007398795053
0	13721	110.19831238253	0.00742626777
0	13726	110.247663984057	0.007447600809
0	13731	110.265533575313	0.007455533071
0	13739	110.398337219525	0.00752769115
0	13747	110.541228130752	0.007676280294
0	13756	110.574862427148	0.007712648744
[...]
24	24736	200.548529883171	8498
24	24739	200.556767115461	8510
24	24746	200.564992732382	8521
24	24749	200.573207730622	8533
24	24752	200.581411176069	8544
24	24755	200.589604059964	8556
24	24760	200.597785453138	8567
24	24763	200.60595634143	8579
24	24769	200.614115800574	8590
24	24772	200.622264811051	8601
24	24775	200.630403399587	8613
24	24782	200.666345446021	8663
24	24790	200.792248593437	8839
24	24800	200.900721041443	8991
24	24805	200.979489420775	9101
24	24813	201.043509341466	9191
24	24817	201.051125487696	9201
24	24826	201.250134934235	9480
24	24831	201.265839724437	9502
24	24837	201.287117240168	9531
24	24842	201.303214134551	9554
24	24848	201.340540449379	9606
24	24855	201.376330832695	9656
24	24861	201.418915934989	9716
24	24866	201.52303594255	9861
24	24871	201.558359687448	9911
24	24878	201.596545916005	9868
24	24881	201.603639552	9854
24	24886	201.610743266228	9839
24	24895	201.705750910649	9649
24	24903	201.844821715031	9370
24	24907	201.852292366045	9355
24	24912	201.859774995655	9340
24	24919	201.870849803052	9318
24	24924	201.900731375706	9258
24	24930	201.988226329425	9082
24	24937	202.04567706916	8967
24	24949	202.265580613668	8526
24	24955	202.315854526503	8425
24	24962	202.407689052787	8257
24	24967	202.426091510685	8239
24	24977	202.480360304655	8727
24	24982	202.521794857039	8752
24	24988	202.655100263672	8832
24	24993	202.700579137353	8859
24	24999	202.731467495178	8878
24	25002	202.739352153885	8883
24	25010	202.909947779005	8986
24	25016	203.013463964683	9048
24	25021	203.034426107968	9061
24	25026	203.059611553109	9076
24	25031	203.068241159537	9081
24	25037	203.096754241836	9098
24	25042	203.149540425605	9130
24	25047	203.181144168091	9149
24	25050	203.188795277502	9154
24	25057	203.274088936526	9205
24	25064	203.340858498725	9245
24	25070	203.365349887872	9260
24	25077	203.445157258101	9308
24	25085	203.591880986531	9397
24	25091	203.627820012181	9419
24	25096	203.664088687405	9440
24	25101	203.688950600997	9455
24	25106	203.755594210463	9496
24	25113	203.77897706657	9510
24	25119	203.851762242539	9554
24	25124	203.859089016665	9558
24	25127	203.866412724554	9562
24	25132	203.873733368771	9567
24	25140	203.909632820922	9588
24	25146	204	9643
24	25173	204.5	9469
24	25174	204.507392544091	9445
24	25177	204.514803872836	9420
24	25181	204.522234870713	9395
24	25184	204.5296856424	9371
24	25187	204.537155496204	9346
24	25190	204.544645331428	9321
24	25193	204.552155255256	9296
24	25196	204.559685375738	9271
24	25204	204.673333077409	8893
24	25209	204.699410890478	8807
24	25214	204.718255842801	8744
24	25219	204.764332471369	8591
24	25224	204.784468709262	8524
24	25230	204.792931535635	8532
24	25238	204.834296840709	8606
24	25243	204.843238384044	8622
24	25248	204.857127864251	8647
24	25251	204.865223157416	8661
24	25262	205.024363144239	8946
24	25269	205.056269550293	9003
24	25281	205.242932608372	8110
24	25286	205.253122094046	8112
24	25292	205.298824943283	8118
24	25299	205.349139947378	8126
24	25305	205.439369153231	8139
24	25308	205.447969718411	8140
24	25315	205.470289803503	8143
24	25320	205.493719214864	8147
24	25327	205.520526259294	8151
24	25332	205.563346329553	8157
24	25338	205.584973147334	8160
24	25343	205.781852262192	8189
24	25354	205.892456736264	8205
24	25361	205.951738544887	8214
24	25366	206.030151091867	8225
24	25372	206.064004689881	8230
24	25375	206.072510157682	8231
24	25383	206.208732528428	8251
24	25388	206.218215758897	8253
24	25394	206.247132583257	8257
24	25399	206.279440899112	8262
24	25407	206.403438225818	8280
24	25414	206.44212136151	8286
24	25417	206.450569346062	8287
24	25427	206.47674592285	8291
24	25437	206.578446891454	8304
24	25444	206.60083003552	8185
24	25451	206.647909416321	8114
24	25454	206.656536480654	8131
24	25464	206.820783096226	8445
24	25469	206.831652265695	8466
24	25475	206.924754006462	8645
24	25480	207.060739668375	8905
24	25483	207.068600420761	8920
24	25491	207.117708861566	9014
24	25497	207.158515803781	9092
24	25502	207.182299897951	9138
24	25507	207.205373785754	9182
24	25513	207.222794977901	9216
24	25520	207.289591862688	9343
24	25523	207.297084102868	9358
24	25530	207.315797240887	9394
24	25535	207.324205360829	9410
24	25540	207.379580945378	9516
24	25550	207.478386709648	9667
24	25555	207.549952131896	9393
24	25560	207.57511194574	9296
24	25565	207.593215408474	9227
24	25570	207.636540964467	9061
24	25576	207.735096807522	8683
24	25581	207.746325358606	8639
24	25586	207.781237261857	8506
24	25593	207.857470248103	8435
24	25596	207.86576900329	8549
24	25601	207.873957095465	8661
24	25608	207.887435064758	8846
24	25613	207.902480140229	9053
24	25618	207.964862335535	9909
24	25622	207.971926620528	9974
24	25630	207.978944867971	9970
24	25633	207.985965931161	9966
24	25640	208	9959
24	25662	208.5	9679
24	25663	208.507232152082	9675
24	25666	208.514467294201	9671
24	25669	208.52170542883	9667
24	25672	208.528946558446	9663
24	25675	208.536190685529	9659
24	25678	208.543437812561	9655
24	25683	208.550687942028	9651
24	25688	208.557941076418	9646
24	25693	208.565197970467	9642
24	25698	208.572457875051	9638
24	25701	208.579720792669	9634
24	25708	208.603613316442	9621
24	25713	208.646641381836	9597
24	25720	208.717215583508	9557
24	25731	208.910166670757	9402
24	25739	208.991157597742	9329
24	25745	209.028413798604	9295
24	25753	209.209979268569	9129
24	25756	209.217647140187	9122
24	25763	209.232641497442	9109
24	25769	209.297633161944	9049
24	25775	209.308687190984	9039
24	25780	209.322720321742	9027
24	25786	209.399721695762	8956
24	25789	209.407537685043	8949
24	25798	209.448994371845	8912
24	25803	209.521388820961	8846
24	25808	209.537102299879	8831
24	25813	209.545028922006	8824
24	25818	209.552961832251	8817
24	25823	209.560901040599	8810
24	25826	209.568846557058	8802
24	25839	209.71315763378	8784
24	25844	209.721705076592	8790
24	25850	209.812813938123	8848
24	25861	209.923744817808	8920
24	25866	209.945090154848	8933
24	25873	210.002298139407	8970
24	25879	210.027436849719	8986
24	25882	210.035226745112	8991
24	25889	210.046480395787	8998
24	25894	210.129098427595	9051
24	25900	210.172859093573	9080
24	25903	210.180568344674	9084
24	25910	210.199731762066	9097
24	25915	210.255048246997	9132
24	25918	210.262713599603	9137
24	25925	210.288496326559	9154
24	25930	210.302188803141	9163
24	25935	210.37494427205	9209
24	25940	210.462774891887	9266
24	25947	210.55376130242	9324
24	25955	210.564311518588	9331
24	25962	210.614044724089	9363
24	25967	210.624042773091	9369
24	25972	210.728026591713	9436
24	25975	210.735444989339	9441
24	25984	210.785093562876	9473
24	25989	210.849413902803	9514
24	25996	211.035627499664	9634
24	26002	211.121865276772	9689
24	26008	211.166911716439	9718
24	26017	211.206326575189	9717
24	26022	211.219982317644	9663
24	26026	211.227226444727	9635
24	26033	211.236051095268	9600
24	26038	211.249991904564	9545
24	26044	211.261460689046	9500
24	26049	211.278557371356	9432
24	26055	211.307289976821	9319
24	26061	211.321382098341	9264
24	26066	211.506174263656	8536
24	26072	211.527329966004	8452
24	26078	211.594769548761	8187
24	26085	211.614515687936	8174
24	26090	211.685677940423	8270
24	26095	211.740988765728	8344
24	26100	211.749921124099	8356
24	26103	211.758298338077	8367
24	26110	211.77908744135	8395
24	26115	211.787458390154	8406
24	26119	211.795785775355	8418
24	26128	211.8704750416	8461
24	26134	211.918574664966	8438
24	26139	211.929529160936	8432
24	26145	211.961362496751	8416
24	26149	212	8397
24	26637	216	8668
24	27207	220	9910
24	27250	220.50218325118	9437
24	27251	220.509600862709	9428
24	27254	220.517025555115	9419
24	27257	220.524457341929	9411
24	27260	220.531895446275	9402
24	27263	220.539340670695	9393
24	27266	220.546793028834	9385
24	27269	220.554251739543	9376
24	27272	220.56171760985	9367
24	27275	220.569190653514	9359
24	27278	220.576670085077	9350
24	27281	220.584156716093	9341
24	27284	220.591650560435	9333
24	27287	220.599150828302	9324
24	27294	220.653390495685	9261
24	27297	220.660949074672	9252
24	27306	220.758925340361	9138
24	27313	220.850004757244	9032
24	27318	220.8624120963	9018
24	27323	220.886241696217	8990
24	27338	221.06670730809	8781
24	27345	221.077384732667	8768
24	27353	221.099504378203	8742
24	27360	221.146747658428	8688
24	27367	221.195416203296	8631
24	27370	221.203526503377	8622
24	27377	221.257272277066	8559
24	27384	221.349494170027	8452
24	27393	221.4390533322	8526
24	27402	221.571774910627	8682
24	27405	221.574679065293	8685
24	27426	221.762845245317	8939
24	27432	221.778400994444	8960
24	27437	221.801985642434	8993
24	27442	221.82784962528	9029
24	27447	221.842242835117	9049
24	27452	221.856458364051	9069
24	27460	221.992207985643	9259
24	27465	222.010905286494	9285
24	27473	222.136250098616	9460
24	27479	222.207559720331	9559
24	27492	222.334639495075	9626
24	27498	222.342891484632	9628
24	27508	222.468221079556	9665
24	27517	222.603807223454	9705
24	27524	222.654853142294	9720
24	27529	222.668974299835	9724
24	27532	222.676172983504	9727
24	27541	222.755573676434	9750
24	27547	222.822916668614	9770
24	27553	222.836164179975	9774
24	27566	222.981616804174	9837
24	27575	223.169855924341	9860
24	27582	223.181135905997	9858
24	27591	223.320350057688	9837
24	27598	223.334787713599	9835
24	27605	223.360421405371	9831
24	27610	223.376289081393	9829
24	27615	223.40905831192	9824
24	27621	223.483180806569	9813
24	27627	223.495428648746	9811
24	27633	223.542619148677	9804
24	27640	223.640824952382	9789
24	27643	223.647975836027	9788
24	27651	223.662756815753	9786
24	27658	223.701032603958	9780
24	27665	223.77686967588	9769
24	27670	223.796781327917	9766
24	27676	223.832345682343	9761
24	27687	223.905095666124	9548
24	27697	224	9098
24	28154	228	9300
24	28690	232	9003
24	29120	236	9295
24	29566	240	8788
24	30092	244	8953
24	30693	248	8899
24	31163	252	8522
24	31656	256	9555
24	32093	260	8800
24	32597	264	8831
24	33002	268	8141
24	33502	272	9489
24	33967	276	9880
24	33997	276.5	9491
24	33998	276.507375408282	9500
24	34001	276.514743829335	9508
24	34004	276.522106050622	9516
24	34007	276.529462082568	9524
24	34010	276.536811935571	9532
24	34013	276.544155620002	9540
24	34016	276.551493146207	9548
24	34023	276.563031573341	9561
24	34026	276.570352983235	9569
24	34034	276.613673020887	9505
24	34041	276.626839775456	9483
24	34046	276.654395025451	9438
24	34057	276.738967916175	8188
24	34062	276.783890954973	8242
24	34068	276.815347840446	8280
24	34074	276.870167214004	8346
24	34077	276.878554465382	8356
24	34086	276.974021948734	8471
24	34091	277.012085165004	8516
24	34099	277.132530248057	8661
24	34104	277.192201188344	8733
24	34109	277.201212555892	8744
24	34114	277.229823600161	8778
24	34117	277.23779808182	8788
24	34127	277.273507984472	8830
24	34132	277.370831583113	8947
24	34135	277.378655434683	8957
24	34142	277.422856101146	9010
24	34147	277.431273050555	9020
24	34152	277.476603009728	9074
24	34157	277.519679781005	9126
24	34164	277.580075233456	9015
24	34169	277.601811757461	8883
24	34174	277.72808996731	8113
24	34181	277.75696017909	8155
24	34186	277.793328534982	8531
24	34198	277.97211898151	8796
24	34203	277.981656148106	8863
24	34206	277.98955415104	8919
24	34214	277.997402564539	8974
24	34217	278.005202876551	9029
24	34229	278.216164273946	9552
24	34234	278.230209830937	9553
24	34239	278.238002358658	9553
24	34244	278.300238586265	9557
24	34249	278.327527012209	9559
24	34254	278.338786291043	9559
24	34262	278.595576267331	9574
24	34268	278.613297276207	9575
24	34274	278.647981152549	9577
24	34280	278.684899853834	9579
24	34285	278.757169222897	9583
24	34292	278.780081522365	9584
24	34300	278.889150019926	9590
24	34306	278.940539270947	9593
24	34312	278.976245361222	9595
24	34317	279.03344297611	9598
24	34323	279.086593470907	9601
24	34328	279.111449312077	9603
24	34334	279.146749211011	9605
24	34339	279.174250932503	9606
24	34344	279.187789257834	9607
24	34352	279.358569408824	9617
24	34363	279.619146839621	9364
24	34368	279.652392827416	9319
24	34377	279.692271292646	9266
24	34384	279.769592830439	9161
24	34391	279.802814907505	9117
24	34399	280	8851
24	34832	284	9739
24	35363	288	8501
24	35834	292	9520
24	36337	296	8655
24	36767	300	9313
24	37232	304	9728
24	37251	304.5	8725
24	37252	304.508022922636	8701
24	37255	304.516067974929	8675
24	37258	304.524137139194	8650
24	37261	304.532229624743	8625
24	37270	304.653375066575	8248
24	37273	304.661861972492	8222
24	37282	304.711992234997	8325
24	37287	304.734172739968	8928
24	37293	304.753870956112	9464
24	37299	304.831855957131	9610
24	37304	304.842083458469	9597
24	37309	304.858278869187	9578
24	37314	304.871352529284	9562
24	37321	304.929189246159	9491
24	37324	304.936564654441	9482
24	37332	304.965036638392	9448
24	37337	304.974763604344	9436
24	37343	305.027723784718	9371
24	37352	305.177768413427	9189
24	37357	305.24806565874	9103
24	37366	305.446584416136	8861
24	37369	305.454484201713	8852
24	37376	305.465570394116	8838
24	37379	305.473490738085	8829
24	37387	305.494878477828	8803
24	37392	305.574326561946	8706
24	37398	305.610483727827	8662
24	37404	305.655969612342	8607
24	37409	305.712408839317	8538
24	37414	305.730869799497	8515
24	37419	305.739921430793	8504
24	37425	305.757252224263	8483
24	37430	305.788786556504	8435
24	37441	305.89187721859	8278
24	37449	306.07637561685	8137
24	37455	306.119236925684	8178
24	37462	306.202392753768	8256
24	37465	306.210871435939	8264
24	37472	306.220057618064	8273
24	37478	306.241447344437	8293
24	37483	306.27838239101	8328
24	37489	306.323713871606	8371
24	37494	306.377655159099	8422
24	37499	306.414767864331	8457
24	37504	306.42554583761	8467
24	37507	306.433813228658	8475
24	37514	306.447607900171	8488
24	37521	306.46798798145	8507
24	37526	306.517263953246	8554
24	37531	306.525447259302	8561
24	37538	306.612548801203	8644
24	37547	306.744753770048	8769
24	37556	306.826740904489	8846
24	37562	306.854966940302	8873
24	37567	306.93084785582	8944
24	37573	307.005196603602	9014
24	37578	307.019288723486	9028
24	37585	307.082217022657	9087
24	37592	307.120657976391	9123
24	37597	307.13700683276	9139
24	37603	307.170835429006	9171
24	37609	307.252078479877	9248
24	37617	307.37120811019	9360
24	37622	307.407355544045	9394
24	37627	307.418485683792	9405
24	37632	307.442350946716	9427
24	37637	307.478909249428	9462
24	37644	307.565480905154	9532
24	37652	307.683593947388	9573
24	37660	307.770706883589	9603
24	37666	307.783029556973	9607
24	37674	307.839615622215	9627
24	37679	307.906807149213	9650
24	37684	307.935373390213	9660
24	37690	307.953271310997	9667
24	37695	307.998104517793	9682
24	37696	308	9683
24	37728	308.505334428968	9859
24	37729	308.512434540541	9862
24	37732	308.519532492275	9864
24	37736	308.526629004846	9867
24	37739	308.533723359766	9869
24	37742	308.540816276982	9871
24	37745	308.547907757075	9874
24	37748	308.554997082576	9876
24	37764	308.66095416427	9832
24	37768	308.668073773709	9815
24	37778	308.783023369646	9526
24	37784	308.828640603448	9411
24	37789	308.889429076214	9259
24	37795	308.96603194775	9066
24	37800	308.978917667773	9034
24	37805	308.988380146158	9010
24	37812	309.014780147573	8944
24	37827	309.108732050907	9135
24	37832	309.132262154955	9185
24	37839	309.190551053719	9309
24	37846	309.273793772071	9486
24	37856	309.378931609151	9709
24	37864	309.442470825592	9844
24	37869	309.452901435402	9866
24	37876	309.485976044574	9868
24	37886	309.602386628004	8825
24	37898	309.706933780871	9854
24	37901	309.714037495099	9840
24	37912	309.809554957858	9653
24	37915	309.816806589475	9639
24	37922	309.884469856151	9507
24	37928	309.898238792407	9480
24	37933	309.906176833953	9464
24	37940	309.962616555962	9354
24	37946	310.014746046562	9252
24	37953	310.050278239039	9182
24	37958	310.083896866776	9116
24	37963	310.096077344079	9093
24	37966	310.103775573486	9078
24	37974	310.114845530239	9056
24	37980	310.149447600148	8988
24	37986	310.19326474577	8902
24	37998	310.360926264542	8574
24	38003	310.384453147706	8528
24	38009	310.396536063578	8505
24	38012	310.404766516253	8488
24	38021	310.445732539623	8408
24	38028	310.542561690041	8219
24	38034	310.564055213986	8177
24	38043	310.650242229834	8008
24	38051	310.738974666076	8097
24	38056	310.767232929993	8128
24	38059	310.775845134717	8137
24	38067	310.883867450106	8252
24	38076	310.944738628455	8317
24	38085	311.00265180304	8379
24	38090	311.011006021921	8388
24	38095	311.019351277047	8397
24	38098	311.027687587634	8406
24	38109	311.094295252464	8477
24	38119	311.201962881908	8592
24	38127	311.247928382928	8641
24	38130	311.256029297174	8650
24	38141	311.302100449214	8699
24	38146	311.315563189229	8714
24	38152	311.348493695771	8734
24	38157	311.37462633663	8686
24	38163	311.421815925661	8598
24	38170	311.466914050043	8515
24	38194	311.779290123243	9321
24	38201	311.796460414026	9279
24	38207	311.808121748198	9316
24	38214	311.848093434322	9444
24	38218	311.855505547833	9447
24	38226	311.877991582753	9439
24	38234	311.931490779126	9418
24	38239	311.95214666519	9410
24	38242	311.959585559983	9407
24	38250	311.999482547188	9392
24	38251	312	9392
24	38746	316	9240
24	39188	320	8650
24	39622	324	9223
24	40093	328	9451
24	40542	332	9211
24	41001	336	8673
24	41504	340	8402
24	42089	344	9464
24	42617	348	9662
24	43137	352	8962
24	43640	356	9091
24	44104	360	8625
24	44633	364	9819
24	45024	368	8270
24	45557	372	8637
24	46050	376	9814
24	46054	376.041704065297	9818
24	46059	376.049926289394	9819
24	46064	376.065011531244	9821
24	46069	376.175115054379	9832
24	46076	376.206775365692	9835
24	46083	376.234540611786	9838
24	46090	376.284929454066	9843
24	46097	376.314390733109	9846
24	46103	376.331001532047	9848
24	46106	376.338109574289	9849
24	46113	376.346192934794	9849
24	46118	376.36380556144	9851
24	46123	376.379613350192	9853
24	46134	376.492414191047	9864
24	46142	376.534362570078	9869
24	46147	376.57990240421	9873
24	46150	376.586992447763	9874
24	46158	376.644371035982	9880
24	46164	376.711275493929	9887
24	46170	376.732099316938	9889
24	46175	376.751842742907	9891
24	46178	376.758919883742	9891
24	46186	376.795632951563	9895
24	46195	376.963479570317	9912
24	46202	377.003405360984	9916
24	46207	377.020237323751	9918
24	46213	377.042184331151	9920
24	46216	377.049240782764	9921
24	46223	377.076979918127	9924
24	46228	377.09462052269	9926
24	46234	377.162266565538	9933
24	46239	377.197990695074	9936
24	46242	377.205035783641	9937
24	46250	377.2331603482	9940
24	46264	377.404963030781	9815
24	46269	377.455811924086	9757
24	46275	377.527486016722	9676
24	46280	377.545742063494	9655
24	46283	377.552992192961	9647
24	46291	377.621506017373	9569
24	46299	377.705453627316	9472
24	46306	377.858954798465	9294
24	46315	377.953446542543	9184
24	46321	378.038189502244	9086
24	46328	378.109751695162	9003
24	46333	378.134442662727	8975
24	46339	378.189341735195	8945
24	46344	378.209929795743	8951
24	46349	378.246306511632	8961
24	46354	378.26998951517	8968
24	46360	378.305466012747	8978
24	46365	378.33319884638	8986
24	46370	378.34626930652	8990
24	46376	378.36197475606	8995
24	46386	378.525669315818	9041
24	46394	378.709362032704	9094
24	46399	378.727585612182	9099
24	46404	378.764511202122	9109
24	46413	378.870955312054	8243
24	46418	378.897462022666	8296
24	46423	378.918105190759	8338
24	46429	378.955294926486	8413
24	46435	378.965016623696	8433
24	46440	378.973317347045	8449
24	46444	378.981602351188	8461
24	46451	378.992786308224	8464
24	46456	379.002714603337	8467
24	46461	379.082483721021	8492
24	46466	379.136648441883	8509
24	46471	379.254819667418	8546
24	46478	379.318784218755	8570
24	46484	379.350842519022	8599
24	46490	379.390859830901	8636
24	46493	379.398965435348	8643
24	46500	379.41851116909	8661
24	46510	379.545828457993	8778
24	46517	379.603933188466	8831
24	46524	379.663466398995	8886
24	46528	379.671343959202	8893
24	46537	379.81323176067	9023
24	46542	379.853880119968	9061
24	46547	379.870713940872	9076
24	46553	379.946313627419	9126
24	46558	379.962859710406	9118
24	46562	380	9101
24	47038	384	9195
24	47476	388	9114
24	48125	392	8793
24	48582	396	8836
24	49038	400	8322

