version 2
run Exponential-capacity-13-20210216-13:45:45-23596
attr configname Exponential-capacity
attr datetime 20210216-13:45:45
attr experiment Exponential-capacity
attr inifile aerocom.ini
attr iterationvars "$0=0.5, $1=50, $2=0.5, $3=0.5"
attr iterationvarsf 0.5,50,0.5,0.5-
attr measurement "$0=0.5, $1=50, $2=0.5, $3=0.5"
attr network Aerocom
attr processid 23596
attr repetition 1
attr replication #1
attr resultdir results
attr runnumber 13
attr seedset 1
param **.t 0.5s
param **.k 50ms
param **.X 0.5s
param **.m 0.5s
param **.tDistribution "\"exponential\""
param **.operationMode 0
param **.s "70 byte"
param **.dimPoolMax 10000
param **.dimPoolMin 8000
param **.nDL 10
param **.nA 1
param **.DLMaxCapacity 0
param **.trasmitting false

vector 0 Aerocom.aircraft[0].dataLink[0] actualCapacity:vector ETV
attr "" ""
attr source computeActualCapacity
vector 1 Aerocom.aircraft[0].dataLink[1] actualCapacity:vector ETV
attr "" ""
attr source computeActualCapacity
vector 2 Aerocom.aircraft[0].dataLink[2] actualCapacity:vector ETV
attr "" ""
attr source computeActualCapacity
vector 3 Aerocom.aircraft[0].dataLink[3] actualCapacity:vector ETV
attr "" ""
attr source computeActualCapacity
vector 4 Aerocom.aircraft[0].dataLink[4] actualCapacity:vector ETV
attr "" ""
attr source computeActualCapacity
vector 5 Aerocom.aircraft[0].dataLink[5] actualCapacity:vector ETV
attr "" ""
attr source computeActualCapacity
vector 6 Aerocom.aircraft[0].dataLink[6] actualCapacity:vector ETV
attr "" ""
attr source computeActualCapacity
vector 7 Aerocom.aircraft[0].dataLink[7] actualCapacity:vector ETV
attr "" ""
attr source computeActualCapacity
vector 8 Aerocom.aircraft[0].dataLink[8] actualCapacity:vector ETV
attr "" ""
attr source computeActualCapacity
vector 9 Aerocom.aircraft[0].dataLink[9] actualCapacity:vector ETV
attr "" ""
attr source computeActualCapacity
vector 10 Aerocom.aircraft[0].linkSelector responseTime:vector ETV
attr "" ""
attr source computeResponseTime
vector 11 Aerocom.aircraft[0].dataLink[2] tDistribution:vector ETV
attr "" ""
attr source computeTDistribution
vector 12 Aerocom.aircraft[0].dataLink[7] tDistribution:vector ETV
attr "" ""
attr source computeTDistribution
vector 13 Aerocom.aircraft[0].dataLink[4] tDistribution:vector ETV
attr "" ""
attr source computeTDistribution
vector 14 Aerocom.aircraft[0].dataLink[3] tDistribution:vector ETV
attr "" ""
attr source computeTDistribution
vector 15 Aerocom.aircraft[0].packetGenerator arrivalTime:vector ETV
attr "" ""
attr source computeArrivalTime
vector 16 Aerocom.aircraft[0].linkSelector waitingTime:vector ETV
attr "" ""
attr source computeWaitingTime
vector 17 Aerocom.aircraft[0].linkSelector queueLength:vector ETV
attr "" ""
attr source computeQueueLength
vector 18 Aerocom.aircraft[0].linkSelector serviceTime:vector ETV
attr "" ""
attr source computeServiceTime
vector 19 Aerocom.aircraft[0].dataLink[6] tDistribution:vector ETV
attr "" ""
attr source computeTDistribution
vector 20 Aerocom.aircraft[0].dataLink[9] tDistribution:vector ETV
attr "" ""
attr source computeTDistribution
vector 21 Aerocom.aircraft[0].dataLink[5] tDistribution:vector ETV
attr "" ""
attr source computeTDistribution
vector 22 Aerocom.aircraft[0].dataLink[1] tDistribution:vector ETV
attr "" ""
attr source computeTDistribution
vector 23 Aerocom.aircraft[0].dataLink[0] tDistribution:vector ETV
attr "" ""
attr source computeTDistribution
vector 24 Aerocom.aircraft[0].dataLink[8] tDistribution:vector ETV
attr "" ""
attr source computeTDistribution
0	1368	10	9537
0	1445	10.5	9776
0	1448	10.541349194667	9796
0	1451	10.548494968452	9799
0	1460	10.598883052641	9823
0	1463	10.606009185187	9827
0	1468	10.613132417099	9830
0	1493	11	9524
0	1559	11.5	8897
0	1595	12	8333
0	1656	12.5	8078
0	1687	13	8067
0	1736	13.5	8055
0	1798	14	8044
0	1860	14.5	8034
0	1928	15	8265
0	1974	15.5	8497
0	2021	16	8707
0	2076	16.5	8886
0	2136	17	9066
0	2200	17.5	9245
0	2269	18	9719
0	2303	18.5	9578
0	2373	19	9376
0	2444	19.5	9174
0	2505	20	8972
0	2584	20.5	8770
0	2659	21	8665
0	2779	21.5	8200
0	2826	22	8917
0	2911	22.5	9476
0	2969	23	9302
0	3055	23.5	9589
0	3061	23.537499008499	9559
0	3066	23.544821950229	9553
0	3069	23.552149491316	9547
0	3074	23.55948163754	9541
0	3082	23.592016648992	9514
0	3088	23.653234980256	9465
0	3098	23.733956556732	9399
0	3103	23.741404157541	9393
0	3106	23.74885651568	9387
0	3113	23.758236905863	9379
0	3121	23.849524462908	9305
0	3130	24	9182
0	3184	24.5	8775
0	3221	25	8368
0	3280	25.5	8141
0	3334	26	8687
0	3409	26.5	9198
0	3470	27	9048
0	3531	27.5	8898
0	3579	28	9257
0	3615	28.5	9646
0	3664	29	9005
0	3739	29.5	9305
0	3796	30	8846
0	3852	30.5	9418
0	3856	30.528290807053	9444
0	3862	30.567464039108	9482
0	3867	30.586854978035	9500
0	3872	30.627605736697	9538
0	3878	30.654464149118	9564
0	3887	30.755922347406	9660
0	3892	30.798248776002	9700
0	3897	30.828323835976	9728
0	3902	30.838185471805	9738
0	3908	30.876468739681	9774
0	3914	30.936542945821	9831
0	3921	30.995257773078	9887
0	3922	31	9891
0	3930	31.025134982092	9882
0	3933	31.032218568411	9878
0	3940	31.056410861553	9862
0	3945	31.084685980814	9844
0	3955	31.254841263908	8750
0	3958	31.262841263908	8686
0	3965	31.270900209337	8622
0	3968	31.279018975285	8557
0	3979	31.334504282304	8113
0	3983	31.34313241	8062
0	3990	31.384057170236	8063
0	3995	31.395824710593	8063
0	4000	31.422086985549	8064
0	4005	31.434294957127	8064
0	4010	31.443287161426	8064
0	4016	31.479595942707	8065
0	4020	31.5	8066
0	4083	32	8078
0	4139	32.5	8091
0	4218	33	8103
0	4272	33.5	8116
0	4331	34	8128
0	4403	34.5	8141
0	4451	35	8136
0	4532	35.5	8126
0	4561	36	9613
0	4566	36.196262432196	9279
0	4571	36.282083308172	9014
0	4578	36.391892359208	9025
0	4584	36.434424614889	9037
0	4587	36.442170548274	9039
0	4592	36.449914767767	9041
0	4599	36.462148536317	9045
0	4605	36.5	9055
0	4662	37	9230
0	4726	37.5	9363
0	4793	38	9405
0	4883	38.5	9588
0	4921	39	9063
0	4996	39.5	8685
0	5075	40	9888
0	5078	40.031203236475	9877
0	5083	40.045969148327	9872
0	5090	40.111430953012	9848
0	5095	40.11981228322	9845
0	5100	40.147404725926	9836
0	5106	40.186821986439	9821
0	5112	40.217257906763	9810
0	5120	40.375136555289	9754
0	5126	40.478515011031	9717
0	5130	40.5	9709
0	5133	40.518567331752	9702
0	5140	40.541099969061	9694
0	5148	40.603560900871	9672
0	5155	40.670537704882	9648
0	5163	40.742006545476	9622
0	5173	40.998369791824	9506
0	5174	41	9505
0	5180	41.017409596536	9497
0	5187	41.146795375056	9435
0	5190	41.154214558946	9432
0	5198	41.190463013123	9414
0	5203	41.228101086447	9396
0	5208	41.24630127215	9388
0	5211	41.253757599376	9384
0	5219	41.302135509639	9361
0	5222	41.309613343204	9357
0	5230	41.364477065213	9331
0	5235	41.374192932541	9327
0	5241	41.411621937502	9309
0	5246	41.457015972942	9287
0	5251	41.477903736602	9277
0	5255	41.5	9266
0	5337	42	8115
0	5415	42.5	9413
0	5468	43	9568
0	5538	43.5	9496
0	5541	43.500111152029	9496
0	5548	43.68958864849	9188
0	5554	43.724382280655	9131
0	5559	43.773242447223	9051
0	5567	43.927359304905	8801
0	5570	43.935312946537	8788
0	5578	43.99766373812	8686
0	5579	44	8682
0	5632	44.5	8430
0	5693	45	9025
0	5781	45.5	9337
0	5857	46	9115
0	5910	46.5	8894
0	5963	47	8672
0	6011	47.5	9195
0	6084	48	8597
0	6174	48.5	8739
0	6221	49	8172
0	6299	49.5	9070
0	6360	50	9909
0	6411	50.5	9770
0	6415	50.531020404001	9761
0	6421	50.622322848985	9736
0	6426	50.670209140933	9723
0	6431	50.737439882321	9704
0	6435	50.744653402519	9702
0	6440	50.751868409734	9700
0	6448	50.851283733072	9673
0	6453	50.879118363217	9665
0	6456	50.886360991256	9663
0	6463	50.936572879133	9649
0	6468	50.993270228259	9633
0	6469	51	9631
0	6543	51.5	8974
0	6615	52	8293
0	6669	52.5	8432
0	6730	53	9755
0	6805	53.5	9022
0	6837	54	9120
0	6919	54.5	9219
0	6975	55	9318
0	7021	55.5	9683
0	7024	55.576243259142	9789
0	7029	55.659526906043	9905
0	7035	55.690957291768	9948
0	7039	55.697993882037	9954
0	7044	55.705026230842	9946
0	7052	55.727841560534	9922
0	7057	55.747038883963	9902
0	7062	55.761352489081	9887
0	7068	55.7687428809	9879
0	7073	55.828037280008	9817
0	7078	55.883565211922	9759
0	7083	55.937952798021	9701
0	7087	56	9636
0	7091	56.03409944652	9600
0	7096	56.06508668571	9568
0	7099	56.072402739222	9560
0	7107	56.128743298329	9501
0	7110	56.13611094384	9493
0	7119	56.321269065021	9299
0	7124	56.334115644306	9285
0	7127	56.341654685771	9277
0	7135	56.35050209731	9268
0	7140	56.391856151163	9224
0	7143	56.399445049689	9216
0	7150	56.448413914387	9165
0	7155	56.469402079515	9143
0	7160	56.5	9111
0	7211	57	8454
0	7275	57.5	9496
0	7337	58	9375
0	7415	58.5	9937
0	7419	58.503532512045	9936
0	7424	58.648974298294	9925
0	7429	58.675026723646	9923
0	7435	58.711986348835	9920
0	7440	58.770032005885	9915
0	7447	58.81654938121	9912
0	7453	58.845940795373	9909
0	7458	58.901734799415	9905
0	7464	58.936770643721	9902
0	7468	59	9897
0	7471	59.013172837358	9896
0	7474	59.020246402435	9896
0	7482	59.094307351147	9857
0	7487	59.114945237812	9834
0	7494	59.143671792866	9803
0	7499	59.155247501138	9790
0	7505	59.192644590149	9750
0	7512	59.25983269132	9676
0	7519	59.289758197341	9643
0	7522	59.297017349057	9636
0	7529	59.380643207297	9544
0	7537	59.428602589358	9487
0	7542	59.5	9374
0	7608	60	8583
0	7646	60.5	8237
0	7698	61	9090
0	7771	61.5	8573
0	7835	62	8483
0	7913	62.5	9356
0	7972	63	9310
0	8060	63.5	8856
0	8126	64	9151
0	8205	64.5	9716
0	8267	65	8319
0	8323	65.5	8991
0	8371	66	9189
0	8438	66.5	8922
0	8510	67	8730
0	8580	67.5	9590
0	8640	68	9489
0	8643	68.004328977275	9487
0	8649	68.046744896742	9465
0	8655	68.063124569664	9457
0	8660	68.070526494164	9454
0	8665	68.077930767487	9450
0	8668	68.085338174894	9446
0	8678	68.138984148394	9419
0	8683	68.162806653694	9408
0	8690	68.282901589943	9348
0	8695	68.312751348689	9333
0	8700	68.343834948701	9317
0	8706	68.366179557892	9306
0	8713	68.450313393176	9264
0	8717	68.5	9240
0	8800	69	8654
0	8851	69.5	8910
0	8934	70	8272
0	9009	70.5	8373
0	9081	71	8592
0	9159	71.5	9012
0	9212	72	9722
0	9216	72.058335252318	9618
0	9221	72.065988053253	9604
0	9226	72.109000231061	9527
0	9229	72.116347769636	9514
0	9234	72.123705347942	9501
0	9239	72.131072993453	9488
0	9246	72.139597374336	9473
0	9253	72.252899628029	9396
0	9259	72.301384492983	9380
0	9264	72.316573186725	9375
0	9270	72.5	9314
0	9319	73	9147
0	9411	73.5	8703
0	9490	74	8689
0	9531	74.5	8886
0	9574	75	9082
0	9623	75.5	9278
0	9689	76	9475
0	9751	76.5	9408
0	9840	77	8438
0	9888	77.5	8595
0	9957	78	8823
0	10042	78.5	9212
0	10108	79	8494
0	10164	79.5	8538
0	10217	80	8953
0	10293	80.5	9335
0	10318	81	8250
0	10376	81.5	8943
0	10440	82	8411
0	10509	82.5	8275
0	10562	83	8139
0	10609	83.5	8873
0	10647	84	8777
0	10720	84.5	8682
0	10814	85	8586
0	10888	85.5	8815
0	10941	86	9415
0	10995	86.5	8496
0	11061	87	9200
0	11140	87.5	8987
0	11188	88	8875
0	11252	88.5	8964
0	11310	89	8830
0	11353	89.5	8696
0	11405	90	8562
0	11468	90.5	8429
0	11486	91	9134
0	11556	91.5	9359
0	11625	92	8493
0	11694	92.5	8472
0	11738	93	9606
0	11804	93.5	9312
0	11893	94	9060
0	11951	94.5	8572
0	12021	95	9525
0	12090	95.5	8970
0	12154	96	9267
0	12211	96.5	8437
0	12265	97	8418
0	12346	97.5	8899
0	12388	98	9154
0	12466	98.5	8980
0	12518	99	8782
0	12578	99.5	8177
0	12659	100	8526
0	12736	100.5	9035
0	12785	101	9305
0	12859	101.5	8329
0	12938	102	9227
0	12998	102.5	9260
0	13041	103	9056
0	13078	103.5	8852
0	13158	104	9069
0	13215	104.5	8296
0	13280	105	9411
0	13321	105.5	9701
0	13327	105.511014351773	9697
0	13333	105.566805333655	9674
0	13338	105.575627853297	9671
0	13345	105.632976108967	9634
0	13350	105.686973663022	9459
0	13355	105.715425525471	9366
0	13362	105.798532937412	9160
0	13368	105.824132422573	9350
0	13375	105.886365095321	9319
0	13381	105.904427615912	9310
0	13384	105.911946412904	9306
0	13392	105.983294263258	9270
0	13395	105.990845503819	9266
0	13401	106	9262
0	13516	106.5	9184
0	13592	107	9733
0	13648	107.5	9820
0	13652	107.528152997776	9825
0	13659	107.54330937466	9827
0	13667	107.62455693252	9841
0	13673	107.637332717963	9844
0	13680	107.658913582343	9847
0	13685	107.697031960893	9854
0	13693	107.791000834478	9870
0	13698	107.806304336084	9873
0	13709	107.934548658712	9895
0	13714	108	9906
0	13717	108.001796359525	9907
0	13720	108.008862070638	9908
0	13729	108.078773803514	9920
0	13734	108.171223002734	9936
0	13740	108.234758453315	9947
0	13743	108.241795750993	9948
0	13751	108.285570551766	9956
0	13758	108.321494958215	9962
0	13765	108.433412025512	9894
0	13771	108.5	9794
0	13775	108.543117742315	9729
0	13783	108.583334680536	9668
0	13788	108.614084654142	9621
0	13794	108.630652515379	9596
0	13800	108.65463615613	9560
0	13805	108.668211147888	9540
0	13812	108.72505136432	9454
0	13815	108.732455637643	9443
0	13820	108.739868536086	9431
0	13827	108.783458891935	9366
0	13833	108.903131972343	9185
0	13840	108.975582861987	9075
0	13844	109	9038
0	13910	109.5	9803
0	13913	109.503665427029	9801
0	13918	109.536986815682	9783
0	13921	109.544142085027	9779
0	13926	109.551300281162	9775
0	13935	109.596835234294	9750
0	13940	109.607974527027	9744
0	13943	109.615158435073	9740
0	13951	109.682248239424	9704
0	13956	109.703644778021	9692
0	13961	109.741752702453	9671
0	13967	109.824528635099	9626
0	13972	109.879505984494	9596
0	13977	109.92905365511	9569
0	13984	109.938006644925	9564
0	13989	109.961498026368	9551
0	13993	110	9530
0	14032	110.5	9161
0	14114	111	8530
0	14159	111.5	9040
0	14206	112	9301
0	14247	112.5	9347
0	14296	113	9242
0	14360	113.5	9471
0	14363	113.524263664425	9428
0	14366	113.531688356831	9415
0	14373	113.578272354472	9333
0	14376	113.585772622339	9320
0	14385	113.775215035703	8986
0	14390	113.802129364434	8939
0	14395	113.83789925128	8876
0	14402	113.92223029926	8727
0	14407	113.934322815015	8706
0	14413	114	8590
0	14469	114.5	9492
0	14548	115	9472
0	14632	115.5	9358
0	14709	116	9098
0	14773	116.5	9582
0	14836	117	9894
0	14840	117.091722396446	9852
0	14843	117.098827552759	9849
0	14851	117.153322369749	9825
0	14856	117.172681870097	9816
0	14861	117.18274304919	9811
0	14868	117.261322339695	9776
0	14874	117.326245362267	9747
0	14879	117.367277966293	9728
0	14884	117.409871416635	9709
0	14889	117.453319804244	9690
0	14894	117.5	9669
0	14898	117.559010812458	9650
0	14904	117.683606849647	9643
0	14910	117.760369034478	9639
0	14913	117.767631198603	9639
0	14922	117.841928320099	9635
0	14929	118	9627
0	14991	118.5	9601
0	15048	119	9575
0	15109	119.5	9550
0	15161	120	9524
0	15181	120.5	9498
0	15257	121	8161
0	15329	121.5	8219
0	15406	122	8277
0	15428	122.5	8336
0	15476	123	8394
0	15539	123.5	8453
0	15576	124	8511
0	15644	124.5	9294
0	15719	125	8989
0	15767	125.5	8864
0	15836	126	9145
0	15892	126.5	9497
0	15975	127	9850
0	15984	127.071534944088	9879
0	15989	127.110049362553	9875
0	15995	127.124091667139	9873
0	15998	127.131181710692	9872
0	16005	127.153969464653	9869
0	16017	127.25958578243	9856
0	16024	127.326956944911	9848
0	16029	127.353983571219	9845
0	16035	127.364004313558	9844
0	16044	127.39983845535	9839
0	16047	127.406952999511	9838
0	16056	127.5	9827
0	16059	127.571575962494	9818
0	16066	127.603372873557	9814
0	16074	127.73580602526	9588
0	16077	127.743106817917	9572
0	16085	127.804440019591	9437
0	16091	127.831684042585	9377
0	16097	127.896454736558	9234
0	16102	128	9006
0	16144	128.5	8250
0	16190	129	8688
0	16240	129.5	9046
0	16341	130	9340
0	16429	130.5	8378
0	16487	131	8581
0	16576	131.5	8784
0	16649	132	8987
0	16713	132.5	9029
0	16775	133	8555
0	16823	133.5	9000
0	16882	134	8714
0	16928	134.5	8695
0	16989	135	8289
0	17060	135.5	8106
0	17155	136	9436
0	17248	136.5	8783
0	17301	137	8087
0	17352	137.5	8323
0	17421	138	8292
0	17474	138.5	8018
0	17523	139	8034
0	17585	139.5	8051
0	17641	140	8373
0	17693	140.5	8677
0	17747	141	8973
0	17803	141.5	9387
0	17890	142	8653
0	17975	142.5	9697
0	17978	142.509113443143	9690
0	17984	142.579815751195	9630
0	17989	142.589132247745	9622
0	17995	142.6124257122	9602
0	17998	142.619715860086	9596
0	18005	142.629384633608	9588
0	18011	142.832533116014	9465
0	18014	142.839928784265	9461
0	18019	142.847327579318	9457
0	18024	142.854729503818	9453
0	18032	142.918973409019	9417
0	18037	142.938828876632	9406
0	18043	142.968752158478	9389
0	18048	143	9372
0	18110	143.5	9071
0	18182	144	9740
0	18191	144.184583030529	9547
0	18196	144.218252427375	9494
0	18204	144.344799546176	9366
0	18209	144.374722221629	9348
0	18215	144.413461910394	9324
0	18218	144.420969417902	9319
0	18224	144.5	9271
0	18299	145	9052
0	18349	145.5	9299
0	18433	146	9070
0	18512	146.5	8688
0	18593	147	8467
0	18674	147.5	8847
0	18785	148	9228
0	18847	148.5	9244
0	18910	149	9761
0	18913	149.014060098216	9751
0	18929	149.2707568941	9569
0	18932	149.278072183054	9564
0	18937	149.285391296396	9559
0	18942	149.292714238126	9554
0	18955	149.42012931764	9463
0	18960	149.431817107563	9455
0	18965	149.446331579785	9445
0	18971	149.453853889013	9439
0	18976	149.494947453248	9410
0	18977	149.5	9407
0	19037	150	9052
0	19095	150.5	8698
0	19135	151	8344
0	19209	151.5	8351
0	19303	152	8235
0	19391	152.5	9024
0	19449	153	8073
0	19486	153.5	8146
0	19556	154	8219
0	19628	154.5	8293
0	19722	155	8366
0	19777	155.5	8883
0	19835	156	9656
0	19899	156.5	8416
0	19930	157	9298
0	19987	157.5	9040
0	20059	158	8585
0	20143	158.5	9161
0	20256	159	9754
0	20299	159.5	9568
0	20357	160	8378
0	20412	160.5	8558
0	20493	161	8956
0	20534	161.5	9147
0	20634	162	8948
0	20690	162.5	8611
0	20733	163	9438
0	20793	163.5	9621
0	20877	164	9730
0	20880	164.00405157287	9728
0	20886	164.014516750406	9723
0	20891	164.052669573151	9705
0	20897	164.149202141195	9658
0	20905	164.290507995774	9589
0	20910	164.340218037563	9565
0	20913	164.347536385707	9562
0	20921	164.442974411003	9516
0	20926	164.49004145556	9493
0	20931	164.5	9488
0	20988	165	9246
0	21060	165.5	9113
0	21140	166	9166
0	21184	166.5	9442
0	21261	167	9818
0	21264	167.018586828377	9835
0	21268	167.025704266099	9836
0	21275	167.108730642043	9834
0	21280	167.137020012767	9833
0	21285	167.155319757459	9832
0	21292	167.211559867204	9830
0	21297	167.247432532625	9829
0	21304	167.330386053872	9826
0	21310	167.393958003349	9824
0	21316	167.438940343295	9823
0	21322	167.48066254623	9822
0	21326	167.5	9821
0	21330	167.52994321587	9820
0	21338	167.638095677699	9817
0	21343	167.666218864905	9816
0	21348	167.676796270115	9815
0	21353	167.769447074846	9812
0	21361	167.860960968538	9809
0	21367	167.89609655785	9808
0	21370	167.903233588845	9808
0	21377	167.938801121709	9807
0	21382	167.958901226319	9806
0	21387	167.977983179803	9806
0	21394	168	9805
0	21399	168.078590328937	9802
0	21405	168.153328204631	9800
0	21410	168.191282426441	9799
0	21415	168.250517727108	9797
0	21421	168.382125317682	9793
0	21426	168.448785104696	9790
0	21431	168.497492381704	9789
0	21432	168.5	9789
0	21439	168.583804948675	9786
0	21445	168.662794065383	9783
0	21452	168.681737024863	9783
0	21457	168.695093733339	9782
0	21462	168.710589644459	9782
0	21468	168.744264844376	9781
0	21473	168.752873368348	9781
0	21479	168.785383903523	9780
0	21484	168.805284108389	9779
0	21490	168.822737321404	9778
0	21496	168.898704560836	9776
0	21501	168.929663117428	9775
0	21504	168.936824242748	9775
0	21512	168.986778462451	9773
0	21515	168.993941053262	9773
0	21518	169	9773
0	21527	169.125104624045	9769
0	21532	169.139356203518	9768
0	21540	169.177957983877	8776
0	21544	169.185934282874	8788
0	21549	169.188892294208	8793
0	21552	169.193899690248	8800
0	21563	169.214667742359	8832
0	21570	169.231164349837	8857
0	21575	169.249445300071	8884
0	21582	169.262313924116	8904
0	21587	169.277241152104	8926
0	21592	169.285239067901	8938
0	21599	169.314328281785	8982
0	21611	169.472328296177	9220
0	21616	169.491321451715	9249
0	21621	169.5	9262
0	21694	170	9036
0	21744	170.5	8380
0	21821	171	8717
0	21902	171.5	8545
0	21968	172	8894
0	22007	172.5	9400
0	22012	172.562128921895	9375
0	22017	172.569595588562	9371
0	22025	172.605165749565	9349
0	22031	172.661436876977	9314
0	22034	172.668952444939	9309
0	22044	172.815473776231	9275
0	22051	172.854332581823	9276
0	22057	172.888744202952	9276
0	22060	172.89629055914	9276
0	22067	172.911875409359	9276
0	22075	172.94831600301	9277
0	22080	173	9277
0	22152	173.5	8442
0	22204	174	9444
0	22275	174.5	9371
0	22352	175	9235
0	22408	175.5	9345
0	22474	176	8495
0	22563	176.5	8158
0	22658	177	8379
0	22707	177.5	9216
0	22781	178	9336
0	22853	178.5	9456
0	22915	179	9576
0	22981	179.5	9695
0	23032	180	9782
0	23035	180.047565677486	9763
0	23041	180.077410399161	9751
0	23049	180.260568962684	9680
0	23054	180.29798654868	9666
0	23057	180.30522842743	9663
0	23064	180.313976593856	9659
0	23069	180.328602422646	9654
0	23075	180.430018593255	9614
0	23078	180.437299641726	9612
0	23086	180.481973001069	9594
0	23091	180.5	9587
0	23094	180.512235202427	9582
0	23097	180.519540566652	9580
0	23107	180.535209196664	9573
0	23113	180.604899564612	9546
0	23118	180.647321143074	9530
0	23128	180.894042741482	9434
0	23133	180.922595151652	9423
0	23138	181	9393
0	23179	181.5	9198
0	23228	182	9125
0	23323	182.5	9264
0	23389	183	9503
0	23392	183.011426780799	9505
0	23399	183.142425562642	9524
0	23405	183.181288918087	9530
0	23410	183.191749016814	9531
0	23415	183.241855400592	9539
0	23420	183.267506048014	9543
0	23426	183.294358578269	9546
0	23432	183.316648814225	9527
0	23439	183.384778483655	9470
0	23444	183.432677493626	9429
0	23448	183.5	9372
0	23539	184	8948
0	23573	184.5	8761
0	23635	185	9254
0	23725	185.5	9319
0	23798	186	9130
0	23838	186.5	8942
0	23907	187	8753
0	23966	187.5	9077
0	24019	188	8639
0	24070	188.5	8510
0	24132	189	8631
0	24172	189.5	8837
0	24224	190	9043
0	24286	190.5	8797
0	24374	191	8862
0	24450	191.5	8926
0	24525	192	8991
0	24572	192.5	9055
0	24659	193	9094
0	24704	193.5	9008
0	24747	194	9350
0	24832	194.5	9874
0	24836	194.568500321648	9859
0	24844	194.623193952837	9846
0	24854	194.746804774577	9818
0	24860	194.819570737961	9802
0	24866	194.854524233405	9794
0	24873	194.926961820794	9778
0	24877	195	9761
0	24880	195.023699407272	9756
0	24885	195.054320665931	9749
0	24890	195.071446909916	9745
0	24895	195.087485039987	9741
0	24903	195.181207159644	9691
0	24907	195.188430356425	9685
0	24914	195.201407465982	9676
0	24920	195.226399212908	9659
0	24929	195.266223430943	9631
0	24934	195.30082664473	9607
0	24939	195.320225154384	9593
0	24944	195.340099438842	9579
0	24949	195.357251394533	9567
0	24957	195.481410556053	9480
0	24962	195.5	9467
0	25016	196	9117
0	25087	196.5	8558
0	25143	197	8611
0	25221	197.5	9442
0	25280	198	8726
0	25337	198.5	8814
0	25426	199	8871
0	25502	199.5	9100
0	25577	200	8976
0	25653	200.5	9127
0	25707	201	8191
0	25764	201.5	8324
0	25835	202	8678
0	25884	202.5	8144
0	25920	203	8336
0	25990	203.5	8529
0	26055	204	8721
0	26110	204.5	8914
0	26171	205	9106
0	26235	205.5	9299
0	26280	206	9776
0	26284	206.030151091867	9750
0	26290	206.064004689881	9721
0	26293	206.070421324499	9716
0	26303	206.208732528428	9598
0	26308	206.218215758897	9590
0	26314	206.247132583257	9565
0	26319	206.279440899112	9537
0	26329	206.403438225818	9432
0	26336	206.44212136151	9399
0	26339	206.449568962319	9392
0	26350	206.47674592285	9369
0	26355	206.5	9349
0	26404	207	8737
0	26481	207.5	8238
0	26569	208	8588
0	26616	208.5	8939
0	26674	209	8152
0	26735	209.5	8601
0	26807	210	8589
0	26881	210.5	9593
0	26933	211	8907
0	27006	211.5	9015
0	27092	212	9122
0	27169	212.5	9229
0	27234	213	9337
0	27299	213.5	8290
0	27334	214	8736
0	27382	214.5	9188
0	27456	215	8409
0	27536	215.5	8927
0	27594	216	9359
0	27645	216.5	9121
0	27724	217	8882
0	27820	217.5	8629
0	27902	218	8334
0	27986	218.5	8362
0	28052	219	9413
0	28131	219.5	9385
0	28211	220	8907
0	28307	220.5	8909
0	28344	221	9122
0	28397	221.5	9342
0	28455	222	9384
0	28497	222.5	9924
0	28502	222.603807223454	9909
0	28508	222.654853142294	9897
0	28513	222.668974299835	9894
0	28516	222.676049294781	9893
0	28524	222.755573676434	9876
0	28530	222.822916668614	9861
0	28536	222.836164179975	9858
0	28546	222.981616804174	9827
0	28550	223	9823
0	28602	223.5	9714
0	28665	224	9327
0	28746	224.5	9419
0	28791	225	9793
0	28888	225.5	8948
0	28946	226	8485
0	28999	226.5	9016
0	29061	227	8132
0	29092	227.5	8835
0	29135	228	9611
0	29195	228.5	8813
0	29260	229	8993
0	29329	229.5	8643
0	29417	230	8771
0	29464	230.5	8821
0	29544	231	8741
0	29642	231.5	8629
0	29691	232	8517
0	29736	232.5	9578
0	29794	233	9481
0	29874	233.5	9384
0	29937	234	9288
0	29971	234.5	8880
0	30041	235	8377
0	30100	235.5	8179
0	30147	236	9067
0	30201	236.5	9637
0	30204	236.556001726335	9629
0	30213	236.713701032707	9607
0	30222	236.815439898506	9592
0	30227	236.849578596291	9587
0	30232	236.917049902739	9578
0	30237	236.9654455288	9571
0	30244	237	9566
0	30321	237.5	9495
0	30415	238	9424
0	30446	238.5	9352
0	30495	239	8940
0	30552	239.5	8859
0	30607	240	9328
0	30671	240.5	9782
0	30675	240.502959531544	9784
0	30682	240.53298323034	9811
0	30688	240.556470047228	9832
0	30693	240.595340892419	9867
0	30699	240.633375220097	9902
0	30705	240.66138752517	9927
0	30711	240.715309127857	9975
0	30718	240.785514865972	9014
0	30723	240.811390784833	8652
0	30728	240.840611162343	8242
0	30734	240.850487716484	8426
0	30739	240.872440894994	9558
0	30746	240.884772694547	9708
0	30754	240.915972652667	9406
0	30759	240.94914624721	9293
0	30764	240.957557348955	9265
0	30769	240.999986446007	9120
0	30770	241	9120
0	30848	241.5	8369
0	30914	242	8767
0	30995	242.5	9165
0	31069	243	9166
0	31133	243.5	8982
0	31180	244	8754
0	31272	244.5	8610
0	31329	245	8471
0	31414	245.5	8324
0	31467	246	8177
0	31535	246.5	8349
0	31589	247	9667
0	31684	247.5	9703
0	31739	248	8689
0	31809	248.5	8832
0	31862	249	8974
0	31900	249.5	8332
0	31954	250	8375
0	32010	250.5	8449
0	32100	251	8780
0	32167	251.5	9690
0	32215	252	8142
0	32262	252.5	8435
0	32315	253	8728
0	32396	253.5	9206
0	32399	253.525025991731	9240
0	32404	253.558987091372	9285
0	32411	253.624036365079	9371
0	32416	253.633868916356	9384
0	32421	253.720350859991	9499
0	32426	253.732515969307	9515
0	32431	253.749776056571	9538
0	32437	253.767996718609	9562
0	32442	253.84505814337	9665
0	32447	253.872817182484	9702
0	32453	253.903219017251	9742
0	32458	253.92710572488	9774
0	32466	254	9845
0	32470	254.059823524936	9653
0	32476	254.099558124206	9525
0	32483	254.120792140287	9456
0	32486	254.128194847563	9432
0	32493	254.137552126107	9402
0	32496	254.144997350527	9378
0	32503	254.162477905584	9322
0	32508	254.182066587	9259
0	32515	254.270858771502	8973
0	32521	254.300381871682	8878
0	32526	254.316747224966	8825
0	32532	254.5	8235
0	32597	255	8764
0	32665	255.5	9253
0	32722	256	8831
0	32773	256.5	8253
0	32825	257	8366
0	32893	257.5	8588
0	32938	258	8345
0	33009	258.5	8121
0	33059	259	8508
0	33127	259.5	8553
0	33173	260	8598
0	33217	260.5	8674
0	33280	261	8979
0	33346	261.5	9496
0	33443	262	9100
0	33501	262.5	8527
0	33561	263	8519
0	33627	263.5	8510
0	33691	264	8658
0	33725	264.5	8931
0	33766	265	9296
0	33814	265.5	9742
0	33819	265.5198716465	9090
0	33826	265.607345898242	9320
0	33831	265.62307047604	9362
0	33836	265.630547510862	9382
0	33840	265.638008606577	9401
0	33845	265.645454622958	9421
0	33852	265.693174099725	9546
0	33857	265.722458037975	9623
0	33862	265.73660431542	9661
0	33867	265.760374956432	9723
0	33872	265.778353084733	9770
0	33877	265.819830414603	9880
0	33883	265.836755694828	9924
0	33889	265.891106931401	9789
0	33896	266	9634
0	33899	266.000552431578	9635
0	33904	266.017363455229	9643
0	33910	266.068149968632	9669
0	33913	266.075389600445	9673
0	33920	266.08262623851	9676
0	33925	266.089860632888	9680
0	33932	266.142565154604	9707
0	33938	266.169054950622	9720
0	33943	266.285419089422	9779
0	33955	266.414430169596	9817
0	33960	266.5	9824
0	33964	266.517196895845	9825
0	33969	266.565491980697	9829
0	33974	266.666183416186	9838
0	33979	266.692061021444	9840
0	33985	266.72297804309	9843
0	33993	266.808620573622	9850
0	33999	266.840914069335	9606
0	34007	267	8018
0	34057	267.5	8359
0	34110	268	8936
0	34159	268.5	9351
0	34228	269	8815
0	34306	269.5	8444
0	34368	270	8488
0	34465	270.5	8532
0	34537	271	8576
0	34591	271.5	8620
0	34648	272	9273
0	34710	272.5	8332
0	34768	273	9144
0	34839	273.5	8367
0	34893	274	8690
0	34943	274.5	8705
0	35009	275	8361
0	35065	275.5	8126
0	35134	276	8988
0	35186	276.5	9332
0	35259	277	8407
0	35338	277.5	8726
0	35401	278	9127
0	35446	278.5	9527
0	35511	279	9460
0	35556	279.5	9267
0	35598	280	9509
0	35611	280.23390833408	8981
0	35616	280.280917085602	8875
0	35619	280.288804409546	8857
0	35626	280.305002170246	8821
0	35630	280.312937778454	8803
0	35638	280.328045779183	8769
0	35643	280.338148510329	8746
0	35648	280.454723945986	8483
0	35651	280.462975743699	8464
0	35657	280.5	8381
0	35719	281	8452
0	35768	281.5	9193
0	35819	282	8901
0	35883	282.5	8802
0	35947	283	9180
0	36002	283.5	8752
0	36045	284	9343
0	36096	284.5	9348
0	36170	285	8831
0	36248	285.5	8531
0	36331	286	9266
0	36410	286.5	8608
0	36482	287	8862
0	36536	287.5	8851
0	36597	288	8643
0	36664	288.5	8461
0	36711	289	8321
0	36769	289.5	8181
0	36838	290	8082
0	36911	290.5	8242
0	36939	291	8997
0	37021	291.5	9771
0	37082	292	9292
0	37159	292.5	8813
0	37216	293	8374
0	37292	293.5	8614
0	37372	294	9621
0	37425	294.5	9397
0	37492	295	8843
0	37534	295.5	8610
0	37599	296	8736
0	37662	296.5	9022
0	37712	297	9425
0	37739	297.5	9605
0	37787	298	9683
0	37838	298.5	9761
0	37841	298.56134169953	9771
0	37848	298.666150607563	9787
0	37853	298.68353252701	9790
0	37859	298.726395501646	9796
0	37866	298.769462333943	9803
0	37871	298.816879161599	9811
0	37877	298.856695956489	9817
0	37882	298.867606536472	9819
0	37888	298.893268741436	9823
0	37893	298.904010500196	9824
0	37898	298.922509780176	9827
0	37901	298.929633012088	9828
0	37909	298.96811270043	9834
0	37914	299	9805
0	37918	299.0804246873	9656
0	37927	299.158864348086	9511
0	37934	299.231375385543	9377
0	37942	299.298822856884	9252
0	37949	299.360266048333	9164
0	37954	299.376060275309	9156
0	37958	299.5	9089
0	38043	300	8821
0	38092	300.5	8553
0	38153	301	9115
0	38218	301.5	9159
0	38268	302	9204
0	38323	302.5	9249
0	38371	303	9294
0	38433	303.5	9179
0	38530	304	9368
0	38565	304.5	9375
0	38641	305	9289
0	38690	305.5	9546
0	38750	306	9368
0	38840	306.5	8434
0	38889	307	9550
0	38960	307.5	9185
0	39017	308	9264
0	39074	308.5	9560
0	39141	309	9744
0	39199	309.5	9543
0	39255	310	9176
0	39329	310.5	9262
0	39376	311	9348
0	39462	311.5	8939
0	39525	312	9196
0	39613	312.5	9813
0	39683	313	8622
0	39737	313.5	8431
0	39789	314	8997
0	39853	314.5	9796
0	39864	314.689976084809	9867
0	39867	314.697070439729	9845
0	39875	314.755645100253	9664
0	39881	314.828986377247	9438
0	39886	314.851638397465	9368
0	39889	314.859110643409	9345
0	39899	314.983415177094	8961
0	39904	314.99866191545	8914
0	39905	315	8909
0	39955	315.5	8528
0	39997	316	8881
0	40061	316.5	8608
0	40106	317	9853
0	40110	317.020257785914	9827
0	40118	317.137937436776	9676
0	40121	317.145171831154	9666
0	40131	317.27064982618	9505
0	40134	317.278014371156	9496
0	40143	317.376256534552	9372
0	40151	317.44017174781	9391
0	40156	317.45116369775	9394
0	40162	317.463497650502	9397
0	40168	317.475029430064	9401
0	40173	317.5	9408
0	40228	318	9555
0	40278	318.5	9685
0	40325	319	9691
0	40328	319.014229329535	9691
0	40333	319.025784370059	9691
0	40336	319.03300756684	9691
0	40344	319.067683540065	9691
0	40349	319.076536155328	9691
0	40354	319.109087430483	9692
0	40360	319.183787762328	9693
0	40366	319.28337700506	9694
0	40371	319.314278725248	9695
0	40376	319.339942117465	9695
0	40381	319.356305333948	9696
0	40387	319.376259604814	9696
0	40394	319.4629268597	9699
0	40398	319.5	9700
0	40448	320	9713
0	40540	320.5	9581
0	40574	321	9002
0	40602	321.5	8867
0	40660	322	8733
0	40712	322.5	8406
0	40792	323	8508
0	40836	323.5	8618
0	40899	324	8487
0	40950	324.5	8399
0	41040	325	8620
0	41108	325.5	9668
0	41161	326	9816
0	41212	326.5	9658
0	41286	327	8079
0	41334	327.5	8230
0	41384	328	9498
0	41418	328.5	9802
0	41421	328.50869829895	9808
0	41427	328.53102374255	9821
0	41435	328.603731043256	9510
0	41440	328.637203502909	9329
0	41443	328.644706986669	9289
0	41450	328.680228317966	9097
0	41455	328.780060829351	8559
0	41458	328.78823935488	8515
0	41467	328.809669026822	8400
0	41473	328.868629741094	8183
0	41478	328.916543608713	8134
0	41486	329	8097
0	41534	329.5	8998
0	41606	330	9473
0	41662	330.5	9262
0	41718	331	8488
0	41806	331.5	9843
0	41809	331.504609140838	9842
0	41815	331.538397148794	9838
0	41822	331.568819212217	9834
0	41830	331.770216098286	9810
0	41835	331.857324899931	9799
0	41840	331.88185148246	9796
0	41843	331.888997256245	9795
0	41850	331.915377515958	9792
0	41855	332	9781
0	41859	332.086928160065	9771
0	41867	332.161439922266	9761
0	41874	332.272546618332	9748
0	41877	332.279727578529	9747
0	41885	332.312779722407	9743
0	41890	332.323985459972	9741
0	41896	332.346399575031	9739
0	41901	332.371029860902	9736
0	41907	332.472347407326	9723
0	41912	332.488258924121	9721
0	41916	332.5	9720
0	41993	333	9647
0	42055	333.5	9457
0	42058	333.506856112223	9454
0	42066	333.568520825462	8624
0	42074	333.643965716085	8056
0	42077	333.652654891855	8062
0	42085	333.674050005807	8076
0	42091	333.718129743674	8107
0	42097	333.780111291832	8149
0	42105	333.89269464252	8226
0	42111	333.901204246216	8232
0	42114	333.904754686258	8235
0	42122	333.920769286378	8246
0	42127	333.930604076314	8252
0	42132	333.959098310905	8272
0	42138	334	8300
0	42196	334.5	8643
0	42242	335	8987
0	42302	335.5	9134
0	42344	336	9023
0	42427	336.5	9056
0	42469	337	8877
0	42519	337.5	8416
0	42602	338	9383
0	42668	338.5	9220
0	42731	339	9399
0	42792	339.5	9649
0	42795	339.509101896052	9643
0	42800	339.566951599718	9602
0	42805	339.623657716668	9563
0	42814	339.79494498727	9444
0	42817	339.802357100781	9438
0	42825	339.866095130713	9394
0	42828	339.873546695542	9389
0	42833	339.881002228613	9384
0	42838	339.888461734154	9378
0	42846	339.911080908076	9363
0	42856	339.96536206182	9321
0	42861	340	9261
0	42939	340.5	8999
0	43029	341	8473
0	43107	341.5	8325
0	43183	342	8178
0	43261	342.5	8030
0	43310	343	8151
0	43359	343.5	9700
0	43362	343.504656821956	9693
0	43369	343.578518547546	9577
0	43374	343.605001586999	9536
0	43380	343.622177763357	9509
0	43385	343.655211029239	9457
0	43392	343.665890686245	9440
0	43397	343.691636699319	9400
0	43402	343.718868379933	9357
0	43409	343.758472102582	9295
0	43414	343.767807551175	9281
0	43419	343.783495256904	9256
0	43424	343.791057918961	9244
0	43427	343.798630398407	9232
0	43432	343.806212720764	9221
0	43437	343.813804088295	9209
0	43445	343.855865066832	9143
0	43451	343.895717834986	9080
0	43456	343.95298264407	8991
0	43461	343.977389594227	8952
0	43466	343.992747759344	8928
0	43467	344	8917
0	43530	344.5	8833
0	43569	345	9644
0	43608	345.5	8403
0	43669	346	9078
0	43789	346.5	9337
0	43874	347	9369
0	43914	347.5	9078
0	43947	348	9306
0	44014	348.5	9444
0	44076	349	8716
0	44143	349.5	9766
0	44206	350	9034
0	44284	350.5	9623
0	44359	351	9444
0	44410	351.5	9144
0	44489	352	8526
0	44560	352.5	8250
0	44603	353	8568
0	44671	353.5	9312
0	44776	354	9124
0	44834	354.5	9694
0	44837	354.502718483917	9694
0	44843	354.522971046585	9690
0	44848	354.556741720235	9684
0	44853	354.564479042504	9682
0	44858	354.598511616042	9676
0	44865	354.680817667313	9660
0	44881	354.844459095275	9629
0	44891	355	9600
0	44961	355.5	9376
0	45025	356	8964
0	45097	356.5	8895
0	45161	357	8610
0	45216	357.5	9111
0	45297	358	9081
0	45379	358.5	8616
0	45424	359	8195
0	45480	359.5	9009
0	45516	360	8958
0	45575	360.5	8939
0	45627	361	9197
0	45722	361.5	8562
0	45785	362	8671
0	45841	362.5	8563
0	45924	363	9464
0	45978	363.5	9458
0	45981	363.540592561604	9446
0	45987	363.639192457759	9418
0	45992	363.665833746669	9410
0	45997	363.686937089044	9404
0	46003	363.69894228535	9401
0	46008	363.717545692217	9395
0	46011	363.724996463904	9393
0	46018	363.732448822043	9391
0	46028	363.86847532166	9352
0	46034	363.889253069824	9346
0	46043	363.936049297794	9333
0	46048	363.944161829964	9330
0	46055	363.976868783562	9321
0	46059	364	9314
0	46118	364.5	9954
0	46121	364.504924081424	9972
0	46130	364.598951011114	9610
0	46135	364.616938456256	9534
0	46140	364.6289671922	9483
0	46145	364.651813653499	9387
0	46150	364.717766463923	9110
0	46155	364.864405305159	8494
0	46162	364.896296543216	8434
0	46165	364.904596282367	8443
0	46172	365	8556
0	46246	365.5	9948
0	46255	365.659295211129	9934
0	46262	365.707926596789	9930
0	46267	365.722822580684	9928
0	46274	365.751226650531	9926
0	46279	365.759990640496	9925
0	46286	365.800799681459	9922
0	46295	365.931260843112	9847
0	46300	366	9801
0	46303	366.025698071665	9783
0	46310	366.210425767056	9658
0	46315	366.263520470393	9622
0	46322	366.328331076137	9578
0	46327	366.407169570853	9525
0	46332	366.418620905054	9517
0	46337	366.429991349727	9509
0	46343	366.457486947385	9490
0	46347	366.5	9462
0	46392	367	9123
0	46440	367.5	9098
0	46471	368	8568
0	46537	368.5	8415
0	46612	369	9164
0	46678	369.5	9060
0	46752	370	9303
0	46841	370.5	9435
0	46916	371	9518
0	46987	371.5	9122
0	47033	372	8727
0	47102	372.5	8914
0	47173	373	8294
0	47217	373.5	8998
0	47265	374	9356
0	47316	374.5	8920
0	47365	375	8518
0	47415	375.5	8730
0	47492	376	8392
0	47570	376.5	8444
0	47633	377	8496
0	47708	377.5	8548
0	47755	378	8538
0	47823	378.5	8741
0	47895	379	8929
0	47948	379.5	9116
0	48006	380	9304
0	48076	380.5	9498
0	48126	381	9721
0	48129	381.038519533313	9724
0	48134	381.101932381945	9729
0	48143	381.234049983808	9740
0	48148	381.243302080574	9741
0	48155	381.286284460211	9745
0	48163	381.417187497136	9756
0	48168	381.425591227059	9756
0	48174	381.5	9763
0	48178	381.525334049104	9765
0	48183	381.562907739381	9768
0	48188	381.603168227777	9771
0	48194	381.631642591674	9754
0	48199	381.661574096253	9583
0	48206	381.67660658038	9497
0	48212	381.699200245635	9369
0	48219	381.766707099858	9246
0	48224	381.838713870583	9201
0	48230	381.894712469438	9216
0	48236	381.934047019747	9297
0	48241	382	9433
0	48322	382.5	9889
0	48328	382.544894559317	9891
0	48335	382.575734149172	9893
0	48340	382.587177290109	9894
0	48347	382.7012060953	9899
0	48353	382.717805667648	9900
0	48361	382.772235962866	9902
0	48367	382.792126783118	9903
0	48370	382.799195348199	9904
0	48379	382.837225052881	9906
0	48385	382.908979637638	9909
0	48390	382.935859117514	9910
0	48395	383	9914
0	48398	383.020452283446	9914
0	48405	383.060196388218	9916
0	48412	383.150780791876	9921
0	48425	383.354685687771	9931
0	48430	383.364320410053	9931
0	48435	383.403526471047	9933
0	48443	383.470116399292	9936
0	48446	383.477161487859	9937
0	48453	383.5	9938
0	48458	383.561694938968	9941
0	48465	383.667418259154	9946
0	48471	383.731576738255	9949
0	48478	383.821662945444	9953
0	48481	383.828696000804	9954
0	48493	383.905725074572	9957
0	48498	383.939077042093	9959
0	48503	383.972913848939	9961
0	48507	384	9962
0	48512	384.18257173544	9971
0	48519	384.276336885757	9975
0	48524	384.330200817773	9978
0	48529	384.362190713028	9979
0	48536	384.440989176493	9983
0	48540	384.5	9986
0	48544	384.52085566882	9987
0	48550	384.532840831027	9988
0	48555	384.592049980988	9991
0	48563	384.667610409528	8581
0	48569	384.710589948353	8220
0	48577	384.861869363337	8815
0	48580	384.86981037298	8846
0	48589	384.940210924644	9123
0	48592	384.947883839255	9153
0	48599	384.962109312199	9209
0	48605	384.998643864346	9114
0	48606	385	9081
0	48667	385.5	8141
0	48746	386	8145
0	48791	386.5	8149
0	48846	387	8153
0	48890	387.5	9056
0	48973	388	8787
0	49066	388.5	8517
0	49173	389	8370
0	49256	389.5	8797
0	49321	390	9224
0	49361	390.5	8818
0	49418	391	8083
0	49505	391.5	8708
0	49582	392	9337
0	49644	392.5	8423
0	49700	393	8721
0	49753	393.5	8211
0	49823	394	9078
0	49888	394.5	9572
0	49966	395	9312
0	50015	395.5	8320
0	50066	396	9497
0	50100	396.5	9523
0	50159	397	9225
0	50228	397.5	8927
0	50293	398	9150
0	50375	398.5	8458
0	50428	399	9878
0	50435	399.075494573682	9791
0	50445	399.252126991281	9588
0	50450	399.299136673873	9534
0	50456	399.339764137192	9487
0	50462	399.380120619792	9441
0	50467	399.40513249985	9412
0	50472	399.42632735532	9387
0	50477	399.447407576172	9363
0	50480	399.454883812421	9355
0	50488	399.5	9303
0	50536	400	8727
1	1368	10	8926
1	1445	10.5	8872
1	1493	11	9596
1	1559	11.5	9516
1	1595	12	8561
1	1656	12.5	8033
1	1687	13	8065
1	1736	13.5	9233
1	1798	14	9492
1	1860	14.5	9544
1	1928	15	9693
1	1974	15.5	9679
1	2021	16	9177
1	2076	16.5	8911
1	2136	17	8819
1	2200	17.5	9641
1	2269	18	9450
1	2303	18.5	9055
1	2373	19	8661
1	2444	19.5	9406
1	2505	20	9720
1	2510	20.074892443984	9720
1	2516	20.104404844628	9720
1	2523	20.122678182596	9719
1	2526	20.129880569673	9719
1	2533	20.142910890629	9719
1	2536	20.150113277706	9719
1	2543	20.158859552095	9719
1	2549	20.197554931107	9719
1	2554	20.224814268933	9718
1	2558	20.232017397149	9718
1	2563	20.239220525365	9718
1	2568	20.246423653581	9718
1	2582	20.493168772283	9569
1	2584	20.5	9550
1	2659	21	8334
1	2779	21.5	8798
1	2826	22	9315
1	2911	22.5	8670
1	2969	23	8385
1	3055	23.5	8274
1	3130	24	8404
1	3184	24.5	9326
1	3221	25	9775
1	3225	25.031403184315	9755
1	3232	25.051740203233	9744
1	3237	25.061208614442	9740
1	3244	25.154191999738	9698
1	3249	25.242330757367	9658
1	3254	25.26839789287	9646
1	3257	25.275654786919	9642
1	3267	25.367659095814	9601
1	3273	25.468511996809	9555
1	3280	25.5	9541
1	3284	25.54807373077	9519
1	3292	25.604423792545	9493
1	3295	25.611797646964	9490
1	3302	25.639533590718	9477
1	3307	25.702363443351	9449
1	3312	25.758035058887	9423
1	3319	25.846594691049	9383
1	3324	25.877438130219	9369
1	3329	25.927799970246	9346
1	3334	26	9313
1	3409	26.5	9230
1	3470	27	9551
1	3531	27.5	9128
1	3579	28	8933
1	3615	28.5	8605
1	3664	29	8113
1	3739	29.5	9321
1	3796	30	8963
1	3852	30.5	8905
1	3922	31	8015
1	4020	31.5	8278
1	4083	32	8592
1	4139	32.5	8778
1	4218	33	8492
1	4272	33.5	8789
1	4331	34	9086
1	4403	34.5	9384
1	4451	35	9503
1	4532	35.5	9411
1	4561	36	8847
1	4605	36.5	8283
1	4662	37	9471
1	4726	37.5	9439
1	4793	38	8817
1	4883	38.5	8406
1	4921	39	8757
1	4996	39.5	8257
1	5075	40	8936
1	5130	40.5	8723
1	5174	41	8980
1	5255	41.5	8661
1	5337	42	8343
1	5415	42.5	8366
1	5468	43	8546
1	5538	43.5	8348
1	5579	44	8195
1	5632	44.5	8916
1	5693	45	8558
1	5781	45.5	9017
1	5857	46	9321
1	5910	46.5	9363
1	5963	47	9404
1	6011	47.5	9417
1	6084	48	8874
1	6174	48.5	9317
1	6221	49	9860
1	6299	49.5	8902
1	6360	50	9039
1	6411	50.5	9756
1	6469	51	9680
1	6543	51.5	9150
1	6615	52	8210
1	6669	52.5	8590
1	6730	53	9220
1	6805	53.5	9769
1	6812	53.626677764196	9819
1	6815	53.633806799739	9810
1	6823	53.701595926808	9725
1	6828	53.816570704326	9581
1	6837	54	9592
1	6919	54.5	9625
1	6975	55	9445
1	7021	55.5	9181
1	7087	56	8917
1	7160	56.5	8582
1	7211	57	8245
1	7275	57.5	9010
1	7337	58	8613
1	7415	58.5	9436
1	7468	59	9409
1	7542	59.5	9171
1	7608	60	8738
1	7646	60.5	8306
1	7698	61	9009
1	7771	61.5	8205
1	7835	62	8914
1	7913	62.5	9653
1	7916	62.517052262533	9679
1	7922	62.628865157006	9844
1	7927	62.650840947862	9876
1	7934	62.659138399739	9889
1	7937	62.66621697189	9899
1	7945	62.699241218953	9741
1	7951	62.756335954764	9409
1	7956	62.805004408825	9273
1	7961	62.826974897996	9212
1	7968	62.976408322278	8794
1	7972	63	8728
1	8060	63.5	9918
1	8063	63.512696693901	9914
1	8068	63.535462719583	9906
1	8074	63.591294844279	9886
1	8081	63.652335078506	9864
1	8088	63.721571662403	9840
1	8094	63.800000532752	9812
1	8099	63.813622493252	9807
1	8104	63.826386686003	9802
1	8107	63.833528085717	9800
1	8114	63.844606967255	9796
1	8119	63.864565936713	9789
1	8126	64	9741
1	8205	64.5	9563
1	8267	65	9341
1	8276	65.200580896024	9246
1	8279	65.208151737469	9242
1	8290	65.275152857164	8152
1	8297	65.314631131952	8144
1	8303	65.332006836825	8141
1	8309	65.355276549612	8136
1	8319	65.486443493475	8216
1	8323	65.5	8242
1	8371	66	9202
1	8438	66.5	9492
1	8441	66.515429603246	9478
1	8444	66.522815127618	9471
1	8453	66.590383136739	9411
1	8463	66.670082190541	9258
1	8466	66.677643218841	9242
1	8476	66.760713732224	9064
1	8484	66.839975254267	8894
1	8490	66.86163017758	8847
1	8495	66.882855487214	8802
1	8501	66.931518053252	8698
1	8510	67	8551
1	8580	67.5	8567
1	8640	68	8965
1	8717	68.5	9357
1	8722	68.578107656039	9418
1	8727	68.598043195351	9434
1	8734	68.616718254636	9387
1	8739	68.641003383802	9286
1	8745	68.726652560839	8930
1	8752	68.743898617675	8858
1	8760	68.851067583139	8413
1	8765	68.868541096908	8340
1	8770	68.895894320238	8227
1	8776	68.937090056553	8102
1	8779	68.945729898567	8106
1	8786	68.957125467712	8112
1	8791	68.977693841206	8123
1	8794	68.986311347054	8127
1	8800	69	8134
1	8851	69.5	8393
1	8934	70	8638
1	9009	70.5	8882
1	9081	71	9126
1	9159	71.5	9053
1	9212	72	8923
1	9270	72.5	8793
1	9319	73	9861
1	9323	73.029721162851	9867
1	9328	73.041079612322	9870
1	9333	73.076103630702	9877
1	9339	73.127376693776	9888
1	9345	73.148094539887	9892
1	9350	73.174808138944	9898
1	9356	73.181880274729	9899
1	9359	73.188951696085	9900
1	9366	73.210715611366	9905
1	9373	73.247040380968	9891
1	9378	73.261570007264	9834
1	9383	73.296984128346	9694
1	9387	73.304205089765	9666
1	9396	73.418770849418	9214
1	9400	73.426367984213	9184
1	9407	73.483313380467	8960
1	9411	73.5	8894
1	9490	74	9287
1	9495	74.181186914069	9515
1	9502	74.243198760956	9593
1	9508	74.320927257359	9691
1	9515	74.359506863231	9740
1	9520	74.371234547399	9755
1	9527	74.439033461516	9840
1	9531	74.5	9917
1	9574	75	9393
1	9623	75.5	9016
1	9689	76	8357
1	9751	76.5	8968
1	9840	77	9224
1	9888	77.5	9250
1	9957	78	9328
1	10042	78.5	9406
1	10108	79	9210
1	10164	79.5	9115
1	10217	80	8868
1	10293	80.5	8741
1	10318	81	8748
1	10376	81.5	8793
1	10440	82	9926
1	10444	82.009447827804	9937
1	10450	82.026451343292	9913
1	10455	82.041489787066	9892
1	10461	82.099438580076	9811
1	10471	82.208020907957	9658
1	10477	82.223519411777	9636
1	10484	82.300359843529	9528
1	10489	82.353203428568	9454
1	10495	82.39829764231	9423
1	10500	82.413124282334	9429
1	10505	82.444085797126	9440
1	10509	82.5	9460
1	10562	83	9640
1	10609	83.5	9820
1	10647	84	9715
1	10720	84.5	9135
1	10814	85	8555
1	10888	85.5	8899
1	10941	86	8595
1	10995	86.5	8007
1	11061	87	8278
1	11140	87.5	8557
1	11188	88	8837
1	11252	88.5	8663
1	11310	89	8527
1	11353	89.5	9054
1	11405	90	9542
1	11409	90.101424164437	9574
1	11412	90.108735632998	9576
1	11421	90.16209597148	9351
1	11424	90.169581801872	9348
1	11433	90.303483289464	9286
1	11441	90.367855537188	9478
1	11446	90.381103843554	9551
1	11451	90.393007539456	9616
1	11457	90.435789995293	9638
1	11460	90.443052912911	9639
1	11468	90.5	9646
1	11473	90.689560008667	9672
1	11480	90.787186609113	9685
1	11486	91	9713
1	11556	91.5	9780
1	11559	91.593700393431	9793
1	11566	91.660659167255	9802
1	11571	91.704642706246	9808
1	11577	91.821804546223	9823
1	11583	91.84402824533	9826
1	11594	91.902026753226	9819
1	11600	91.921849745172	9806
1	11605	91.935436863359	9798
1	11611	91.944901382001	9792
1	11614	91.952050074811	9787
1	11621	91.959707729448	9782
1	11625	92	9757
1	11629	92.036857421624	9734
1	11634	92.091935096853	9699
1	11639	92.100162563867	9694
1	11645	92.117030358425	9683
1	11652	92.226668702524	9614
1	11657	92.245721715883	9602
1	11664	92.287532466878	9576
1	11671	92.380777648325	9517
1	11676	92.398202169291	9506
1	11679	92.405565939541	9501
1	11688	92.473301770278	9458
1	11694	92.5	9442
1	11738	93	8156
1	11804	93.5	9735
1	11807	93.580173339747	9716
1	11813	93.616755383212	9707
1	11816	93.623966674033	9705
1	11824	93.67349420815	9693
1	11830	93.682136382451	9691
1	11838	93.706859753978	9685
1	11843	93.755110412421	9673
1	11848	93.781394109891	9667
1	11853	93.796492830891	9663
1	11858	93.808622372976	9660
1	11866	93.857783684959	9648
1	11871	93.866888409463	9646
1	11876	93.895697371018	9639
1	11881	93.944440664175	9627
1	11887	93.971742161911	9621
1	11893	94	9614
1	11904	94.155638511858	9591
1	11909	94.162937020877	9592
1	11912	94.170234769	9592
1	11923	94.359782878523	9607
1	11929	94.413275649378	9611
1	11933	94.420558970572	9611
1	11940	94.459663376312	9614
1	11945	94.475677387911	9616
1	11951	94.5	9617
1	12021	95	9656
1	12024	95.016498900132	9657
1	12031	95.100268645177	9663
1	12038	95.156277130764	9667
1	12043	95.172605592594	9669
1	12046	95.179845224407	9669
1	12053	95.20257063335	9671
1	12059	95.288819289057	9678
1	12065	95.305961556108	9679
1	12070	95.375277645369	9684
1	12076	95.433254603167	9689
1	12081	95.47906568486	9692
1	12086	95.492466947949	9693
1	12090	95.5	9694
1	12154	96	9732
1	12157	96.072640160616	9737
1	12162	96.114515570852	9741
1	12168	96.133805292538	9742
1	12173	96.200234221537	9747
1	12176	96.207415918469	9748
1	12181	96.214596878666	9748
1	12186	96.221777838863	9749
1	12196	96.268065116104	9752
1	12201	96.292777001564	9754
1	12207	96.412402334398	9685
1	12211	96.5	9508
1	12265	97	8497
1	12346	97.5	9560
1	12355	97.598067086301	9402
1	12364	97.722021107259	9203
1	12369	97.734906592755	9183
1	12374	97.767585041105	9130
1	12379	97.825445063421	9037
1	12388	98	8757
1	12466	98.5	8452
1	12518	99	8314
1	12578	99.5	9417
1	12659	100	8915
1	12736	100.5	9439
1	12785	101	9537
1	12859	101.5	9768
1	12862	101.525485257585	9788
1	12865	101.532636871806	9793
1	12873	101.551354870797	9807
1	12878	101.565993204168	9818
1	12886	101.695971927111	9385
1	12889	101.70343063782	9347
1	12897	101.714317379334	9291
1	12903	101.73453533073	9188
1	12908	101.770332446955	9006
1	12913	101.780830943173	8952
1	12919	101.866719538623	8514
1	12926	101.918615135516	9185
1	12933	101.985440649781	9293
1	12938	102	9216
1	12998	102.5	8006
1	13041	103	8157
1	13078	103.5	9294
1	13158	104	9208
1	13215	104.5	9020
1	13280	105	9724
1	13287	105.19617655492	9623
1	13293	105.272670720214	9583
1	13298	105.28054576903	9579
1	13303	105.296521501396	9571
1	13308	105.318918223006	9560
1	13311	105.326240398738	9556
1	13319	105.493167451903	9470
1	13321	105.5	9466
1	13401	106	9209
1	13516	106.5	8951
1	13592	107	8694
1	13648	107.5	8436
1	13714	108	8180
1	13771	108.5	8536
1	13844	109	9677
1	13910	109.5	9089
1	13993	110	9146
1	14032	110.5	9342
1	14114	111	9538
1	14159	111.5	9734
1	14165	111.54935543268	9753
1	14172	111.597472321259	9772
1	14177	111.60750054001	9776
1	14187	111.81165566562	9856
1	14196	111.881633218202	9883
1	14206	112	9795
1	14247	112.5	9868
1	14256	112.682097213639	9897
1	14261	112.762288394171	9909
1	14266	112.824783653534	9919
1	14272	112.870063035829	9926
1	14277	112.887963727469	9929
1	14285	112.945935516398	9883
1	14290	112.953624694597	9876
1	14296	113	9831
1	14360	113.5	9354
1	14413	114	8876
1	14469	114.5	8729
1	14548	115	9175
1	14632	115.5	9621
1	14709	116	9965
1	14714	116.058113074297	9830
1	14722	116.202707396837	9414
1	14727	116.227525903337	9391
1	14730	116.234979848604	9383
1	14738	116.271666532474	9348
1	14743	116.315874076642	9306
1	14748	116.350372188809	9273
1	14755	116.410735656757	9215
1	14758	116.418331967121	9208
1	14769	116.471275697198	9157
1	14773	116.5	9130
1	14836	117	8735
1	14894	117.5	9203
1	14929	118	9672
1	14991	118.5	9685
1	15048	119	9363
1	15109	119.5	8463
1	15161	120	9258
1	15181	120.5	9984
1	15184	120.515188630537	9983
1	15190	120.540870360597	9983
1	15195	120.585536297641	9982
1	15198	120.592548920362	9982
1	15205	120.607578586669	9982
1	15214	120.655567424094	9981
1	15220	120.681500681204	9980
1	15228	120.758224446639	9979
1	15237	120.903591008614	9976
1	15242	120.924835738073	9976
1	15248	120.954450676109	9975
1	15251	120.961468219969	9975
1	15257	121	9974
1	15260	121.077813390249	9973
1	15265	121.100223702715	9972
1	15268	121.107243357749	9972
1	15277	121.178290504964	9971
1	15282	121.215827036705	9970
1	15287	121.247526719968	9969
1	15294	121.26704696466	9969
1	15297	121.274068732139	9969
1	15304	121.292919674052	9969
1	15310	121.352886423389	9967
1	15315	121.378580545948	9967
1	15320	121.394016975767	9967
1	15325	121.481168977763	9965
1	15329	121.5	9965
1	15332	121.521007593246	9964
1	15339	121.577417718106	9963
1	15345	121.605152358262	9963
1	15351	121.697408918025	9961
1	15356	121.708338280762	9961
1	15363	121.839453273825	9958
1	15368	121.864566710795	9958
1	15373	121.883637433346	9957
1	15379	121.899197174185	9957
1	15384	121.919905104611	9957
1	15390	121.958553840748	9956
1	15396	121.981570307626	9955
1	15401	121.989681819077	9955
1	15406	122	9955
1	15413	122.163462521709	9952
1	15423	122.466121396328	9946
1	15428	122.5	9946
1	15432	122.564723968429	9944
1	15437	122.653018103021	9943
1	15445	122.68061811023	9547
1	15455	122.745806808106	8625
1	15461	122.782957847537	9179
1	15466	122.797402701264	9395
1	15472	122.870618207179	9910
1	15476	123	9828
1	15479	123.023716260696	9812
1	15486	123.139563523557	9739
1	15493	123.320969673946	9623
1	15499	123.353635524728	9602
1	15502	123.360925672614	9598
1	15512	123.436976145049	9549
1	15518	123.451494315478	9540
1	15523	123.460289816646	9534
1	15526	123.467631960552	9530
1	15533	123.477379808187	9524
1	15538	123.494789675694	9512
1	15539	123.5	9509
1	15546	123.552739935495	9476
1	15551	123.631088203276	9426
1	15556	123.642739567143	9418
1	15561	123.849644036214	9287
1	15567	123.952491481997	9221
1	15572	123.990384716353	9197
1	15576	124	9191
1	15644	124.5	9642
1	15719	125	9741
1	15723	125.039111298887	9748
1	15727	125.046292259084	9750
1	15735	125.074869647534	9756
1	15740	125.154718001837	9771
1	15750	125.230551750904	9495
1	15756	125.268190441248	9333
1	15761	125.280814912562	9278
1	15767	125.5	8239
1	15836	126	9693
1	15892	126.5	9670
1	15898	126.505056866115	9698
1	15904	126.540217747504	9899
1	15910	126.607628397404	9901
1	15917	126.649104214648	9887
1	15920	126.656184218694	9885
1	15930	126.724864078792	9861
1	15937	126.778005697156	9843
1	15943	126.852441064454	9818
1	15948	126.871311409401	9812
1	15953	126.878445530885	9809
1	15956	126.88558183428	9807
1	15965	126.963357515726	9781
1	15971	126.981515263994	9774
1	15975	127	9768
1	16056	127.5	9684
1	16102	128	8627
1	16144	128.5	8237
1	16190	129	8837
1	16240	129.5	8775
1	16341	130	9266
1	16429	130.5	9441
1	16487	131	9277
1	16576	131.5	9726
1	16580	131.521814786189	9751
1	16595	131.640072089229	9599
1	16604	131.694534923673	9502
1	16609	131.718625227984	9459
1	16614	131.740938657503	9419
1	16620	131.798968414572	9315
1	16627	131.882370921541	9166
1	16632	131.89000784059	9152
1	16636	131.897656441989	9138
1	16644	131.959285896076	9028
1	16649	132	8955
1	16713	132.5	8595
1	16775	133	9833
1	16781	133.014580450857	9842
1	16786	133.091898200608	9887
1	16793	133.252238190443	9696
1	16798	133.285193921266	9420
1	16803	133.314520945136	9174
1	16811	133.371143802253	8699
1	16818	133.395753590666	8600
1	16823	133.5	8616
1	16882	134	8717
1	16928	134.5	8690
1	16989	135	8548
1	17060	135.5	8406
1	17155	136	8496
1	17248	136.5	8819
1	17301	137	8484
1	17352	137.5	9538
1	17421	138	9616
1	17474	138.5	9454
1	17523	139	9127
1	17585	139.5	9092
1	17641	140	9215
1	17693	140.5	8737
1	17747	141	9079
1	17803	141.5	9282
1	17890	142	9461
1	17975	142.5	9679
1	18048	143	9627
1	18051	143.025703413147	9625
1	18056	143.038766573831	9623
1	18062	143.073971904985	9620
1	18068	143.179973061759	9609
1	18073	143.287489034981	9598
1	18078	143.32431192563	9594
1	18084	143.331608152438	9593
1	18087	143.338905139825	9592
1	18095	143.377112133745	9588
1	18100	143.401222112404	9586
1	18106	143.488284343593	9577
1	18110	143.5	9576
1	18182	144	9253
1	18224	144.5	9101
1	18299	145	9211
1	18349	145.5	8700
1	18433	146	8188
1	18512	146.5	8537
1	18593	147	8191
1	18674	147.5	8518
1	18785	148	8231
1	18847	148.5	8161
1	18910	149	8091
1	18977	149.5	8071
1	19037	150	8225
1	19095	150.5	8433
1	19135	151	8934
1	19209	151.5	9377
1	19303	152	9048
1	19391	152.5	9602
1	19394	152.503551624322	9603
1	19399	152.563533856366	9624
1	19405	152.596667505354	9636
1	19410	152.614696121206	9643
1	19418	152.750149961844	9692
1	19423	152.791015984002	9707
1	19428	152.813899283035	9715
1	19434	152.876523836831	9737
1	19439	152.919278621808	9753
1	19444	152.976782866286	9774
1	19449	153	9782
1	19453	153.034864978775	9795
1	19459	153.129010347614	9829
1	19464	153.157572418586	9839
1	19473	153.273979707689	9881
1	19478	153.288882146349	9886
1	19486	153.5	9912
1	19489	153.544021634608	9861
1	19494	153.580886795385	9818
1	19499	153.615911412936	9777
1	19504	153.696251348556	9684
1	19509	153.714447067112	9662
1	19514	153.740868075662	9632
1	19520	153.815639143773	9545
1	19526	153.873886926057	9477
1	19530	153.88127322974	9468
1	19535	153.888666554624	9460
1	19542	153.901153121156	9445
1	19547	153.925857185016	9416
1	19552	153.9356965498	9405
1	19556	154	9330
1	19628	154.5	9029
1	19722	155	8982
1	19777	155.5	8832
1	19835	156	9072
1	19899	156.5	8463
1	19930	157	9036
1	19987	157.5	9050
1	20059	158	8614
1	20143	158.5	8422
1	20256	159	8745
1	20299	159.5	9176
1	20357	160	9096
1	20412	160.5	9017
1	20493	161	9792
1	20494	161	9792
1	20504	161.183133336701	9797
1	20512	161.270613855426	9799
1	20519	161.420565262418	9804
1	20524	161.443647448707	9804
1	20530	161.462148942255	9805
1	20534	161.5	9806
1	20538	161.558110386868	9808
1	20546	161.675592901445	9811
1	20553	161.682727750084	9811
1	20558	161.689862598723	9811
1	20561	161.690278381102	9811
1	20562	161.696997447362	9812
1	20572	161.715278210285	9812
1	20578	161.729275196088	9813
1	20583	161.776858346804	9814
1	20587	161.783991014422	9814
1	20595	161.836085386795	9816
1	20601	161.859916741778	9816
1	20607	161.876887351878	9817
1	20612	161.892926530972	9817
1	20620	161.943781425998	9819
1	20629	161.984560390451	9820
1	20634	162	9820
1	20637	162.010466926986	9821
1	20642	162.142346606824	9824
1	20648	162.151748934884	9825
1	20655	162.226613425955	9179
1	20658	162.234239529016	9173
1	20665	162.298468525213	9123
1	20672	162.31258152734	9111
1	20677	162.363799343674	9071
1	20684	162.475325982565	8984
1	20689	162.497106867299	8967
1	20690	162.5	8965
1	20733	163	9728
1	20793	163.5	9477
1	20877	164	9048
1	20931	164.5	9015
1	20988	165	9168
1	21060	165.5	8503
1	21140	166	8199
1	21184	166.5	8917
1	21261	167	9636
1	21326	167.5	9338
1	21394	168	9016
1	21432	168.5	8776
1	21518	169	8887
1	21621	169.5	9312
1	21694	170	9624
1	21744	170.5	8829
1	21821	171	8311
1	21902	171.5	9200
1	21968	172	9052
1	22007	172.5	9124
1	22080	173	9104
1	22152	173.5	9621
1	22155	173.50614247166	9628
1	22162	173.661865976868	9789
1	22168	173.69957495179	9828
1	22173	173.733816466965	9863
1	22179	173.82196221802	9945
1	22184	173.851477942029	9903
1	22191	173.876871391364	9868
1	22198	173.921182015438	9806
1	22204	174	9676
1	22207	174.03018783669	9372
1	22213	174.073736813267	8933
1	22220	174.104890916413	8619
1	22229	174.159358115725	8456
1	22234	174.223709105232	8477
1	22239	174.235932012192	8481
1	22244	174.267953563621	8491
1	22250	174.295455589808	8499
1	22257	174.363453843668	8521
1	22265	174.448971690038	8548
1	22270	174.464825437608	8553
1	22275	174.5	8564
1	22352	175	8723
1	22408	175.5	9738
1	22411	175.503664368706	9733
1	22417	175.532895797491	9690
1	22420	175.540119739699	9679
1	22427	175.552423212541	9661
1	22433	175.60169916687	9589
1	22436	175.608999198156	9578
1	22443	175.629967721244	9548
1	22448	175.665425274826	9496
1	22453	175.714975080067	9423
1	22461	175.845216091652	9232
1	22469	175.912234550879	9133
1	22474	176	9005
1	22563	176.5	9014
1	22658	177	9435
1	22707	177.5	9452
1	22781	178	8329
1	22853	178.5	8353
1	22915	179	8266
1	22981	179.5	8117
1	23032	180	9447
1	23091	180.5	9095
1	23138	181	9121
1	23179	181.5	8352
1	23228	182	9227
1	23231	182.007202411854	9239
1	23242	182.147963998789	9486
1	23248	182.172040329507	9528
1	23254	182.201264713118	9579
1	23259	182.210788718816	9596
1	23266	182.234234712076	9534
1	23269	182.241576855982	9453
1	23278	182.276722404713	9067
1	23284	182.30601773512	8745
1	23289	182.314346219904	8653
1	23293	182.322435899784	8565
1	23303	182.402975090372	8374
1	23306	182.411334297442	8422
1	23313	182.420741500401	8476
1	23318	182.432889320285	8546
1	23323	182.5	8931
1	23389	183	9152
1	23448	183.5	8414
1	23539	184	8713
1	23573	184.5	9551
1	23576	184.54157952102	9559
1	23584	184.56207726285	9563
1	23589	184.60034699214	9570
1	23595	184.633445426914	9576
1	23601	184.663503952135	9582
1	23604	184.67080931636	9584
1	23612	184.679632117076	9585
1	23620	184.787137970472	9605
1	23626	184.819392930067	9612
1	23634	184.993344740176	9644
1	23635	185	9646
1	23639	185.000603139181	9646
1	23647	185.070215632377	9659
1	23653	185.106018382159	9666
1	23660	185.215106398632	9686
1	23668	185.246865395011	9692
1	23673	185.256143396041	9694
1	23678	185.268545968139	9696
1	23683	185.290421527181	9700
1	23689	185.304820393328	9703
1	23694	185.312354640636	9705
1	23697	185.319567417555	9706
1	23702	185.326779451349	9707
1	23707	185.33399074217	9709
1	23715	185.352931995034	9712
1	23721	185.478907522382	9736
1	23725	185.5	9740
1	23730	185.517859044177	9743
1	23733	185.525043689563	9745
1	23743	185.605126681999	9742
1	23749	185.626917415759	9735
1	23756	185.728840303186	9701
1	23762	185.740469373415	9697
1	23768	185.754393966545	9692
1	23771	185.761616418051	9690
1	23788	185.862093958298	9656
1	23793	185.935541891734	9631
1	23798	186	9610
1	23802	186.053628060393	9592
1	23808	186.075465641855	9585
1	23813	186.122974006945	9569
1	23820	186.169963138964	9553
1	23826	186.246740901593	9530
1	23831	186.338225554133	9511
1	23836	186.49458611348	9477
1	23838	186.5	9476
1	23847	186.53874670407	9468
1	23852	186.575510452803	9460
1	23860	186.660240014355	9442
1	23864	186.667653697897	9440
1	23871	186.70027202347	9433
1	23876	186.710799173315	9431
1	23882	186.804278506581	9411
1	23887	186.849418659436	9402
1	23892	186.883153033179	9394
1	23898	186.940602932429	9382
1	23903	186.982573043189	9373
1	23907	187	9369
1	23966	187.5	9448
1	24019	188	9001
1	24070	188.5	8687
1	24132	189	8828
1	24172	189.5	8890
1	24224	190	8947
1	24286	190.5	9004
1	24374	191	9060
1	24450	191.5	9173
1	24525	192	9344
1	24572	192.5	9516
1	24659	193	8838
1	24704	193.5	9523
1	24747	194	8167
1	24832	194.5	9360
1	24877	195	9452
1	24962	195.5	9270
1	25016	196	9403
1	25087	196.5	9535
1	25143	197	9668
1	25150	197.140408911648	9606
1	25155	197.214213938701	9458
1	25160	197.239157092197	9408
1	25167	197.326055440166	9235
1	25170	197.333635299397	9220
1	25175	197.341227490286	9204
1	25180	197.348832879247	9189
1	25187	197.362654180603	9162
1	25193	197.395809558809	9095
1	25196	197.403506095368	9080
1	25204	197.413339065804	8963
1	25210	197.425080477898	8822
1	25217	197.479816224902	8324
1	25221	197.5	8429
1	25280	198	9208
1	25337	198.5	9289
1	25426	199	9371
1	25502	199.5	9452
1	25577	200	9534
1	25653	200.5	9615
1	25707	201	9697
1	25764	201.5	9795
1	25835	202	9133
1	25884	202.5	9149
1	25920	203	9523
1	25923	203.013463964683	9533
1	25928	203.034426107968	9548
1	25933	203.059611553109	9567
1	25938	203.068241159537	9574
1	25944	203.096754241836	9595
1	25949	203.149540425605	9634
1	25954	203.181144168091	9658
1	25957	203.188392045498	9663
1	25964	203.274088936526	9727
1	25971	203.340858498725	9777
1	25977	203.365349887872	9796
1	25984	203.445157258101	9855
1	25990	203.5	9896
1	26055	204	9302
1	26110	204.5	8508
1	26171	205	8901
1	26235	205.5	9332
1	26280	206	9254
1	26355	206.5	9176
1	26404	207	9098
1	26481	207.5	8228
1	26569	208	8220
1	26616	208.5	8516
1	26674	209	9307
1	26735	209.5	8156
1	26807	210	8376
1	26881	210.5	8574
1	26933	211	8762
1	27006	211.5	8949
1	27092	212	9136
1	27169	212.5	9305
1	27234	213	9361
1	27299	213.5	8416
1	27334	214	8908
1	27382	214.5	8246
1	27456	215	8473
1	27536	215.5	8700
1	27594	216	8849
1	27645	216.5	8944
1	27724	217	9039
1	27820	217.5	9135
1	27902	218	9230
1	27986	218.5	9325
1	28052	219	8494
1	28131	219.5	9029
1	28211	220	8472
1	28307	220.5	8310
1	28344	221	8660
1	28397	221.5	9562
1	28402	221.571774910627	9692
1	28405	221.578997362133	9705
1	28420	221.762845245317	9834
1	28425	221.778400994444	9795
1	28430	221.801985642434	9735
1	28435	221.82784962528	9669
1	28440	221.842242835117	9632
1	28445	221.856458364051	9596
1	28451	221.992207985643	9251
1	28455	222	9231
1	28497	222.5	9066
1	28550	223	9047
1	28602	223.5	9426
1	28665	224	9602
1	28746	224.5	9778
1	28751	224.631125754799	9529
1	28756	224.648652233108	9484
1	28762	224.692064323579	9373
1	28770	224.789540941957	9214
1	28776	224.844010014643	9293
1	28779	224.851542566026	9304
1	28786	224.90528649832	9381
1	28791	225	9518
1	28888	225.5	8725
1	28946	226	9213
1	28999	226.5	9234
1	29002	226.506931977633	9232
1	29007	226.524709597198	9225
1	29012	226.567105812341	9208
1	29018	226.629066147479	9184
1	29024	226.677136121435	9166
1	29029	226.709052812436	9153
1	29035	226.74733793283	9138
1	29041	226.815610159936	9112
1	29047	226.833728476884	9105
1	29054	226.934393830344	9066
1	29061	227	9040
1	29092	227.5	8846
1	29135	228	8652
1	29195	228.5	9530
1	29260	229	9403
1	29329	229.5	8449
1	29417	230	8518
1	29464	230.5	8160
1	29544	231	8741
1	29642	231.5	9622
1	29691	232	9700
1	29701	232.145924016882	9529
1	29709	232.261161956357	9296
1	29714	232.28808695085	9242
1	29720	232.337277293076	9142
1	29726	232.38182613328	9052
1	29736	232.5	8814
1	29794	233	8930
1	29874	233.5	9807
1	29937	234	8136
1	29971	234.5	8878
1	30041	235	9621
1	30100	235.5	9345
1	30147	236	8749
1	30201	236.5	8958
1	30244	237	9287
1	30321	237.5	9562
1	30415	238	8680
1	30446	238.5	9354
1	30495	239	9804
1	30498	239.012993224984	9826
1	30504	239.045478615316	9808
1	30509	239.086393216275	9770
1	30515	239.126063825015	9733
1	30521	239.186001646813	9678
1	30532	239.381840581056	9498
1	30537	239.393059169776	9488
1	30542	239.408198974718	9474
1	30547	239.444893332985	9440
1	30552	239.5	9389
1	30557	239.542392203206	9338
1	30562	239.554056160567	9323
1	30567	239.568602615766	9303
1	30575	239.780754904955	9022
1	30580	239.792919802684	9006
1	30587	239.817617539491	8973
1	30590	239.825418720813	8963
1	30597	239.905623374738	8856
1	30603	239.919247087783	8838
1	30607	240	8731
1	30671	240.5	8493
1	30770	241	8318
1	30848	241.5	9500
1	30914	242	8747
1	30995	242.5	8216
1	31069	243	9088
1	31133	243.5	9080
1	31180	244	8860
1	31272	244.5	8872
1	31329	245	9229
1	31414	245.5	9586
1	31419	245.655588671782	9697
1	31424	245.693765292412	9724
1	31430	245.769615661199	9778
1	31435	245.793586537774	9795
1	31442	245.809976204284	9807
1	31447	245.827472777917	9819
1	31453	245.848533194889	9834
1	31462	245.95474583384	9803
1	31467	246	9783
1	31471	246.039539437903	9766
1	31478	246.075707031695	9751
1	31483	246.095582626088	9742
1	31491	246.273856633335	9665
1	31496	246.289034244233	9658
1	31502	246.30708180672	9651
1	31507	246.347435387637	9633
1	31512	246.36518277388	9626
1	31517	246.407647127418	9607
1	31523	246.472045785139	9579
1	31529	246.491792139958	9571
1	31534	246.499234795851	9568
1	31535	246.5	9567
1	31543	246.54170360267	9549
1	31549	246.734815155372	9466
1	31554	246.758116367687	9456
1	31560	246.774212146204	9449
1	31565	246.784375575622	9444
1	31572	246.880047832554	9403
1	31580	246.961649211476	9368
1	31585	246.990626874005	9355
1	31589	247	9351
1	31684	247.5	9135
1	31739	248	8884
1	31809	248.5	8579
1	31862	249	8275
1	31900	249.5	9546
1	31954	250	9441
1	32010	250.5	9549
1	32013	250.521691796901	9543
1	32018	250.56485250928	9530
1	32024	250.599510641195	9520
1	32029	250.630477877819	9510
1	32035	250.682299068022	9495
1	32041	250.746810547337	9476
1	32046	250.760441409333	9472
1	32049	250.767831612036	9469
1	32058	250.787577686764	9464
1	32064	250.817672132337	9455
1	32067	250.825075622554	9452
1	32077	250.905166698741	9429
1	32082	250.912590603715	9426
1	32085	250.920016871485	9424
1	32094	250.983194658255	9405
1	32100	251	9400
1	32167	251.5	9252
1	32215	252	9103
1	32262	252.5	8954
1	32315	253	8805
1	32396	253.5	8656
1	32466	254	8508
1	32532	254.5	8576
1	32597	255	8906
1	32665	255.5	8987
1	32722	256	8734
1	32773	256.5	9305
1	32825	257	9346
1	32893	257.5	9387
1	32938	258	9548
1	32944	258.235302381631	8890
1	32949	258.256528534648	8829
1	32958	258.293380655655	8722
1	32970	258.349680048581	8559
1	32973	258.35785857411	8535
1	32979	258.36606009725	8540
1	32986	258.374533345311	8546
1	32991	258.393109848626	8559
1	32997	258.433407322996	8586
1	33003	258.472530407282	8613
1	33009	258.5	8706
1	33059	259	9431
1	33065	259.149291612643	9424
1	33070	259.190688031795	9422
1	33075	259.201277946757	9422
1	33082	259.269952920602	9334
1	33087	259.315442833807	9272
1	33091	259.322992445541	9262
1	33101	259.387291092579	9175
1	33106	259.408778956937	9145
1	33111	259.420072409318	9130
1	33114	259.427739441081	9120
1	33122	259.450821379619	8940
1	33127	259.5	8493
1	33173	260	8956
1	33217	260.5	9585
1	33280	261	8665
1	33346	261.5	9340
1	33443	262	8860
1	33501	262.5	8381
1	33561	263	8805
1	33627	263.5	9310
1	33691	264	9629
1	33695	264.053724013793	9682
1	33698	264.060953924968	9689
1	33708	264.253386868551	9877
1	33713	264.281041165459	9904
1	33721	264.395347322019	9911
1	33725	264.5	9867
1	33730	264.621403773372	9815
1	33736	264.716995397982	9775
1	33742	264.781258140592	9748
1	33750	264.889011125731	9702
1	33755	264.897070251594	9699
1	33758	264.904287490485	9696
1	33766	265	9655
1	33814	265.5	9364
1	33896	266	8681
1	33960	266.5	8898
1	34007	267	9397
1	34057	267.5	9288
1	34110	268	9515
1	34159	268.5	8376
1	34228	269	8244
1	34306	269.5	8614
1	34368	270	9544
1	34465	270.5	9581
1	34537	271	9619
1	34591	271.5	9641
1	34595	271.532106749189	9642
1	34602	271.604197331512	9643
1	34609	271.643401895876	9644
1	34612	271.650660294881	9644
1	34623	271.755091372285	9473
1	34631	271.85809978637	9118
1	34636	271.888774392595	9012
1	34643	271.973957758237	8718
1	34648	272	8628
1	34710	272.5	8218
1	34768	273	9133
1	34839	273.5	9256
1	34893	274	9604
1	34943	274.5	9742
1	34947	274.502148640504	9743
1	34953	274.567806344628	9761
1	34966	274.670312746756	9789
1	34973	274.707824413584	9800
1	34979	274.741542257807	9809
1	34982	274.748678561202	9811
1	34996	274.926926219753	9712
1	35003	274.983607198956	9482
1	35009	275	9416
1	35065	275.5	8630
1	35134	276	8748
1	35186	276.5	8639
1	35259	277	8680
1	35338	277.5	9230
1	35401	278	8689
1	35446	278.5	8490
1	35511	279	8251
1	35556	279.5	8048
1	35598	280	8565
1	35657	280.5	8739
1	35719	281	9597
1	35723	281.075942283415	9582
1	35728	281.097253581702	9561
1	35731	281.104574991596	9554
1	35738	281.136507574359	9524
1	35743	281.144898109659	9516
1	35748	281.159720592352	9502
1	35756	281.221847675706	9443
1	35768	281.5	9179
1	35819	282	9104
1	35827	282.149869445456	9006
1	35832	282.158164464679	9000
1	35837	282.193835821527	8977
1	35842	282.210207135057	8966
1	35848	282.218411817002	8961
1	35853	282.326976233332	8890
1	35856	282.33485024908	8885
1	35861	282.3427286959	8880
1	35868	282.352370377247	8873
1	35878	282.454883963687	8806
1	35883	282.5	8777
1	35947	283	8526
1	36002	283.5	8375
1	36045	284	9557
1	36096	284.5	8682
1	36170	285	9527
1	36248	285.5	8516
1	36331	286	9502
1	36410	286.5	9593
1	36482	287	8729
1	36536	287.5	9071
1	36597	288	9440
1	36600	288.014208953534	9430
1	36603	288.021632071243	9425
1	36612	288.128855393053	9346
1	36620	288.219913350241	9279
1	36625	288.23456995147	9268
1	36631	288.286997157283	9230
1	36637	288.294581122613	9224
1	36640	288.302170021139	9219
1	36649	288.359170329051	9177
1	36655	288.466244120864	9098
1	36660	288.488062060964	9082
1	36664	288.5	9074
1	36711	289	9671
1	36716	289.031626950902	9742
1	36723	289.125171386808	9475
1	36730	289.216089934559	9180
1	36736	289.287135803305	9218
1	36742	289.304562562687	9228
1	36748	289.339955911247	9247
1	36755	289.390631713577	9274
1	36760	289.437831946207	9300
1	36765	289.458115112146	9311
1	36769	289.5	9333
1	36838	290	9604
1	36842	290.036238483567	9623
1	36847	290.112749569663	9664
1	36855	290.21004128155	9717
1	36860	290.250175667451	9739
1	36867	290.297584012263	9764
1	36874	290.367181763328	9802
1	36880	290.389700667365	9814
1	36883	290.396833334983	9818
1	36891	290.421867979383	9831
1	36897	290.473014386753	9859
1	36902	290.480114498326	9863
1	36905	290.487211730405	9867
1	36911	290.5	9874
1	36915	290.632101986566	9794
1	36921	290.69948286986	9750
1	36926	290.764926838425	9707
1	36935	290.982552286174	9566
1	36939	291	9554
1	37021	291.5	9229
1	37082	292	8903
1	37159	292.5	9310
1	37216	293	9939
1	37220	293.063070736521	9823
1	37226	293.115384095726	9709
1	37233	293.214642139378	9493
1	37236	293.222015993797	9477
1	37241	293.22940229748	9461
1	37248	293.274208947601	9363
1	37253	293.319071402751	9265
1	37256	293.326626718455	9249
1	37267	293.443662601494	8221
1	37272	293.452177380718	8223
1	37277	293.460690088975	8225
1	37281	293.469200727273	8227
1	37286	293.477709296618	8229
1	37292	293.5	8234
1	37372	294	8357
1	37425	294.5	8481
1	37492	295	8628
1	37534	295.5	8691
1	37599	296	9117
1	37662	296.5	8779
1	37712	297	8489
1	37739	297.5	8449
1	37787	298	8410
1	37838	298.5	8370
1	37914	299	8331
1	37958	299.5	8418
1	38043	300	8342
1	38092	300.5	8612
1	38153	301	8627
1	38218	301.5	8239
1	38268	302	8292
1	38323	302.5	8358
1	38371	303	8042
1	38433	303.5	8361
1	38530	304	8554
1	38565	304.5	8592
1	38641	305	8630
1	38690	305.5	8668
1	38750	306	8706
1	38840	306.5	8744
1	38889	307	9137
1	38960	307.5	8653
1	39017	308	8588
1	39074	308.5	9658
1	39141	309	9025
1	39199	309.5	8991
1	39255	310	8402
1	39329	310.5	8714
1	39376	311	9467
1	39462	311.5	9878
1	39474	311.779290123243	9054
1	39481	311.796460414026	8986
1	39487	311.808121748198	8940
1	39492	311.848093434322	8783
1	39496	311.856063376255	8752
1	39503	311.877991582753	8666
1	39509	311.931490779126	8456
1	39514	311.95214666519	8375
1	39517	311.960504874145	8342
1	39524	311.999482547188	8189
1	39525	312	8187
1	39613	312.5	8169
1	39683	313	8238
1	39737	313.5	8308
1	39789	314	8377
1	39853	314.5	8528
1	39905	315	8834
1	39955	315.5	9145
1	39997	316	9457
1	40061	316.5	8793
1	40106	317	8799
1	40173	317.5	8842
1	40228	318	8688
1	40278	318.5	8533
1	40325	319	9323
1	40398	319.5	9537
1	40448	320	9583
1	40540	320.5	9629
1	40574	321	8905
1	40602	321.5	8638
1	40660	322	9477
1	40712	322.5	8531
1	40792	323	8746
1	40836	323.5	9254
1	40899	324	9586
1	40903	324.058458112491	9596
1	40914	324.258693962284	9632
1	40919	324.2924169226	9639
1	40924	324.319260012778	9643
1	40929	324.341598731394	9647
1	40934	324.354436406801	9650
1	40940	324.415865926141	9661
1	40945	324.46258189745	9669
1	40950	324.5	9676
1	41040	325	9299
1	41108	325.5	9553
1	41161	326	9200
1	41212	326.5	8878
1	41286	327	8723
1	41334	327.5	9031
1	41384	328	9339
1	41418	328.5	9647
1	41486	329	8898
1	41534	329.5	8826
1	41606	330	8515
1	41662	330.5	9660
1	41718	331	9516
1	41806	331.5	8934
1	41855	332	8697
1	41916	332.5	9095
1	41993	333	9493
1	42055	333.5	9401
1	42138	334	9205
1	42196	334.5	8996
1	42242	335	9189
1	42302	335.5	8324
1	42344	336	9053
1	42427	336.5	8950
1	42469	337	9737
1	42481	337.291678767105	8541
1	42484	337.299874528725	8567
1	42493	337.412340880146	8926
1	42498	337.43114175138	8986
1	42503	337.440581027693	9016
1	42508	337.452883810538	9056
1	42513	337.467029078611	9101
1	42519	337.5	9206
1	42602	338	9723
1	42605	338.008304173275	9720
1	42611	338.10865384271	9688
1	42618	338.207537123781	9656
1	42624	338.257625497164	9640
1	42629	338.265385694995	9637
1	42632	338.272649366262	9635
1	42640	338.297956477111	9627
1	42646	338.354196639163	9608
1	42653	338.418593136554	9547
1	42658	338.431498336971	9528
1	42663	338.46427625293	9478
1	42668	338.5	9424
1	42671	338.506532765733	9414
1	42678	338.568778727542	9319
1	42686	338.630052907504	9226
1	42696	338.810386315087	8951
1	42701	338.828652144963	8924
1	42706	338.836496161099	8912
1	42709	338.844350739196	8900
1	42718	338.88039451989	8863
1	42727	338.946886994222	9093
1	42731	339	9277
1	42792	339.5	9201
1	42861	340	8504
1	42939	340.5	8627
1	43029	341	9311
1	43107	341.5	8863
1	43183	342	8805
1	43261	342.5	8745
1	43310	343	8685
1	43359	343.5	8608
1	43467	344	8518
1	43530	344.5	8427
1	43569	345	8915
1	43608	345.5	8717
1	43669	346	8924
1	43789	346.5	8719
1	43874	347	9084
1	43914	347.5	8694
1	43947	348	8804
1	44014	348.5	9330
1	44076	349	8945
1	44143	349.5	8148
1	44206	350	8654
1	44284	350.5	8921
1	44359	351	9194
1	44410	351.5	9346
1	44489	352	9500
1	44492	352.0484181002	9515
1	44499	352.091957739226	9529
1	44504	352.122970708697	9539
1	44510	352.222654404443	9570
1	44515	352.266176094762	9583
1	44520	352.322683406178	9601
1	44523	352.329974313375	9603
1	44531	352.346782761177	9608
1	44536	352.355737694701	9611
1	44544	352.437893638123	9637
1	44549	352.449316747633	9640
1	44556	352.49244703331	9654
1	44560	352.5	9656
1	44564	352.562706585735	9660
1	44570	352.620142383442	9662
1	44575	352.675370283404	9663
1	44581	352.749576758111	9665
1	44586	352.782955399065	9666
1	44591	352.879460097708	9669
1	44597	352.968276294248	9671
1	44602	352.993446138553	9672
1	44603	353	9672
1	44610	353.082995825268	9674
1	44615	353.10980550801	9675
1	44620	353.122797216217	9675
1	44625	353.155620619568	9676
1	44631	353.169685302462	9676
1	44634	353.17691969684	9677
1	44643	353.324991862389	9681
1	44648	353.332246618378	9681
1	44651	353.339477276368	9681
1	44658	353.37792764906	9682
1	44666	353.475013869348	9685
1	44671	353.5	9685
1	44776	354	8441
1	44834	354.5	8370
1	44891	355	9251
1	44961	355.5	9024
1	45025	356	8657
1	45097	356.5	9275
1	45161	357	9382
1	45216	357.5	9635
1	45297	358	9546
1	45300	358.013644177077	9537
1	45310	358.105081947846	9482
1	45313	358.112464356621	9477
1	45324	358.174617513163	9452
1	45329	358.201137596712	9485
1	45335	358.213742817414	9501
1	45343	358.269492734508	9504
1	45352	358.337464131042	9487
1	45359	358.375583597353	9478
1	45367	358.432202553573	9464
1	45374	358.476006339615	9453
1	45379	358.5	9447
1	45424	359	8808
1	45480	359.5	8883
1	45516	360	8768
1	45575	360.5	8602
1	45627	361	9589
1	45722	361.5	9203
1	45785	362	8818
1	45841	362.5	8395
1	45924	363	9268
1	45978	363.5	8926
1	46059	364	8615
1	46118	364.5	8963
1	46172	365	9311
1	46246	365.5	9659
1	46300	366	9416
1	46347	366.5	9432
1	46392	367	8974
1	46440	367.5	8697
1	46471	368	9194
1	46537	368.5	9697
1	46612	369	9521
1	46678	369.5	8544
1	46752	370	8691
1	46841	370.5	9199
1	46916	371	8880
1	46987	371.5	8886
1	47033	372	8803
1	47102	372.5	8971
1	47173	373	9257
1	47176	373.008272959885	9252
1	47183	373.156653087028	9161
1	47189	373.261725198971	9097
1	47194	373.274628915682	9089
1	47199	373.282671519702	9084
1	47207	373.402845394722	9011
1	47212	373.456868161337	8978
1	47217	373.5	8951
1	47265	374	8646
1	47316	374.5	8340
1	47365	375	8470
1	47415	375.5	9787
1	47419	375.534624777271	9826
1	47430	375.669095475881	9742
1	47435	375.69074207621	9684
1	47441	375.724350498374	9595
1	47446	375.735067188982	9567
1	47452	375.759090701048	9503
1	47458	375.781477227796	9443
1	47463	375.803701313012	9385
1	47468	375.820273833926	9341
1	47477	375.932261158451	8442
1	47483	375.976287846116	8472
1	47488	375.990184345613	8481
1	47492	376	8488
1	47570	376.5	8597
1	47633	377	9126
1	47708	377.5	8855
1	47755	378	8823
1	47823	378.5	9502
1	47895	379	8982
1	47948	379.5	9402
1	48006	380	8982
1	48076	380.5	9329
1	48126	381	8600
1	48174	381.5	9329
1	48241	382	9458
1	48322	382.5	9587
1	48395	383	9464
1	48453	383.5	9080
1	48507	384	8614
1	48540	384.5	9072
1	48606	385	9135
1	48667	385.5	8732
1	48746	386	8328
1	48791	386.5	8992
1	48846	387	9271
1	48890	387.5	8305
1	48973	388	8314
1	49066	388.5	8324
1	49173	389	9465
1	49256	389.5	9055
1	49321	390	9162
1	49361	390.5	9190
1	49418	391	8754
1	49505	391.5	8643
1	49582	392	8387
1	49644	392.5	8109
1	49700	393	8252
1	49753	393.5	9892
1	49760	393.595531868602	9460
1	49769	393.702297899572	8927
1	49772	393.710139279655	8888
1	49781	393.742777631845	8725
1	49784	393.750800554481	8684
1	49791	393.774340935028	8567
1	49796	393.784199972976	8518
1	49808	393.895366358253	9672
1	49814	393.949631687333	9576
1	49819	393.961475820352	9555
1	49823	394	9487
1	49827	394.097374737451	9315
1	49835	394.178833863211	9173
1	49840	394.188288179193	9172
1	49848	394.263069760963	9163
1	49853	394.285429984381	9160
1	49858	394.343031608348	9153
1	49863	394.404507746822	9145
1	49868	394.423880309313	9143
1	49874	394.453124041815	9139
1	49879	394.466189563686	9138
1	49884	394.48147253078	9137
1	49888	394.5	9135
1	49966	395	9083
1	50015	395.5	9032
1	50066	396	9719
1	50100	396.5	9213
1	50159	397	8392
1	50228	397.5	8733
1	50293	398	9051
1	50375	398.5	9370
1	50428	399	9688
1	50488	399.5	9640
1	50536	400	9854
2	1368	10	9008
2	1445	10.5	8269
2	1493	11	8353
2	1559	11.5	8437
2	1595	12	8521
2	1656	12.5	8604
2	1687	13	9123
2	1736	13.5	8971
2	1798	14	9465
2	1860	14.5	9970
2	1864	14.535214889129	9928
2	1869	14.557459568537	9882
2	1872	14.564543154856	9867
2	1880	14.627301414527	9738
2	1886	14.653336710205	9684
2	1891	14.660846883293	9669
2	1896	14.699506610974	9589
2	1901	14.71833731102	9550
2	1907	14.770767491321	9442
2	1913	14.797967894176	9386
2	1918	14.816518298228	9348
2	1924	14.921383111972	9132
2	1928	15	8970
2	1974	15.5	8514
2	2021	16	9283
2	2076	16.5	9827
2	2079	16.50442392344	9831
2	2084	16.518042996265	9846
2	2091	16.607737448303	9847
2	2097	16.667548538419	9826
[...]
24	20502	161.161822883152	0.68949721796286
24	20599	161.851320101115	0.58068041786221
24	20681	162.432000518977	0.72867273341029
24	20741	163.160673252387	0.087287907191354
24	20754	163.247961159578	0.20194787529327
24	20791	163.449909034871	0.51436931856091
24	20871	163.964278353432	0.74758509166156
24	20959	164.711863445094	0.90829522335234
24	21090	165.620158668446	0.10237003353983
24	21103	165.722528701986	0.1694270203225
24	21120	165.891955722309	1.0996269341596
24	21259	166.991582656469	0.62248431758293
24	21335	167.614066974052	0.94516415871619
24	21437	168.559231132768	0.39038687271583
24	21510	168.949618005484	0.47569667266423
24	21606	169.425314678148	0.53985644925174
24	21678	169.9651711274	0.21298573605454
24	21700	170.178156863455	0.27509219950117
24	21742	170.453249062956	0.56561706237076
24	21823	171.018866125327	1.6351821382025
24	22029	172.65404826353	0.077662762558247
24	22041	172.731711026088	0.21472568497951
24	22073	172.946436711068	0.22129905731859
24	22098	173.167735768387	0.91700694150783
24	22217	174.084742709895	0.56089210645888
24	22298	174.645634816354	0.48859874109722
24	22368	175.134233557451	0.9015307165272
24	22477	176.035764273978	0.8585544188564
24	22654	176.894318692834	0.35307623379963
24	22673	177.247394926634	0.37587288112363
24	22729	177.623267807758	0.2643778896946
24	22764	177.887645697453	0.29088329977197
24	22818	178.178528997225	1.5884910363113
24	23003	179.767020033536	0.12714885172907
24	23014	179.894168885265	1.0537167935347
24	23137	180.9478856788	0.46547634835514
24	23176	181.413362027155	0.16467960764011
24	23189	181.578041634795	0.27052171016235
24	23212	181.848563344957	0.68946059191905
24	23335	182.538023936876	0.2034075311684
24	23364	182.741431468044	1.0389201385726
24	23505	183.780351606617	0.21451861744953
24	23538	183.994870224067	0.75033392294788
24	23617	184.745204147015	0.4829427358386
24	23665	185.228146882854	0.11923453164922
24	23713	185.347381414503	1.1741042441306
24	23843	186.521485658634	0.61003729139043
24	23929	187.131522950024	1.4228155922319
24	24074	188.554338542256	0.15308315175673
24	24100	188.707421694013	0.41919510764319
24	24139	189.126616801656	0.96761852116825
24	24238	190.094235322824	0.40243914322559
24	24285	190.49667446605	0.198345324933
24	24307	190.695019790983	0.84334260154727
24	24455	191.53836239253	1.0475134546559
24	24592	192.585875847186	0.04812718692933
24	24594	192.634003034115	0.2241343743047
24	24645	192.85813740842	0.11270735309315
24	24653	192.970844761513	0.35565587441757
24	24686	193.326500635931	0.37322856136773
24	24727	193.699729197299	0.3897389284212
24	24761	194.08946812572	0.55677427711468
24	24848	194.646242402835	0.063643403316937
24	24849	194.709885806152	0.063096056535223
24	24858	194.772981862687	0.066499046221122
24	24864	194.839480908908	0.41036105908979
24	24926	195.249841967998	0.15541437897494
24	24954	195.405256346973	0.031537369032533
24	24955	195.436793716006	0.11555734846497
24	24972	195.552351064471	1.358488637629
24	25136	196.9108397021	0.17354569039311
24	25146	197.084385392493	0.16754970401825
24	25164	197.251935096511	0.26413033173986
24	25228	197.516065428251	0.081668443214859
24	25234	197.597733871466	0.34365956919736
24	25265	197.941393440663	0.9725783915817
24	25411	198.913971832245	0.029990370222165
24	25417	198.943962202467	0.1050970655943
24	25433	199.049059268061	0.10869439202804
24	25441	199.157753660089	0.5948419732976
24	25548	199.752595633387	1.2734843240378
24	25710	201.026079957425	0.25285360464812
24	25734	201.278933562073	0.09590273080967
24	25752	201.374836292883	0.32185205349308
24	25793	201.696688346376	2.2182222665274
24	26050	203.914910612903	0.37349563644271
24	26070	204.288406249346	0.7022128377264
24	26169	204.990619087072	0.072459390197626
24	26183	205.06307847727	0.43393938566253
24	26234	205.497017862933	0.72385655423205
24	26309	206.220874417165	0.082568476812538
24	26324	206.303442893978	0.02194431474299
24	26326	206.325387208721	0.083159295385534
24	26330	206.408546504107	0.061655411319932
24	26347	206.470201915427	1.5057967361328
24	26556	207.97599865156	1.4436484689005
24	26728	209.41964712046	0.16207657836357
24	26767	209.581723698824	0.2425812128142
24	26789	209.824304911638	0.005710919114994
24	26791	209.830015830753	0.1543190279729
24	26806	209.984334858726	1.1460793590599
24	26947	211.130414217786	0.065818878293406
24	26954	211.196233096079	0.09028317745349
24	26994	211.286516273532	0.55579300052249
24	27069	211.842309274054	0.67872740817018
24	27171	212.521036682224	0.46745275190213
24	27227	212.988489434126	0.4772197007531
24	27294	213.465709134879	0.73896830587664
24	27363	214.204677440756	1.3494318856489
24	27544	215.554109326405	0.6463790054334
24	27601	216.200488331838	0.77739669498644
24	27721	216.977885026824	0.25445018030658
24	27752	217.232335207131	0.09860309775025
24	27789	217.330938304881	0.61703673850213
24	27891	217.947975043383	0.034698521845479
24	27897	217.982673565228	0.8041237811437
24	28021	218.786797346372	0.2954620573484
24	28074	219.08225940372	0.14668071235722
24	28091	219.228940116077	0.1305446957492
24	28118	219.359484811826	0.61332079742202
24	28199	219.972805609248	0.34115522706751
24	28274	220.313960836316	0.11061982736535
24	28298	220.424580663681	0.24292783631939
24	28316	220.6675085	1.5258477362209
24	28468	222.193356236221	0.11946766841329
24	28478	222.312823904634	0.10443383767791
24	28491	222.417257742312	1.3245990539051
24	28637	223.741856796217	0.09215545968102
24	28650	223.834012255898	0.015518128990424
24	28654	223.849530384888	0.27848035942512
24	28689	224.128010744313	0.23933722929094
24	28730	224.367347973604	0.39139128295929
24	28767	224.758739256563	0.3719357727955
24	28832	225.130675029359	0.32569474422029
24	28882	225.456369773579	0.0182802864514
24	28886	225.47465006003	0.61087739155554
24	28963	226.085527451586	0.70224797485029
24	29039	226.787775426436	0.10106095227145
24	29052	226.888836378707	0.17040950568591
24	29063	227.059245884393	0.90727139094253
24	29129	227.966517275336	0.15061869103704
24	29146	228.117135966373	0.071795577473784
24	29151	228.188931543847	0.37008760176286
24	29200	228.55901914561	0.41643391668418
24	29259	228.975453062294	0.14866239553454
24	29282	229.124115457829	0.37516062765712
24	29328	229.499276085486	1.127889069454
24	29483	230.62716515494	0.47791295140928
24	29573	231.105078106349	0.15799768806577
24	29595	231.263075794415	0.012719325594832
24	29600	231.27579512001	0.34122699890488
24	29656	231.617022118915	0.53206822673809
24	29702	232.149090345653	0.21790413822064
24	29724	232.366994483874	0.67033000746297
24	29807	233.037324491337	0.83226513427475
24	29910	233.869589625612	0.2368682983206
24	29947	234.106457923933	0.50241250147484
24	29981	234.608870425408	0.27213490613194
24	30019	234.88100533154	0.97638014223562
24	30134	235.857385473776	0.44717523075374
24	30180	236.30456070453	1.0957008893082
24	30294	237.400261593838	0.003954962109418
24	30298	237.404216555947	0.63211915229265
24	30437	238.03633570824	1.2124673686845
24	30527	239.248803076925	1.7711953402418
24	30777	241.019998417167	0.88867861561439
24	30894	241.908677032781	0.20569217654746
24	30928	242.114369209328	0.064850433483059
24	30943	242.179219642811	0.47299305784367
24	31022	242.652212700655	0.49183425539696
24	31080	243.144046956052	0.10860927523447
24	31095	243.252656231286	0.40333373981452
24	31138	243.655989971101	0.16491415133965
24	31158	243.820904122441	0.52934231728932
24	31252	244.35024643973	0.63131588674672
24	31327	244.981562326477	0.21389566609934
24	31347	245.195457992576	0.071036186040671
24	31355	245.266494178617	0.9773569069185
24	31489	246.243851085536	0.061193584474481
24	31500	246.30504467001	0.16203616639693
24	31521	246.467080836407	0.41688160459872
24	31574	246.883962441006	0.29581370541136
24	31617	247.179776146417	0.63408144842709
24	31723	247.813857594844	0.78044816468702
24	31816	248.594305759531	0.44693966395947
24	31864	249.04124542349	0.74737061167233
24	31931	249.788616035162	1.2498579173098
24	32107	251.038473952472	0.39483828669769
24	32160	251.43331223917	0.41646877364038
24	32206	251.84978101281	0.32640542437775
24	32242	252.176186437188	0.021945368862558
24	32246	252.198131806051	1.4159276665284
24	32409	253.614059472579	0.59081007340396
24	32513	254.204869545983	0.78047788658256
24	32591	254.985347432566	0.12362419378583
24	32604	255.108971626352	0.33639128563618
24	32664	255.445362911988	0.24417211436135
24	32686	255.689535026349	0.065113860816087
24	32692	255.754648887165	0.80712293537917
24	32780	256.561771822544	0.20213792792395
24	32804	256.763909750468	0.18599327709547
24	32814	256.949903027563	0.64085929360191
24	32900	257.590762321165	0.30966205153735
24	32931	257.900424372702	0.41807218612984
24	32967	258.318496558832	0.58409477051252
24	33043	258.902591329345	0.31821519378328
24	33080	259.220806523128	0.12166135310392
24	33098	259.342467876232	0.84434876684927
24	33195	260.186816643081	0.24796258574445
24	33214	260.434779228825	0.78365891719539
24	33288	261.21843814602	0.47788260761082
24	33403	261.696320753631	0.18750425108118
24	33420	261.883825004712	0.22157635681095
24	33453	262.105401361523	0.41141786969086
24	33503	262.516819231214	0.28559137692455
24	33552	262.802410608139	0.44236272762008
24	33596	263.244773335759	0.16033474688652
24	33613	263.405108082646	0.8893567699638
24	33717	264.29446485261	0.54509506148127
24	33747	264.839559914091	2.3842588805094
24	34021	267.2238187946	0.11410508909001
24	34030	267.33792388369	0.58262186932898
24	34097	267.920545753019	0.44885458205794
24	34144	268.369400335077	0.36089552846272
24	34191	268.73029586354	1.9374762479267
24	34486	270.667772111467	0.86217031172264
24	34593	271.52994242319	2.3871945467973
24	34889	273.917136969987	0.4683420006662
24	34930	274.385478970653	0.11582640817109
24	34945	274.501305378824	0.13676002483396
24	34962	274.638065403658	0.56179004375593
24	35041	275.199855447414	0.011336281401598
24	35042	275.211191728816	0.6871482265985
24	35127	275.898339955415	1.016022747472
24	35253	276.914362702887	0.32836910545068
24	35296	277.242731808338	0.71371292696322
24	35379	277.956444735301	0.70315918347428
24	35467	278.659603918775	0.55329270893036
24	35545	279.212896627705	0.38856420982637
24	35560	279.601460837531	0.4670149816274
24	35601	280.068475819158	1.1519777504538
24	35754	281.220453569612	0.052360005030645
24	35760	281.272813574643	1.1851649976719
24	35879	282.457978572315	0.090572136984612
24	35886	282.5485507093	1.7538049214135
24	36082	284.302355630713	0.078071928187711
24	36093	284.380427558901	0.77823056683302
24	36208	285.158658125734	1.1161966392311
24	36366	286.274854764965	0.12605963107008
24	36395	286.400914396035	0.11008900178464
24	36414	286.51100339782	1.3013686572658
24	36573	287.812372055086	0.15468382712948
24	36580	287.967055882215	0.17127247874208
24	36616	288.138328360957	0.021527348459279
24	36617	288.159855709416	1.1439718834975
24	36740	289.303827592914	0.37341408158964
24	36804	289.677241674504	0.046380389441741
24	36812	289.723622063946	1.1165997723367
24	36930	290.840221836283	1.213889743017
24	37096	292.0541115793	0.66704563031127
24	37177	292.721157209611	2.1237838984877
24	37478	294.844941108099	1.6508853937327
24	37658	296.495826501832	0.72023585970954
24	37727	297.216062361542	0.57828538160906
24	37770	297.794347743151	0.55249269948785
24	37821	298.346840442639	0.24109283744054
24	37846	298.58793328008	0.57235446859687
24	37928	299.160287748677	0.38940134399568
24	37965	299.549689092673	0.23361578279389
24	38008	299.783304875467	0.4444578671597
24	38070	300.227762742627	0.030972129809301
24	38072	300.258734872436	0.077640833942174
24	38073	300.336375706378	0.31100619579805
24	38111	300.647381902176	0.36400952191005
24	38155	301.011391424086	0.21178394698225
24	38184	301.223175371068	0.051393568236014
24	38197	301.274568939304	0.028462452232218
24	38201	301.303031391536	0.019323257013456
24	38202	301.322354648549	0.21462523158674
24	38224	301.536979880136	0.54889879277601
24	38280	302.085878672912	0.46669222943786
24	38325	302.55257090235	0.22383341570491
24	38345	302.776404318055	0.52873592997551
24	38414	303.305140248031	0.028637032918592
24	38417	303.33377728095	0.37572124730831
24	38482	303.709498528258	0.73027892708557
24	38564	304.439777455344	0.56366088240244
24	38643	305.003438337746	0.059846677763759
24	38650	305.06328501551	0.53386451258871
24	38700	305.597149528099	0.2416144377135
24	38741	305.838763965813	0.29639880782211
24	38767	306.135162773635	0.50584751269004
24	38860	306.641010286325	0.19499424965112
24	38877	306.836004535976	0.69069467702988
24	38962	307.526699213006	0.081268537364844
24	38969	307.607967750371	0.62060524354175
24	39037	308.228572993913	0.25332018395542
24	39073	308.481893177868	0.29348399007134
24	39101	308.775377167939	0.60678828163312
24	39178	309.382165449572	0.33742016589518
24	39219	309.719585615467	0.32802042759642
24	39262	310.047606043063	0.0020090028857295
24	39263	310.049615045949	0.13469626492054
24	39295	310.18431131087	0.022271009996399
24	39301	310.206582320866	0.92020104457141
24	39406	311.126783365437	1.6687142726571
24	39655	312.795497638094	0.24035774049004
24	39685	313.035855378584	0.1063964787773
24	39693	313.142251857361	0.21237086951486
24	39727	313.354622726876	0.81581491928617
24	39810	314.170437646162	0.11586294241007
24	39821	314.286300588572	0.30214136519096
24	39860	314.588441953763	0.62193547041412
24	39930	315.210377424177	0.45290403660932
24	39980	315.663281460786	0.88302980136816
24	40063	316.546311262154	0.038764043044896
24	40075	316.585075305199	0.12932251071714
24	40080	316.714397815916	0.31041973820182
24	40111	317.024817554118	0.21157534214318
24	40129	317.236392896261	0.55777550253341
24	40207	317.794168398794	0.075219723875654
24	40221	317.86938812267	0.10691579238775
24	40227	317.976303915058	2.3929259296656
24	40520	320.369229844724	0.62481623053438
24	40571	320.994046075258	0.64764921556825
24	40621	321.641695290826	0.48238993373492
24	40679	322.124085224561	0.8362679591885
24	40784	322.96035318375	1.1867526308314
24	40910	324.147105814581	0.33036005407135
24	40949	324.477465868652	0.20247331411612
24	40980	324.679939182768	0.021499120947791
24	40994	324.701438303716	0.47081277501841
24	41056	325.172251078734	0.70210994479786
24	41149	325.874361023532	0.72825465244013
24	41222	326.602615675972	0.52656964730284
24	41298	327.129185323275	0.85757943757255
24	41383	327.986764760848	0.30011738748127
24	41407	328.286882148329	0.15697138985709
24	41412	328.443853538186	0.79866377599916
24	41511	329.242517314185	1.1080312147899
24	41647	330.350548528975	0.0018753544044786
24	41651	330.352423883379	1.8145951930132
24	41868	332.167019076392	0.60515759449009
24	41952	332.772176670882	0.61629200773544
24	42042	333.388468678617	0.040285003912975
24	42049	333.42875368253	0.53256102894136
24	42133	333.961314711471	0.25862104387164
24	42173	334.219935755343	0.15458192382955
24	42180	334.374517679173	0.081693643307178
24	42183	334.45621132248	1.3006189365045
24	42317	335.756830258984	0.25757359448286
24	42347	336.014403853467	0.86645085052522
24	42462	336.880854703992	0.58906623750004
24	42514	337.469920941492	0.90452969360545
24	42650	338.374450635097	0.36557989271692
24	42692	338.740030527814	0.40787590367718
24	42747	339.147906431491	0.74716333770428
24	42841	339.895069769195	0.061284785606295
24	42851	339.956354554801	0.65413806509255
24	42953	340.610492619894	0.11272578143748
24	42968	340.723218401331	0.71734077698565
24	43100	341.440559178317	0.28232078474545
24	43137	341.722879963062	0.066497499855523
24	43144	341.789377462918	0.46868897618917
24	43223	342.258066439107	0.14812507807046
24	43246	342.406191517177	1.0580524830184
24	43347	343.464244000195	0.19101773790787
24	43386	343.655261738103	0.0056837366612264
24	43387	343.660945474764	0.22930220798674
24	43449	343.890247682751	0.24150748871802
24	43499	344.131755171469	0.1154498585857
24	43510	344.247205030055	0.056953355453153
24	43516	344.304158385508	0.16371013874545
24	43524	344.467868524253	0.98100238397729
24	43607	345.44887090823	1.3509332847493
24	43830	346.799804192979	0.81271012569542
24	43926	347.612514318674	1.8346949825074
24	44142	349.447209301181	2.0466262069211
24	44408	351.493835508102	0.87330304810298
24	44540	352.367138556205	0.1172933681897
24	44554	352.484431924395	1.4984002695772
24	44772	353.982832193972	1.9564500389383
24	45019	355.93928223291	0.45644519978184
24	45081	356.395727432692	0.30837607153755
24	45131	356.70410350423	0.11056146585442
24	45137	356.814664970084	0.073552717568345
24	45155	356.888217687652	0.30419339858724
24	45198	357.192411086239	0.22662820210752
24	45212	357.419039288347	1.2585353095606
24	45403	358.677574597908	0.16184288584104
24	45411	358.839417483749	0.93497254503206
24	45514	359.774390028781	0.31221193013987
24	45521	360.086601958921	1.5832290705611
24	45745	361.669831029482	0.046481339408794
24	45757	361.716312368891	0.1688999961712
24	45772	361.885212365062	0.030963383892163
24	45778	361.916175748954	1.8741153346028
24	46024	363.790291083557	0.10387891615072
24	46036	363.894169999708	0.14131449408447
24	46068	364.035484493792	0.47948157928823
24	46126	364.51496607308	0.5990225228961
24	46194	365.113988595976	0.14257060898673
24	46215	365.256559204963	0.23433280072716
24	46245	365.49089200569	0.1151384154174
24	46250	365.606030421107	0.0047050710134019
24	46251	365.61073549212	0.14975760218099
24	46280	365.760493094301	0.51243614271405
24	46319	366.272929237015	1.1804306507049
24	46433	367.45335988772	0.46292497466422
24	46467	367.916284862384	0.046832994249503
24	46469	367.963117856634	0.079288266363365
24	46474	368.042406122997	0.074817555235946
24	46484	368.117223678233	0.32995994738958
24	46536	368.447183625623	0.42224426240942
24	46604	368.869427888032	0.05314582722561
24	46606	368.922573715258	1.0812689241689
24	46757	370.003842639427	0.16497240471664
24	46794	370.168815044144	0.21696492384745
24	46829	370.385779967991	0.1966120373908
24	46855	370.582392005382	1.0873008890285
24	46997	371.669692894411	0.32554102160308
24	47030	371.995233916014	0.63574471110817
24	47117	372.630978627122	0.077864921243611
24	47126	372.708843548366	1.0830079856075
24	47245	373.791851533974	0.7695369614745
24	47321	374.561388495448	0.85593919737999
24	47408	375.417327692828	0.80264752714987
24	47520	376.219975219978	0.65685797688007
24	47623	376.876833196858	0.47347705078755
24	47695	377.350310247646	2.1803161468269
24	47952	379.530626394473	0.14013111561513
24	47971	379.670757510088	0.39947152777352
24	48010	380.070229037862	0.081970780191597
24	48017	380.152199818054	0.015994289889767
24	48018	380.168194107944	0.96277157958
24	48140	381.130965687524	0.17896261344903
24	48159	381.309928300973	2.2253039078439
24	48456	383.535232208817	0.88228897207052
24	48533	384.417521180888	0.086741396209631
24	48542	384.504262577098	1.1232901572067
24	48695	385.627552734305	0.51387762040767
24	48757	386.141430354713	1.3023603291572
24	48885	387.44379068387	0.48594990107876
24	48952	387.929740584949	0.18769089080536
24	48996	388.117431475754	0.21570383189535
24	49039	388.333135307649	0.51483947296272
24	49153	388.847974780612	0.30241608081844
24	49196	389.15039086143	0.10856504537867
24	49213	389.258955906809	0.011902185516311
24	49217	389.270858092325	0.31732200534736
24	49270	389.588180097672	0.44623642316173
24	49326	390.034416520834	0.18476233671152
24	49348	390.219178857546	0.5280368486947
24	49389	390.747215706241	0.80092050852561
24	49515	391.548136214767	0.19203438561789
24	49535	391.740170600385	0.17882130874294
24	49565	391.918991909128	0.85277307533486
24	49669	392.771764984463	1.2410035773603
24	49825	394.012768561823	0.7543669818929
24	49933	394.767135543716	2.7130676989691
24	50214	397.480203242685	0.44678211737792
24	50279	397.926985360063	0.47734121436385
24	50371	398.404326574427	0.27589122230124
24	50389	398.680217796728	0.33323198072604
24	50430	399.013449777454	0.48354738681094
24	50487	399.496997164265	0.19015421095722
24	50518	399.687151375222	1.7615944196922

