version 2
run Exponential-capacity-38-20210216-13:46:20-16904
attr configname Exponential-capacity
attr datetime 20210216-13:46:20
attr experiment Exponential-capacity
attr inifile aerocom.ini
attr iterationvars "$0=2, $1=50, $2=0.5, $3=0.5"
attr iterationvarsf 2,50,0.5,0.5-
attr measurement "$0=2, $1=50, $2=0.5, $3=0.5"
attr network Aerocom
attr processid 16904
attr repetition 2
attr replication #2
attr resultdir results
attr runnumber 38
attr seedset 2
param **.t 2s
param **.k 50ms
param **.X 0.5s
param **.m 0.5s
param **.tDistribution "\"exponential\""
param **.operationMode 0
param **.s "70 byte"
param **.dimPoolMax 10000
param **.dimPoolMin 8000
param **.nDL 10
param **.nA 1
param **.DLMaxCapacity 0
param **.trasmitting false

vector 0 Aerocom.aircraft[0].dataLink[0] actualCapacity:vector ETV
attr "" ""
attr source computeActualCapacity
vector 1 Aerocom.aircraft[0].dataLink[1] actualCapacity:vector ETV
attr "" ""
attr source computeActualCapacity
vector 2 Aerocom.aircraft[0].dataLink[2] actualCapacity:vector ETV
attr "" ""
attr source computeActualCapacity
vector 3 Aerocom.aircraft[0].dataLink[3] actualCapacity:vector ETV
attr "" ""
attr source computeActualCapacity
vector 4 Aerocom.aircraft[0].dataLink[4] actualCapacity:vector ETV
attr "" ""
attr source computeActualCapacity
vector 5 Aerocom.aircraft[0].dataLink[5] actualCapacity:vector ETV
attr "" ""
attr source computeActualCapacity
vector 6 Aerocom.aircraft[0].dataLink[6] actualCapacity:vector ETV
attr "" ""
attr source computeActualCapacity
vector 7 Aerocom.aircraft[0].dataLink[7] actualCapacity:vector ETV
attr "" ""
attr source computeActualCapacity
vector 8 Aerocom.aircraft[0].dataLink[8] actualCapacity:vector ETV
attr "" ""
attr source computeActualCapacity
vector 9 Aerocom.aircraft[0].dataLink[9] actualCapacity:vector ETV
attr "" ""
attr source computeActualCapacity
vector 10 Aerocom.aircraft[0].packetGenerator arrivalTime:vector ETV
attr "" ""
attr source computeArrivalTime
vector 11 Aerocom.aircraft[0].linkSelector waitingTime:vector ETV
attr "" ""
attr source computeWaitingTime
vector 12 Aerocom.aircraft[0].linkSelector queueLength:vector ETV
attr "" ""
attr source computeQueueLength
vector 13 Aerocom.aircraft[0].linkSelector serviceTime:vector ETV
attr "" ""
attr source computeServiceTime
vector 14 Aerocom.aircraft[0].linkSelector responseTime:vector ETV
attr "" ""
attr source computeResponseTime
vector 15 Aerocom.aircraft[0].dataLink[0] tDistribution:vector ETV
attr "" ""
attr source computeTDistribution
vector 16 Aerocom.aircraft[0].dataLink[5] tDistribution:vector ETV
attr "" ""
attr source computeTDistribution
vector 17 Aerocom.aircraft[0].dataLink[2] tDistribution:vector ETV
attr "" ""
attr source computeTDistribution
vector 18 Aerocom.aircraft[0].dataLink[9] tDistribution:vector ETV
attr "" ""
attr source computeTDistribution
vector 19 Aerocom.aircraft[0].dataLink[8] tDistribution:vector ETV
attr "" ""
attr source computeTDistribution
vector 20 Aerocom.aircraft[0].dataLink[1] tDistribution:vector ETV
attr "" ""
attr source computeTDistribution
vector 21 Aerocom.aircraft[0].dataLink[6] tDistribution:vector ETV
attr "" ""
attr source computeTDistribution
vector 22 Aerocom.aircraft[0].dataLink[3] tDistribution:vector ETV
attr "" ""
attr source computeTDistribution
vector 23 Aerocom.aircraft[0].dataLink[7] tDistribution:vector ETV
attr "" ""
attr source computeTDistribution
vector 24 Aerocom.aircraft[0].dataLink[4] tDistribution:vector ETV
attr "" ""
attr source computeTDistribution
0	1086	10	8593
0	1156	10.5	8604
0	1207	11	8588
0	1257	11.5	8572
0	1315	12	8798
0	1371	12.5	8832
0	1446	13	8826
0	1513	13.5	8853
0	1571	14	8896
0	1611	14.5	8940
0	1641	15	8983
0	1721	15.5	8985
0	1759	16	8939
0	1830	16.5	8893
0	1870	17	8847
0	1957	17.5	8801
0	2008	18	8755
0	2083	18.5	8709
0	2168	19	8663
0	2239	19.5	8617
0	2293	20	8571
0	2341	20.5	8525
0	2396	21	8479
0	2466	21.5	8433
0	2529	22	8388
0	2576	22.5	8342
0	2616	23	8296
0	2692	23.5	8250
0	2765	24	8204
0	2845	24.5	8196
0	2893	25	8217
0	2953	25.5	8239
0	2987	26	8260
0	3067	26.5	8282
0	3123	27	8304
0	3161	27.5	8325
0	3216	28	8347
0	3284	28.5	8368
0	3334	29	8390
0	3394	29.5	8411
0	3448	30	8433
0	3496	30.5	8455
0	3572	31	8476
0	3628	31.5	8498
0	3655	32	8549
0	3712	32.5	8705
0	3754	33	8861
0	3793	33.5	9017
0	3851	34	9173
0	3908	34.5	9310
0	3965	35	9234
0	4008	35.5	9157
0	4061	36	9080
0	4130	36.5	9003
0	4174	37	8927
0	4249	37.5	8850
0	4302	38	8798
0	4353	38.5	8750
0	4404	39	8701
0	4466	39.5	8653
0	4519	40	8605
0	4576	40.5	8556
0	4622	41	8508
0	4655	41.5	8460
0	4707	42	8412
0	4798	42.5	8330
0	4858	43	8053
0	4899	43.5	8041
0	4965	44	8044
0	5028	44.5	8048
0	5110	45	8051
0	5161	45.5	8055
0	5220	46	8058
0	5247	46.5	8061
0	5298	47	8065
0	5355	47.5	9248
0	5419	48	9458
0	5460	48.5	9667
0	5535	49	9841
0	5575	49.5	9802
0	5644	50	9585
0	5688	50.5	9369
0	5771	51	9153
0	5822	51.5	8937
0	5884	52	8721
0	5912	52.5	8505
0	5977	53	8289
0	6016	53.5	8072
0	6055	54	9982
0	6058	54.123055354344	9979
0	6064	54.24595767307	9976
0	6070	54.273209228592	9976
0	6073	54.280226069009	9976
0	6080	54.323605492224	9975
0	6085	54.5	9971
0	6088	54.532261850958	9970
0	6093	54.653384036686	9967
0	6098	54.662401868398	9967
0	6103	54.67079148077	9967
0	6108	54.756987733035	9965
0	6114	54.774196261016	9964
0	6119	54.804351724202	9964
0	6124	54.856452928808	9962
0	6129	54.913060145015	9961
0	6134	54.922883426877	9961
0	6137	54.929910833764	9961
0	6144	54.943293600611	9960
0	6149	54.958416146359	9960
0	6154	55	9959
0	6157	55.096018568474	9957
0	6162	55.126727825254	9956
0	6167	55.14563679981	9956
0	6172	55.2408489963	9954
0	6175	55.247881345105	9953
0	6183	55.365363915689	9942
0	6188	55.399954319895	9934
0	6193	55.416100703345	9930
0	6196	55.423150048763	9928
0	6201	55.430200814275	9927
0	6208	55.438065345939	9925
0	6213	55.457224480498	9920
0	6217	55.5	9909
0	6223	55.61247054113	9882
0	6228	55.63628837756	9876
0	6233	55.728397170746	9853
0	6238	55.772646227471	9842
0	6243	55.780697564941	9840
0	6248	55.791369158073	9838
0	6253	55.805500466603	9834
0	6259	55.838241368609	9826
0	6263	55.845365325458	9824
0	6270	55.868610262807	9819
0	6275	55.879757299354	9816
0	6280	55.959626493496	9796
0	6285	56	9786
0	6288	56.042406302943	9776
0	6291	56.049566695742	9774
0	6300	56.171563533981	9744
0	6303	56.178747442027	9742
0	6310	56.222993614979	9732
0	6316	56.282881064662	9717
0	6319	56.290084934169	9715
0	6326	56.320472962765	9708
0	6332	56.355260150234	9699
0	6337	56.372431744636	9695
0	6342	56.42748352789	9681
0	6346	56.5	9663
0	6350	56.532778906407	9655
0	6353	56.540029035874	9654
0	6360	56.640089315036	9629
0	6365	56.683728753824	9618
0	6368	56.691006774202	9617
0	6375	56.758751710687	9600
0	6380	56.789780700724	9592
0	6385	56.814137552294	9586
0	6390	56.86828950609	9573
0	6395	56.955616064366	9551
0	6400	56.98783160641	9544
0	6405	56.997134365296	9541
0	6406	57	9541
0	6448	57.5	9418
0	6529	58	9295
0	6572	58.5	9172
0	6595	59	9049
0	6645	59.5	8926
0	6687	60	8803
0	6733	60.5	8680
0	6796	61	8181
0	6860	61.5	8435
0	6927	62	8738
0	7001	62.5	8814
0	7077	63	8783
0	7147	63.5	8752
0	7211	64	8721
0	7256	64.5	8689
0	7307	65	8658
0	7393	65.5	8627
0	7463	66	8595
0	7496	66.5	8564
0	7575	67	8533
0	7629	67.5	8502
0	7677	68	8470
0	7712	68.5	8439
0	7750	69	8408
0	7784	69.5	8450
0	7835	70	8540
0	7887	70.5	8506
0	7960	71	8453
0	8015	71.5	8400
0	8047	72	8348
0	8112	72.5	8295
0	8157	73	8242
0	8205	73.5	8190
0	8284	74	8137
0	8304	74.5	9185
0	8366	75	9329
0	8416	75.5	9189
0	8461	76	9049
0	8519	76.5	8908
0	8579	77	8743
0	8622	77.5	9209
0	8659	78	9157
0	8714	78.5	9104
0	8782	79	9052
0	8884	79.5	9000
0	8929	80	8948
0	8993	80.5	8895
0	9042	81	8843
0	9085	81.5	8791
0	9144	82	8739
0	9208	82.5	8686
0	9257	83	8634
0	9307	83.5	8582
0	9365	84	8530
0	9423	84.5	8478
0	9471	85	8425
0	9509	85.5	8373
0	9561	86	8321
0	9609	86.5	8683
0	9699	87	9143
0	9741	87.5	9094
0	9805	88	9046
0	9849	88.5	8997
0	9924	89	9008
0	10016	89.5	9203
0	10078	90	9398
0	10153	90.5	9592
0	10212	91	9787
0	10215	91.035559336735	9801
0	10220	91.06080214178	9811
0	10225	91.090890507358	9822
0	10230	91.237715146901	9879
0	10235	91.249723616946	9884
0	10240	91.256805769921	9887
0	10243	91.263885773967	9890
0	10250	91.283701747183	9897
0	10258	91.5	9964
0	10261	91.522615471019	9960
0	10266	91.535222214082	9957
0	10272	91.722327878269	9917
0	10275	91.729386464535	9915
0	10280	91.736446474621	9914
0	10285	91.743507196832	9912
0	10294	91.847141449449	9890
0	10300	92	9857
0	10303	92.086035248025	9838
0	10308	92.309340053935	9790
0	10311	92.316490207153	9789
0	10318	92.328043584671	9786
0	10324	92.440556427391	9762
0	10328	92.5	9749
0	10331	92.531764127396	9742
0	10338	92.64250524581	9719
0	10343	92.679424474279	9711
0	10348	92.851610282285	9674
0	10353	92.888841703779	9666
0	10358	92.897647917096	9664
0	10361	92.904891294579	9662
0	10368	92.915061583394	9660
0	10373	92.945329632758	9654
0	10378	92.967246779467	9649
0	10382	93	9642
0	10415	93.5	9534
0	10479	94	9482
0	10533	94.5	9448
0	10589	95	9415
0	10644	95.5	9381
0	10697	96	9347
0	10756	96.5	9314
0	10809	97	9280
0	10879	97.5	9246
0	10923	98	9213
0	10981	98.5	9179
0	11037	99	9145
0	11075	99.5	9112
0	11127	100	9078
0	11199	100.5	9044
0	11276	101	9093
0	11352	101.5	9171
0	11399	102	9247
0	11461	102.5	9319
0	11495	103	9390
0	11541	103.5	9461
0	11592	104	9533
0	11596	104.006823806844	9534
0	11603	104.04948241943	9540
0	11608	104.067830760374	9542
0	11613	104.238038514561	9567
0	11618	104.267813046073	9571
0	11623	104.278103838755	9572
0	11628	104.367116953729	9585
0	11633	104.495108226893	9603
0	11634	104.5	9604
0	11643	104.598547265039	9618
0	11646	104.605825285417	9619
0	11653	104.667133486836	9628
0	11659	104.774678241022	9643
0	11666	104.794269735179	9646
0	11671	104.816917355453	9649
0	11677	104.903755351997	9662
0	11683	104.946745286652	9668
0	11688	104.958783505638	9669
0	11693	104.98581149142	9673
0	11697	105	9675
0	11700	105.029834716385	9680
0	11705	105.09766946204	9689
0	11708	105.10489414983	9690
0	11718	105.158204727686	9698
0	11725	105.263586314425	9713
0	11728	105.270793150624	9714
0	11737	105.31473097974	9720
0	11743	105.33896978961	9724
0	11748	105.352861061657	9726
0	11755	105.457987203979	9741
0	11761	105.480000357402	9744
0	11766	105.5	9747
0	11769	105.548564538041	9754
0	11774	105.582775483486	9759
0	11779	105.592880428189	9760
0	11784	105.671096430305	9771
0	11790	105.705629258655	9776
0	11795	105.739035013405	9781
0	11800	105.8525883868	9797
0	11805	105.906662778236	9805
0	11810	105.923573714451	9807
0	11814	105.930711473195	9806
0	11822	105.974377697914	9788
0	11827	105.990091659219	9781
0	11831	106	9777
0	11834	106.099868135771	9737
0	11840	106.157661278724	9713
0	11845	106.302012812457	9654
0	11850	106.5	9574
0	11900	107	9370
0	11951	107.5	9167
0	11996	108	9185
0	12080	108.5	9451
0	12125	109	9717
0	12160	109.5	8170
0	12247	110	8492
0	12283	110.5	8814
0	12317	111	9136
0	12379	111.5	9417
0	12423	112	9563
0	12439	112.5	9708
0	12482	113	9853
0	12519	113.5	9876
0	12567	114	9774
0	12651	114.5	9672
0	12654	114.522849030387	9667
0	12659	114.657024595159	9640
0	12664	114.723854589886	9626
0	12669	114.763758755735	9618
0	12674	114.788532792271	9613
0	12679	114.952876245581	9579
0	12683	115	9570
0	12686	115.067612757434	9556
0	12691	115.079163452334	9553
0	12697	115.162113044999	9537
0	12702	115.282473780323	9512
0	12705	115.289832905638	9510
0	12712	115.366632335016	9495
0	12715	115.374004636227	9493
0	12723	115.470247607205	9474
0	12728	115.495657980269	9468
0	12729	115.5	9468
0	12796	116	9366
0	12872	116.5	9263
0	12911	117	9161
0	12972	117.5	9059
0	12998	118	8957
0	13062	118.5	8855
0	13104	119	8753
0	13140	119.5	8651
0	13226	120	8549
0	13284	120.5	8685
0	13336	121	8756
0	13406	121.5	8827
0	13440	122	8897
0	13505	122.5	8968
0	13546	123	8860
0	13621	123.5	8816
0	13700	124	8843
0	13783	124.5	8870
0	13827	125	8897
0	13857	125.5	8924
0	13925	126	8951
0	13955	126.5	8978
0	13993	127	9005
0	14057	127.5	9032
0	14098	128	9059
0	14174	128.5	9085
0	14241	129	9112
0	14298	129.5	9139
0	14374	130	9166
0	14411	130.5	9193
0	14468	131	9220
0	14511	131.5	9247
0	14546	132	9274
0	14604	132.5	9301
0	14658	133	9328
0	14702	133.5	9354
0	14775	134	9065
0	14814	134.5	8616
0	14869	135	8706
0	14944	135.5	8863
0	14990	136	9230
0	15050	136.5	9324
0	15148	137	9418
0	15184	137.5	9432
0	15238	138	9353
0	15315	138.5	9275
0	15364	139	9197
0	15426	139.5	9145
0	15493	140	9187
0	15547	140.5	9229
0	15598	141	9272
0	15663	141.5	9314
0	15700	142	9356
0	15772	142.5	9399
0	15816	143	9441
0	15852	143.5	9483
0	15905	144	9525
0	15974	144.5	9568
0	16044	145	9610
0	16081	145.5	9652
0	16098	146	9695
0	16151	146.5	9616
0	16228	147	9432
0	16270	147.5	9247
0	16319	148	9062
0	16368	148.5	8877
0	16422	149	8693
0	16463	149.5	8508
0	16509	150	8323
0	16567	150.5	8258
0	16678	151	8963
0	16711	151.5	9668
0	16714	151.511686715179	9684
0	16720	151.643820859429	9871
0	16725	151.665403284401	9901
0	16731	151.74619544966	9963
0	16737	151.882053668339	9880
0	16742	151.932621473681	9850
0	16747	151.964124788344	9830
0	16751	152	9809
0	16754	152.074652663858	9763
0	16759	152.1897394441	9693
0	16765	152.354389633071	9593
0	16770	152.445473194035	9538
0	16774	152.5	9505
0	16838	153	9151
0	16902	153.5	8789
0	16989	154	9751
0	16992	154.031992051058	9734
0	16997	154.044170624862	9728
0	17002	154.113464746585	9692
0	17008	154.190060732661	9652
0	17013	154.253244825567	9619
0	17016	154.260522089316	9616
0	17021	154.267801623426	9612
0	17028	154.310057285693	9590
0	17033	154.329155714265	9580
0	17038	154.336888665852	9576
0	17043	154.352418107096	9568
0	17048	154.486701006993	9499
0	17052	154.5	9492
0	17114	155	9233
0	17182	155.5	9495
0	17232	156	9465
0	17315	156.5	9312
0	17368	157	9160
0	17408	157.5	9007
0	17460	158	8859
0	17492	158.5	8713
0	17535	159	8567
0	17587	159.5	8421
0	17630	160	8275
0	17690	160.5	8151
0	17746	161	8208
0	17811	161.5	8265
0	17874	162	8322
0	17940	162.5	8379
0	17980	163	8219
0	18050	163.5	8373
0	18093	164	8527
0	18151	164.5	8680
0	18222	165	8834
0	18264	165.5	8988
0	18316	166	9141
0	18342	166.5	9295
0	18404	167	9449
0	18456	167.5	9602
0	18459	167.638113311764	9645
0	18464	167.737723729759	9675
0	18469	167.780537893111	9689
0	18474	167.801781806293	9695
0	18479	167.918401016792	9731
0	18484	168	9756
0	18487	168.039731268352	9768
0	18492	168.105751482297	9789
0	18497	168.227645289804	9826
0	18502	168.243750415276	9831
0	18508	168.288500110029	9837
0	18514	168.32245801329	9822
0	18519	168.348535795765	9811
0	18525	168.5	9744
0	18528	168.556314456892	9719
0	18533	168.588686714034	9705
0	18538	168.623153504686	9690
0	18543	168.640497018798	9682
0	18548	168.659100041751	9674
0	18553	168.728680408059	9644
0	18558	168.782480992269	9620
0	18563	168.834487077367	9597
0	18568	168.846568230418	9592
0	18573	168.89550263969	9570
0	18579	168.983725187511	9532
0	18583	169	9525
0	18648	169.5	9305
0	18700	170	9086
0	18748	170.5	8866
0	18781	171	8760
0	18796	171.5	8821
0	18849	172	8882
0	18879	172.5	8943
0	18910	173	9004
0	18972	173.5	9065
0	19050	174	9126
0	19119	174.5	9187
0	19184	175	9248
0	19230	175.5	9309
0	19279	176	9370
0	19330	176.5	9431
0	19408	177	9492
0	19437	177.5	9553
0	19488	178	9614
0	19491	178.025519865286	9617
0	19497	178.133552232803	9630
0	19503	178.158138510849	9633
0	19511	178.388792109638	9648
0	19516	178.464032499923	9637
0	19521	178.477124246623	9635
0	19525	178.5	9631
0	19575	179	9554
0	19620	179.5	9478
0	19642	180	9401
0	19703	180.5	9324
0	19746	181	9247
0	19792	181.5	9170
0	19851	182	9093
0	19888	182.5	9017
0	19929	183	8851
0	19938	183.5	8583
0	19981	184	8560
0	20044	184.5	8723
0	20121	185	8887
0	20177	185.5	9050
0	20244	186	8199
0	20261	186.5	8555
0	20335	187	8911
0	20400	187.5	9267
0	20460	188	9623
0	20514	188.5	9648
0	20548	189	9390
0	20598	189.5	9133
0	20634	190	8875
0	20682	190.5	8618
0	20761	191	8360
0	20866	191.5	8930
0	20914	192	9634
0	20917	192.044526316169	9697
0	20924	192.179270781654	9596
0	20929	192.208381035114	9558
0	20934	192.234294289827	9525
0	20940	192.264583420375	9486
0	20945	192.277988584372	9469
0	20950	192.311861202136	9426
0	20955	192.32967976912	9403
0	20960	192.337151694852	9393
0	20967	192.46431131587	9286
0	20970	192.471849545463	9284
0	20976	192.5	9276
0	21031	193	9130
0	21096	193.5	8984
0	21161	194	8839
0	21193	194.5	8693
0	21243	195	8547
0	21283	195.5	8402
0	21335	196	8296
0	21403	196.5	8291
0	21445	197	8286
0	21487	197.5	8282
0	21533	198	8277
0	21592	198.5	8272
0	21671	199	8267
0	21727	199.5	8262
0	21767	200	8274
0	21801	200.5	8660
0	21858	201	9046
0	21922	201.5	9152
0	21986	202	8844
0	22033	202.5	8535
0	22085	203	8226
0	22145	203.5	8223
0	22222	204	8424
0	22285	204.5	8625
0	22334	205	8826
0	22402	205.5	9027
0	22470	206	9216
0	22541	206.5	9280
0	22544	206.507033190519	9281
0	22551	206.594794177148	9292
0	22558	206.665824877185	9302
0	22563	206.674457534839	9303
0	22577	206.932918036211	9336
0	22580	206.940415893966	9337
0	22589	206.987690596685	9343
0	22594	207	9345
0	22597	207.020627554111	9347
0	22602	207.057801477888	9352
0	22607	207.074085443761	9354
0	22612	207.100354935072	9357
0	22618	207.143417573587	9363
0	22624	207.227156771296	9374
0	22627	207.234624234492	9375
0	22634	207.261797999894	9378
0	22637	207.269262277992	9379
0	22644	207.354841672496	9390
0	22647	207.36229641158	9391
0	22654	207.378968030099	9393
0	22659	207.458621131732	9403
0	22664	207.466604093107	9404
0	22669	207.483589067047	9407
0	22673	207.5	9409
0	22676	207.516119343017	9411
0	22681	207.548911924531	9415
0	22686	207.564935321447	9417
0	22691	207.573034690392	9418
0	22696	207.692124372481	9433
0	22702	207.86203650636	9455
0	22707	208	9473
0	22710	208.044717654365	9479
0	22716	208.092458883751	9485
0	22721	208.113802001753	9488
0	22725	208.121179742057	9489
0	22733	208.192522518537	9498
0	22736	208.199892491163	9499
0	22743	208.253189890628	9506
0	22746	208.260553660878	9507
0	22753	208.297617644606	9511
0	22758	208.344026137101	9517
0	22763	208.355480018794	9519
0	22768	208.460179540604	9532
0	22772	208.5	9537
0	22837	209	9602
0	22905	209.5	9666
0	22980	210	9730
0	23025	210.5	9794
0	23098	211	9818
0	23176	211.5	9445
0	23224	212	9072
0	23262	212.5	8755
0	23305	213	8884
0	23376	213.5	8610
0	23426	214	8326
0	23503	214.5	8190
0	23568	215	8802
0	23629	215.5	9395
0	23656	216	9295
0	23689	216.5	9196
0	23718	217	9097
0	23762	217.5	8998
0	23842	218	8929
0	23919	218.5	8861
0	23986	219	8794
0	24046	219.5	8726
0	24067	220	8659
0	24137	220.5	8591
0	24183	221	8524
0	24239	221.5	8457
0	24315	222	8389
0	24366	222.5	8322
0	24434	223	8254
0	24498	223.5	8366
0	24551	224	8502
0	24609	224.5	8660
0	24664	225	8852
0	24718	225.5	9044
0	24769	226	9237
0	24827	226.5	9429
0	24891	227	9622
0	24894	227.066194373897	9647
0	24899	227.089701163287	9656
0	24904	227.118595703386	9667
0	24909	227.182184630273	9692
0	24915	227.347072226966	9755
0	24922	227.393820801613	9773
0	24925	227.400983392424	9776
0	24932	227.463244639197	9800
0	24935	227.47038749634	9802
0	24942	227.486675792603	9809
0	24946	227.5	9814
0	24950	227.601934046349	9853
0	24955	227.627308246472	9863
0	24960	227.744662272568	9908
0	24968	227.87055546174	9873
0	24972	228	9832
0	24975	228.068041415917	9811
0	24978	228.075176264556	9809
0	24985	228.121650650429	9794
0	24990	228.14236381312	9788
0	24993	228.149515427341	9785
0	25000	228.162451546011	9781
0	25006	228.216707249371	9764
0	25011	228.325618316708	9730
0	25016	228.376849497149	9714
0	25021	228.385948090216	9711
0	25026	228.444941372514	9692
0	25030	228.5	9675
0	25033	228.52708033091	9667
0	25039	228.542295932537	9662
0	25045	228.580101159436	9650
0	25048	228.587355045446	9648
0	25055	228.624915539244	9636
0	25060	228.655378070225	9626
0	25065	228.71027352758	9609
0	25070	228.806983715235	9579
0	25075	228.895302009244	9551
0	25078	228.902631084733	9548
0	25084	229	9518
0	25153	229.5	9361
0	25195	230	9203
0	25244	230.5	9046
0	25288	231	8889
0	25351	231.5	8732
0	25423	232	8712
0	25492	232.5	8740
0	25540	233	8768
0	25619	233.5	8796
0	25700	234	8824
0	25763	234.5	8851
0	25841	235	8879
0	25889	235.5	8907
0	25967	236	8935
0	26030	236.5	8963
0	26095	237	8991
0	26128	237.5	9018
0	26179	238	9046
0	26239	238.5	9074
0	26281	239	9102
0	26310	239.5	9130
0	26382	240	9158
0	26428	240.5	9186
0	26471	241	8935
0	26521	241.5	8474
0	26586	242	8155
0	26616	242.5	8119
0	26665	243	8083
0	26710	243.5	8047
0	26740	244	8011
0	26774	244.5	8175
0	26817	245	8439
0	26872	245.5	8703
0	26940	246	8967
0	26989	246.5	9231
0	27030	247	9321
0	27079	247.5	9344
0	27138	248	9330
0	27220	248.5	9316
0	27268	249	9302
0	27307	249.5	9307
0	27350	250	9376
0	27413	250.5	9445
0	27473	251	9514
0	27511	251.5	9584
0	27547	252	9653
0	27595	252.5	9722
0	27626	253	9791
0	27629	253.032944489127	9796
0	27634	253.055510640728	9799
0	27639	253.064664316222	9800
0	27643	253.071807173365	9801
0	27649	253.078949301719	9802
0	27654	253.086090701433	9803
0	27661	253.109588185077	9806
0	27666	253.143374425999	9811
0	27672	253.179568774853	9816
0	27675	253.186699989197	9817
0	27682	253.239705428745	9824
0	27687	253.270752152403	9829
0	27690	253.277873934883	9830
0	27695	253.284994992869	9831
0	27702	253.394387649148	9846
0	27707	253.405442838969	9847
0	27712	253.430762301461	9851
0	27715	253.437868179037	9852
0	27722	253.489367098087	9859
0	27726	253.5	9861
0	27729	253.543134018162	9866
0	27734	253.553164535897	9868
0	27737	253.560258171892	9869
0	27748	253.721180207235	9891
0	27751	253.72825734807	9892
0	27756	253.735333773464	9893
0	27764	253.896980473377	9915
0	27767	253.904040483463	9916
0	27774	253.951402990106	9923
0	27780	253.972627665834	9926
0	27784	254	9930
0	27787	254.078035512575	9941
0	27792	254.087745229161	9942
0	27798	254.162286708828	9952
0	27803	254.220124285968	9960
0	27807	254.227152398418	9954
0	27812	254.234184747223	9946
0	27819	254.254086606534	9923
0	27822	254.261140924785	9914
0	27831	254.345151911319	9816
0	27836	254.415632527074	9733
0	27842	254.499804952629	9634
0	27843	254.5	9634
0	27847	254.507070885782	9626
0	27852	254.514342857525	9617
0	27860	254.529897087114	9599
0	27866	254.604330822663	9512
0	27871	254.684640830991	9417
0	27876	254.751382801739	9339
0	27883	254.851516315253	9269
0	27888	254.8680187004	9307
0	27894	254.886647579155	9350
0	27899	254.899739723004	9380
0	27904	254.937051799381	9466
0	27908	255	9611
0	27915	255.111351488746	9868
0	27922	255.121615774196	9892
0	27932	255.266143059328	9883
0	27938	255.337043369589	9839
0	27944	255.372413613573	9817
0	27952	255.411530264	9793
0	27957	255.435934741751	9778
0	27962	255.443212732256	9773
0	27968	255.453282263793	9767
0	27973	255.476294247078	9753
0	27977	255.5	9738
0	27982	255.681407948123	9626
0	27987	255.698227672425	9615
0	27993	255.845260688756	9524
0	27998	255.862272007402	9514
0	28003	255.873076728716	9507
0	28008	256	9428
0	28047	256.5	9118
0	28132	257	8809
0	28195	257.5	8499
0	28275	258	8189
0	28298	258.5	8263
0	28334	259	8568
0	28394	259.5	8873
0	28434	260	9178
0	28508	260.5	9229
0	28540	261	8679
0	28608	261.5	8129
0	28668	262	9940
0	28672	262.052301495899	9937
0	28677	262.081324024264	9935
0	28682	262.122468642251	9932
0	28687	262.140467145937	9931
0	28692	262.332447500542	9919
0	28697	262.369595923948	9916
0	28702	262.392741739355	9915
0	28707	262.412771041496	9914
0	28712	262.480735336278	9909
0	28716	262.5	9908
0	28719	262.511208852383	9907
0	28724	262.562373211057	9904
0	28729	262.570527027533	9903
0	28734	262.61976278654	9900
0	28739	262.678191107008	9896
0	28744	262.723215256422	9893
0	28751	262.77854601415	9890
0	28756	262.801518671653	9888
0	28761	262.842699585106	9886
0	28764	262.849780305316	9885
0	28771	262.881604378565	9883
0	28776	262.913691795716	9881
0	28780	263	9876
0	28783	263.018333847265	9874
0	28788	263.096671342137	9869
0	28793	263.125759029273	9867
0	28798	263.166174465052	9865
0	28801	263.17327025826	9864
0	28806	263.180366770831	9864
0	28814	263.219538823549	9861
0	28817	263.226637495083	9861
0	28824	263.241244827918	9860
0	28829	263.30060274966	9856
0	28834	263.31477205299	9855
0	28839	263.337362185292	9854
0	28844	263.356000343427	9853
0	28849	263.486203012069	9844
0	28853	263.5	9843
0	28856	263.539460886087	9841
0	28861	263.54775558473	9840
0	28866	263.555494985193	9840
0	28871	263.567583106538	9839
0	28876	263.604758034182	9836
0	28881	263.660101232763	9833
0	28886	263.678384954723	9832
0	28892	263.711449415727	9829
0	28898	263.763143749499	9826
0	28905	263.820546915928	9822
0	28910	263.828243833001	9822
0	28915	263.874569090907	9819
0	28920	263.894061240915	9818
0	28927	263.983683171122	9812
0	28931	264	9811
0	28934	264.015254902979	9810
0	28939	264.027736206041	9809
0	28944	264.103849443458	9804
0	28949	264.113345238447	9803
0	28954	264.140715800819	9802
0	28959	264.15510676269	9801
0	28964	264.166335947035	9800
0	28971	264.266785365542	9794
0	28976	264.301688755439	9791
0	28982	264.319917621829	9790
0	28987	264.463083614396	9781
0	28992	264.490111280609	9779
0	28996	264.5	9778
0	28999	264.532653797901	9776
0	29004	264.549153224096	9775
0	29009	264.569940883718	9774
0	29014	264.613633712536	9771
0	29019	264.621103245474	9771
0	29024	264.664683302571	9768
0	29027	264.671849559737	9767
0	29034	264.7322153059	9763
0	29037	264.739385233176	9763
0	29044	264.778668868033	9760
0	29049	264.795416322679	9759
0	29054	264.82803185925	9757
0	29059	264.869961712518	9754
0	29064	264.909434952858	9752
0	29069	264.966710073784	9748
0	29074	265	9746
0	29077	265.007409886957	9746
0	29082	265.07178901778	9741
0	29088	265.120993468865	9738
0	29094	265.184589180945	9734
0	29100	265.284191876689	9728
0	29105	265.302937712054	9726
0	29110	265.5	9714
0	29114	265.621095343231	9706
0	29120	265.672087289516	9703
0	29125	265.686546735011	9702
0	29130	265.790552973592	9695
0	29135	265.874261602376	9689
0	29140	265.916516016122	9687
0	29145	265.934986443066	9686
0	29149	266	9681
0	29152	266.014322114658	9680
0	29157	266.029845568524	9679
0	29162	266.053729282699	9678
0	29167	266.167248612451	9671
0	29172	266.182582617014	9670
0	29178	266.192277318719	9669
0	29186	266.282979114494	9663
0	29192	266.323881800086	9661
0	29198	266.38383151247	9664
0	29203	266.495909930296	9670
0	29204	266.5	9670
0	29210	266.558623207168	9673
0	29215	266.589673991389	9675
0	29220	266.597986074685	9676
0	29225	266.624693566091	9677
0	29230	266.817797427052	9688
0	29235	266.896150152317	9692
0	29239	267	9698
0	29244	267.062865341107	9701
0	29253	267.138804578307	9705
0	29256	267.146017355226	9705
0	29261	267.153230132145	9706
0	29269	267.237966875056	9711
0	29272	267.245175195517	9711
0	29279	267.264188302492	9712
0	29282	267.271395880746	9712
0	29290	267.338237677572	9716
0	29293	267.345442288523	9716
0	29301	267.384965205536	9719
0	29307	267.448366986646	9722
0	29310	267.455567151221	9722
0	29317	267.468900552952	9723
0	29321	267.5	9725
0	29324	267.513633385986	9726
0	29329	267.52699108033	9726
0	29335	267.542721131587	9727
0	29340	267.672772290154	9734
0	29345	267.723807108043	9737
0	29350	267.782812020837	9740
0	29355	267.83209460311	9743
0	29360	267.929867968911	9748
0	29365	267.948026331533	9749
0	29369	268	9752
0	29372	268.012512170973	9753
0	29379	268.102500445308	9758
0	29386	268.197051785972	9763
0	29392	268.260300784775	9766
0	29397	268.285739914185	9768
0	29402	268.300244667019	9768
0	29407	268.329502415727	9770
0	29412	268.367581820261	9772
0	29417	268.40103279175	9774
0	29423	268.429278140571	9776
0	29428	268.5	9779
0	29432	268.676279260097	9789
0	29438	268.764087531909	9794
0	29443	268.790919166989	9795
0	29448	268.818236207844	9797
0	29451	268.825381252245	9797
0	29459	268.851402615888	9799
0	29464	268.865525582749	9799
0	29467	268.872669168829	9800
0	29474	268.934285521924	9803
0	29479	268.949050379065	9804
0	29482	268.956190321945	9804
0	29489	268.992629131364	9806
0	29493	269	9807
0	29496	269.044927300333	9809
0	29501	269.105911339473	9812
0	29506	269.166863673812	9816
0	29511	269.232719057685	9819
0	29518	269.388443203152	9828
0	29523	269.431114292076	9830
0	29529	269.5	9795
0	29532	269.537120639801	9766
0	29537	269.553797282601	9753
0	29542	269.657340882988	9670
0	29547	269.772988075877	9578
0	29552	269.96187161022	9428
0	29557	270	9398
0	29614	270.5	9218
0	29639	271	9281
0	29677	271.5	8125
0	29733	272	8316
0	29785	272.5	8507
0	29836	273	8682
0	29900	273.5	8733
0	29928	274	8784
0	29992	274.5	8835
0	30024	275	8886
0	30057	275.5	8938
0	30102	276	8989
0	30183	276.5	9040
0	30267	277	9091
0	30336	277.5	9238
0	30387	278	9329
0	30473	278.5	9408
0	30535	279	9487
0	30600	279.5	9566
0	30647	280	9645
0	30717	280.5	9724
0	30720	280.559689046856	9734
0	30729	280.609954927075	9741
0	30738	280.666231348527	9750
0	30743	280.685072755833	9753
0	30748	280.729826703183	9760
0	30753	280.766479477506	9766
0	30758	280.778024423197	9768
0	30770	281	9803
0	30814	281.5	9882
0	30818	281.67872416574	9910
0	30824	281.752192552778	9922
0	30827	281.759247582006	9923
0	30835	281.806382248698	9931
0	30841	281.935307955251	9860
0	30845	282	9814
0	30848	282.035357498841	9789
0	30853	282.052201388989	9777
0	30858	282.068787888115	9765
0	30864	282.086101318541	9753
0	30871	282.173160370594	9691
0	30877	282.261879238162	9628
0	30882	282.277847030512	9617
0	30887	282.328670462933	9581
0	30892	282.340701594081	9572
0	30898	282.382390247848	9543
0	30903	282.5	9459
0	30906	282.556973537816	9418
0	30911	282.591035711171	9394
0	30916	282.609416014192	9381
0	30922	282.647412876388	9354
0	30928	282.758244808593	9275
0	30931	282.765791978404	9270
0	30938	282.795427855316	9249
0	30943	282.825738299137	9227
0	30950	282.890778144875	9181
0	30955	282.927687282872	9155
0	30960	282.962315599614	9130
0	30965	282.997578753859	9105
0	30966	283	9104
0	31040	283.5	8748
0	31119	284	8393
0	31175	284.5	8097
0	31219	285	8093
0	31311	285.5	8437
0	31346	286	8780
0	31388	286.5	9123
0	31432	287	9467
0	31505	287.5	9810
0	31508	287.506031895188	9814
0	31513	287.539592876834	9837
0	31518	287.556208494144	9849
0	31524	287.721484582546	9962
0	31529	287.735281484087	9971
0	31534	287.753227435593	9984
0	31540	287.808168445691	9723
0	31546	287.890954171465	9438
0	31549	287.898370997064	9438
0	31556	287.941762497332	9437
0	31560	288	9436
0	31602	288.5	9494
0	31633	289	8868
0	31685	289.5	9114
0	31758	290	9450
0	31764	290.088803685571	9394
0	31771	290.14413409241	9360
0	31774	290.146814808066	9358
0	31782	290.182948681423	9336
0	31788	290.214968409764	9316
0	31796	290.333063369106	9243
0	31802	290.377082385901	9215
0	31808	290.414738271351	9192
0	31815	290.46796474561	9159
0	31818	290.475607501369	9154
0	31824	290.483254431673	9149
0	31831	290.5	9139
0	31911	291	8828
0	31963	291.5	8517
0	32025	292	9078
0	32079	292.5	8634
0	32120	293	8217
0	32157	293.5	8373
0	32186	294	8530
0	32227	294.5	8686
0	32262	295	8842
0	32316	295.5	8999
0	32351	296	9155
0	32405	296.5	9152
0	32439	297	9128
0	32473	297.5	9104
0	32532	298	9080
0	32575	298.5	9056
0	32632	299	9032
0	32692	299.5	9007
0	32748	300	8983
0	32790	300.5	8959
0	32844	301	8935
0	32914	301.5	8911
0	32978	302	8887
0	33059	302.5	8863
0	33113	303	8839
0	33137	303.5	8814
0	33177	304	8790
0	33247	304.5	8766
0	33298	305	8742
0	33356	305.5	8718
0	33409	306	8694
0	33474	306.5	8670
0	33544	307	8645
0	33577	307.5	8621
0	33632	308	8597
0	33674	308.5	8573
0	33752	309	8549
0	33817	309.5	8525
0	33859	310	8501
0	33914	310.5	8477
0	33937	311	8452
0	33985	311.5	8428
0	34047	312	8404
0	34125	312.5	8380
0	34173	313	8356
0	34237	313.5	8332
0	34306	314	8412
0	34357	314.5	8755
0	34418	315	8890
0	34494	315.5	8676
0	34583	316	8462
0	34674	316.5	8249
0	34716	317	8134
0	34772	317.5	8146
0	34822	318	8157
0	34857	318.5	8168
0	34921	319	8179
0	34976	319.5	8190
0	35029	320	8202
0	35101	320.5	8213
0	35184	321	8224
0	35241	321.5	8235
0	35307	322	8246
0	35392	322.5	8879
0	35448	323	9022
0	35523	323.5	9164
0	35570	324	9307
0	35634	324.5	9288
0	35698	325	9213
0	35769	325.5	9030
0	35805	326	8592
0	35883	326.5	8698
0	35930	327	8772
0	35977	327.5	8797
0	36023	328	8823
0	36054	328.5	8848
0	36137	329	8874
0	36184	329.5	8899
0	36258	330	8924
0	36327	330.5	8950
0	36374	331	8203
0	36409	331.5	8185
0	36458	332	8168
0	36517	332.5	8151
0	36551	333	8134
0	36609	333.5	8117
0	36638	334	8099
0	36683	334.5	8082
0	36732	335	8065
0	36774	335.5	8343
0	36849	336	8844
0	36900	336.5	9344
0	36907	336.655845430667	9501
0	36910	336.663213076178	9508
0	36917	336.671240762389	9516
0	36922	336.705455276359	9550
0	36927	336.749253030309	9594
0	36932	336.770215960656	9615
0	36935	336.777496251868	9622
0	36940	336.784771246672	9630
0	36947	336.808231708969	9653
0	36952	336.847573086474	9693
0	36957	336.8563436948	9701
0	36962	336.87246066427	9718
0	36965	336.879663792486	9725
0	36972	336.932006993835	9777
0	36977	336.953372689972	9799
0	36982	336.975182990264	9820
0	36986	337	9845
0	36990	337.022797479585	9836
0	36995	337.065849609985	9812
0	37000	337.108031569918	9788
0	37009	337.181177231986	9748
0	37014	337.206793190098	9733
0	37020	337.218156565589	9727
0	37030	337.324944723054	9668
0	37033	337.332185103691	9664
0	37042	337.367542376866	9644
0	37045	337.374800775871	9640
0	37050	337.379663792486	9637
0	37059	337.415621230968	9617
0	37067	337.5	9570
0	37070	337.503791301221	9568
0	37075	337.608573966441	9509
0	37080	337.635512838534	9494
0	37085	337.669957009328	9475
0	37091	337.714005603239	9451
0	37096	337.732109771074	9441
0	37101	337.742748010132	9435
0	37106	337.843204279877	9379
0	37112	337.898665531428	9348
0	37115	337.906153764205	9344
0	37120	337.913645202561	9339
0	37125	337.921140651753	9335
0	37132	338	9291
0	37179	338.5	9208
0	37221	339	9127
0	37279	339.5	9046
0	37324	340	8964
0	37383	340.5	8883
0	37444	341	8802
0	37493	341.5	8869
0	37577	342	8979
0	37637	342.5	9088
0	37701	343	9169
0	37762	343.5	9241
0	37824	344	9284
0	37882	344.5	9321
0	37919	345	9359
0	37998	345.5	9396
0	38060	346	9434
0	38113	346.5	9472
0	38183	347	9509
0	38250	347.5	9547
0	38306	348	9584
0	38345	348.5	9607
0	38433	349	9522
0	38472	349.5	9438
0	38513	350	9353
0	38555	350.5	9268
0	38612	351	9183
0	38658	351.5	9109
0	38750	352	9036
0	38796	352.5	8963
0	38846	353	8921
0	38900	353.5	8995
0	38924	354	9069
0	38958	354.5	9143
0	39011	355	9217
0	39079	355.5	9291
0	39122	356	9365
0	39190	356.5	9439
0	39209	357	9513
0	39263	357.5	9587
0	39317	358	9642
0	39375	358.5	9675
0	39423	359	9708
0	39426	359.061764812977	9712
0	39431	359.068972391231	9712
0	39434	359.076179969485	9712
0	39441	359.090191040836	9713
0	39446	359.113276289035	9715
0	39451	359.146833169701	9717
0	39458	359.234817642877	9723
0	39463	359.278778511974	9726
0	39468	359.303528465803	9727
0	39473	359.354159390385	9731
0	39479	359.418560699995	9735
0	39484	359.431233727545	9736
0	39489	359.474058172401	9738
0	39494	359.486236901961	9739
0	39498	359.5	9740
0	39501	359.580958805376	9745
0	39506	359.602051649604	9747
0	39511	359.611597814922	9747
0	39516	359.618878471231	9748
0	39521	359.630838718146	9749
0	39526	359.642310254527	9749
0	39531	359.673430599514	9751
0	39537	359.794669746877	9759
0	39542	359.813110086864	9760
0	39547	359.862044705112	9764
0	39552	359.874245907276	9764
0	39557	359.909432985456	9767
0	39562	359.922080827177	9768
0	39568	359.966387236898	9770
0	39573	359.995989504433	9772
0	39574	360	9773
0	39580	360.025487753977	9774
0	39585	360.209990901787	9786
0	39591	360.307418771086	9755
0	39596	360.36216825005	9727
0	39601	360.407543413166	9703
0	39606	360.5	9655
0	39656	361	9394
0	39712	361.5	9134
0	39760	362	8882
0	39852	362.5	8774
0	39902	363	8666
0	39945	363.5	8558
0	40049	364	8482
0	40104	364.5	8494
0	40128	365	8505
0	40190	365.5	8517
0	40246	366	8529
0	40302	366.5	8541
0	40368	367	8553
0	40393	367.5	8565
0	40433	368	8577
0	40490	368.5	8588
0	40558	369	8600
0	40610	369.5	8612
0	40685	370	8768
0	40743	370.5	9008
0	40782	371	9247
0	40844	371.5	9190
0	40927	372	9758
0	40976	372.5	9623
0	41018	373	9489
0	41082	373.5	9354
0	41111	374	9220
0	41156	374.5	9085
0	41212	375	8983
0	41238	375.5	9063
0	41290	376	9068
0	41362	376.5	9073
0	41409	377	9077
0	41484	377.5	9082
0	41541	378	9087
0	41581	378.5	9092
0	41640	379	9097
0	41707	379.5	9102
0	41772	380	9106
0	41806	380.5	9367
0	41859	381	9342
0	41919	381.5	9318
0	41964	382	9293
0	42021	382.5	9269
0	42087	383	9244
0	42159	383.5	9220
0	42193	384	9195
0	42242	384.5	9171
0	42319	385	9146
0	42352	385.5	9122
0	42416	386	9097
0	42468	386.5	9073
0	42540	387	9048
0	42567	387.5	9024
0	42594	388	8999
0	42642	388.5	8975
0	42700	389	8950
0	42735	389.5	8856
0	42784	390	8616
0	42818	390.5	8818
0	42871	391	9019
0	42904	391.5	9220
0	42959	392	9422
0	43015	392.5	9623
0	43068	393	9713
0	43071	393.057988136003	9663
0	43076	393.078327728945	9646
0	43082	393.218958286627	9525
0	43087	393.318467594371	9440
0	43092	393.398345293102	9372
0	43096	393.5	9285
0	43156	394	8857
0	43209	394.5	8818
0	43247	395	9200
0	43312	395.5	9424
0	43349	396	9398
0	43399	396.5	9371
0	43442	397	9345
0	43513	397.5	9318
0	43572	398	9292
0	43627	398.5	9265
0	43675	399	9239
0	43755	399.5	9213
0	43831	400	9801
1	1086	10	8793
1	1156	10.5	8757
1	1207	11	8720
1	1257	11.5	8684
1	1315	12	8648
1	1371	12.5	9729
1	1446	13	9744
1	1513	13.5	9494
1	1571	14	9244
1	1611	14.5	8995
1	1641	15	8745
1	1721	15.5	8496
1	1759	16	8496
1	1830	16.5	8798
1	1870	17	9100
1	1957	17.5	9401
1	2008	18	9276
1	2083	18.5	9126
1	2168	19	8976
1	2239	19.5	8826
1	2293	20	8676
1	2341	20.5	8526
1	2396	21	8376
1	2466	21.5	8412
1	2529	22	8610
1	2576	22.5	8807
1	2616	23	9005
1	2692	23.5	8948
1	2765	24	8780
1	2845	24.5	8749
1	2893	25	8892
1	2953	25.5	9203
1	2987	26	9518
1	3067	26.5	9352
1	3123	27	9134
1	3161	27.5	8916
1	3216	28	8699
1	3284	28.5	8481
1	3334	29	8263
1	3394	29.5	8693
1	3448	30	9286
1	3496	30.5	9682
1	3572	31	9364
1	3628	31.5	9046
1	3655	32	8842
1	3712	32.5	9056
1	3754	33	9270
1	3793	33.5	9210
1	3851	34	9136
1	3908	34.5	9063
1	3965	35	8989
1	4008	35.5	8915
1	4061	36	8799
1	4130	36.5	8495
1	4174	37	9014
1	4249	37.5	9257
1	4302	38	9316
1	4353	38.5	9374
1	4404	39	9432
1	4466	39.5	9490
1	4519	40	9548
1	4576	40.5	9606
1	4622	41	9201
1	4655	41.5	8693
1	4707	42	9021
1	4798	42.5	9105
1	4858	43	9127
1	4899	43.5	9147
1	4965	44	9070
1	5028	44.5	9212
1	5110	45	9354
1	5161	45.5	9496
1	5220	46	9511
1	5247	46.5	9255
1	5298	47	9000
1	5355	47.5	8744
1	5419	48	8764
1	5460	48.5	8732
1	5535	49	8535
1	5575	49.5	8779
1	5644	50	9024
1	5688	50.5	9268
1	5771	51	9237
1	5822	51.5	9115
1	5884	52	9695
1	5890	52.035226646031	9784
1	5898	52.15832200517	9992
1	5901	52.165327609654	9991
1	5908	52.484838700895	9942
1	5912	52.5	9940
1	5916	52.509429185655	9939
1	5921	52.51878397147	9937
1	5927	52.548289438887	9933
1	5932	52.564953762627	9930
1	5937	52.608849060812	9924
1	5943	52.670722470705	9914
1	5949	52.730273207568	9905
1	5952	52.737340345377	9904
1	5960	52.797144073187	9895
1	5965	52.822516133529	9892
1	5971	52.867339470424	9885
1	5977	53	9865
1	5983	53.103063432439	9849
1	5988	53.118848469365	9847
1	5994	53.280284095943	9822
1	5999	53.306522632115	9819
1	6006	53.368769428102	9809
1	6011	53.443494142364	9798
1	6016	53.5	9789
1	6020	53.559620461599	9780
1	6025	53.590948907348	9776
1	6030	53.617574858369	9772
1	6035	53.643444865886	9768
1	6040	53.689955302227	9761
1	6045	53.786344586396	9746
1	6050	53.857163541897	9735
1	6055	54	9714
1	6085	54.5	9639
1	6154	55	9563
1	6217	55.5	9488
1	6285	56	9412
1	6346	56.5	9506
1	6406	57	9660
1	6410	57.004471122449	9662
1	6417	57.0173543329	9666
1	6422	57.079461906626	9685
1	6427	57.161188973958	9710
1	6433	57.246688111676	9732
1	6438	57.304374536783	9734
1	6444	57.45857419709	9739
1	6448	57.5	9740
1	6453	57.534736664998	9741
1	6456	57.54192278552	9741
1	6463	57.549133874348	9742
1	6468	57.577573230058	9742
1	6475	57.730889702858	9747
1	6478	57.73807139979	9747
1	6485	57.746586777753	9748
1	6491	57.759728696713	9748
1	6499	57.819420528836	9750
1	6504	57.844221840318	9751
1	6509	57.862669251469	9751
1	6512	57.869848002366	9752
1	6519	57.904771944506	9753
1	6524	57.914059433546	9753
1	6529	58	9756
1	6532	58.037017986267	9757
1	6537	58.065258329943	9758
1	6542	58.140456597678	9760
1	6547	58.174812361685	9761
1	6552	58.243933819693	9763
1	6558	58.326858322943	9766
1	6561	58.334026047702	9766
1	6568	58.400987360349	9768
1	6572	58.5	9771
1	6575	58.523211197361	9772
1	6580	58.539619252216	9773
1	6586	58.656311235729	9776
1	6591	58.83548176032	9782
1	6595	59	9787
1	6598	59.042601121817	9789
1	6603	59.12286141301	9791
1	6606	59.130010835949	9791
1	6615	59.24675572155	9795
1	6620	59.270884045294	9796
1	6625	59.301790588199	9797
1	6630	59.317867130727	9797
1	6635	59.383644923098	9799
1	6641	59.478072737972	9802
1	6645	59.5	9803
1	6648	59.550107916037	9804
1	6653	59.664809876733	9808
1	6658	59.684400257649	9809
1	6663	59.719579618336	9810
1	6668	59.745664266592	9811
1	6673	59.758169610428	9811
1	6678	59.979053048045	9818
1	6681	59.986182809707	9818
1	6687	60	9819
1	6690	60.004354976526	9819
1	6696	60.110771452134	9822
1	6701	60.122827394067	9823
1	6708	60.271052871392	9462
1	6713	60.291625346568	9374
1	6718	60.361884235632	9075
1	6723	60.402217323912	8903
1	6729	60.489076359103	8534
1	6733	60.5	8487
1	6796	61	8231
1	6860	61.5	8445
1	6927	62	8660
1	7001	62.5	8874
1	7077	63	9089
1	7147	63.5	9303
1	7211	64	9451
1	7214	64.055575604495	9435
1	7219	64.099659899534	9421
1	7224	64.189815447713	9394
1	7229	64.201090864021	9391
1	7236	64.276159638006	9368
1	7241	64.305287515872	9360
1	7246	64.328728865258	9353
1	7252	64.490655611528	9304
1	7256	64.5	9301
1	7307	65	9151
1	7393	65.5	9765
1	7399	65.513141373776	9756
1	7405	65.54818837809	9733
1	7413	65.590063716506	9706
1	7419	65.641351785418	9672
1	7425	65.699556148274	9634
1	7432	65.731359671415	9613
1	7437	65.740311084893	9607
1	7449	65.912278843533	9494
1	7454	65.929577395515	9482
1	7457	65.93695980429	9478
1	7463	66	9436
1	7496	66.5	9107
1	7575	67	8778
1	7629	67.5	8449
1	7677	68	8263
1	7712	68.5	8280
1	7750	69	8306
1	7784	69.5	8332
1	7835	70	8359
1	7887	70.5	8385
1	7960	71	8411
1	8015	71.5	8438
1	8047	72	8464
1	8112	72.5	8535
1	8157	73	8605
1	8205	73.5	8676
1	8284	74	8747
1	8304	74.5	8818
1	8366	75	8889
1	8416	75.5	8960
1	8461	76	9031
1	8519	76.5	9190
1	8579	77	9493
1	8622	77.5	9796
1	8625	77.634669540045	9878
1	8631	77.654105438526	9890
1	8637	77.784533611501	9891
1	8644	77.841556704402	9880
1	8649	77.914994673997	9866
1	8655	77.983405279298	9853
1	8659	78	9850
1	8714	78.5	9754
1	8720	78.523731989674	9749
1	8725	78.552067537783	9744
1	8731	78.586639651176	9737
1	8736	78.605022931427	9734
1	8743	78.743046601881	9707
1	8746	78.750257892702	9706
1	8753	78.784271538859	9700
1	8758	78.847409451207	9688
1	8763	78.879210447078	9681
1	8768	78.890164771697	9679
1	8773	78.950174076146	9668
1	8778	78.978453865787	9662
1	8782	79	9658
1	8884	79.5	9563
1	8929	80	9467
1	8993	80.5	9387
1	9042	81	9312
1	9085	81.5	9237
1	9144	82	9162
1	9208	82.5	9087
1	9257	83	9012
1	9307	83.5	8937
1	9365	84	8959
1	9423	84.5	9084
1	9471	85	9209
1	9509	85.5	9335
1	9561	86	9545
1	9609	86.5	9489
1	9699	87	9432
1	9741	87.5	9376
1	9805	88	9320
1	9849	88.5	9263
1	9924	89	9207
1	10016	89.5	9151
1	10078	90	9094
1	10153	90.5	9038
1	10212	91	8982
1	10258	91.5	8925
1	10300	92	8869
1	10328	92.5	8813
1	10382	93	8756
1	10415	93.5	8700
1	10479	94	8644
1	10533	94.5	8641
1	10589	95	8741
1	10644	95.5	8841
1	10697	96	8942
1	10756	96.5	9042
1	10809	97	9143
1	10879	97.5	9243
1	10923	98	9343
1	10981	98.5	9444
1	11037	99	9202
1	11075	99.5	8859
1	11127	100	8517
1	11199	100.5	8827
1	11276	101	8713
1	11352	101.5	8963
1	11399	102	9566
1	11461	102.5	9717
1	11465	102.647185322097	9551
1	11470	102.681819567317	9512
1	11475	102.791379672254	9388
1	11480	102.884793532624	9282
1	11485	102.896435868656	9269
1	11490	102.937324499979	9223
1	11495	103	9152
1	11541	103.5	8586
1	11592	104	8381
1	11634	104.5	8497
1	11697	105	8614
1	11766	105.5	8730
1	11831	106	8846
1	11850	106.5	8962
1	11900	107	9079
1	11951	107.5	9195
1	11996	108	9311
1	12080	108.5	9428
1	12125	109	9544
1	12160	109.5	9688
1	12163	109.530018866003	9697
1	12168	109.618636816063	9723
1	12173	109.638449581979	9729
1	12179	109.703838155074	9748
1	12185	109.737675707338	9758
1	12190	109.765756685223	9766
1	12193	109.772924409982	9768
1	12198	109.780090667148	9771
1	12205	109.83638160973	9787
1	12210	109.847143645991	9790
1	12215	109.86221780069	9795
1	12220	109.90185400937	9806
1	12225	109.928028467501	9814
1	12230	109.941824027321	9818
1	12235	109.963545791931	9824
1	12241	109.992764998527	9833
1	12244	109.999883883913	9835
1	12247	110	9835
1	12253	110.068508992952	9855
1	12256	110.075611986356	9857
1	12263	110.108687344902	9867
1	12268	110.172457128061	9886
1	12273	110.258195290026	9911
1	12278	110.292623314518	9921
1	12283	110.5	9972
1	12292	110.849561535458	9473
1	12298	110.90259990469	9397
1	12303	110.916669029447	9377
1	12308	110.96188595577	9312
1	12313	110.988093778853	9275
1	12317	111	9258
1	12379	111.5	8543
1	12423	112	8185
1	12439	112.5	8301
1	12482	113	8418
1	12519	113.5	9251
1	12567	114	9344
1	12651	114.5	9282
1	12683	115	9219
1	12729	115.5	9157
1	12796	116	9094
1	12872	116.5	9032
1	12911	117	8969
1	12972	117.5	8907
1	12998	118	8844
1	13062	118.5	8782
1	13104	119	8719
1	13140	119.5	8657
1	13226	120	8594
1	13284	120.5	8532
1	13336	121	8469
1	13406	121.5	8407
1	13440	122	8344
1	13505	122.5	8282
1	13546	123	8219
1	13621	123.5	8157
1	13700	124	8095
1	13783	124.5	8214
1	13827	125	8333
1	13857	125.5	8452
1	13925	126	8571
1	13955	126.5	8690
1	13993	127	9127
1	14057	127.5	9808
1	14061	127.513812220982	9794
1	14066	127.524269632072	9770
1	14071	127.582718099742	9637
1	14076	127.696809878131	9376
1	14082	127.78804875845	9168
1	14088	127.947053115566	8806
1	14094	127.961717712723	8772
1	14098	128	8685
1	14174	128.5	8222
1	14241	129	8466
1	14298	129.5	8709
1	14374	130	8953
1	14411	130.5	9197
1	14468	131	9346
1	14511	131.5	9340
1	14546	132	9693
1	14549	132.082687471336	9697
1	14554	132.122141701215	9699
1	14559	132.135326286004	9699
1	14564	132.186455225414	9702
1	14567	132.193670232629	9702
1	14576	132.200885239844	9703
1	14581	132.208099503474	9703
1	14584	132.215313767104	9703
1	14587	132.222528030734	9704
1	14594	132.245922991752	9705
1	14597	132.253135768671	9705
1	14604	132.5	9717
1	14607	132.517039430883	9718
1	14612	132.660601750078	9725
1	14618	132.697363459117	9726
1	14623	132.738542671417	9728
1	14628	132.753690768232	9729
1	14633	132.787176158604	9731
1	14638	132.808972896577	9732
1	14643	132.819237022931	9732
1	14649	132.909081149475	9736
1	14654	132.961844374948	9739
1	14658	133	9741
1	14661	133.017128791143	9742
1	14667	133.127864483039	9747
1	14672	133.158235381745	9748
1	14677	133.225302017423	9752
1	14682	133.287070983598	9754
1	14687	133.314768396444	9756
1	14692	133.32834234367	9756
1	14697	133.35507609276	9758
1	14702	133.5	9765
1	14705	133.500872195067	9765
1	14708	133.508040653848	9765
1	14715	133.521165719529	9766
1	14720	133.547129154932	9767
1	14726	133.690390117661	9774
1	14729	133.697551975652	9774
1	14736	133.745802287304	9776
1	14741	133.802335856638	9779
1	14744	133.809494052773	9779
1	14751	133.856450938395	9782
1	14756	133.879126473412	9783
1	14761	133.948421393561	9786
1	14764	133.955574469384	9786
1	14771	133.969089629492	9787
1	14775	134	9788
1	14778	134.037062102938	9790
1	14784	134.201946262355	9798
1	14787	134.209090577521	9798
1	14794	134.249077411565	9800
1	14800	134.436163657126	9809
1	14803	134.443299960521	9810
1	14810	134.460451624467	9810
1	14814	134.5	9812
1	14817	134.538076934223	9814
1	14822	134.551228365997	9815
1	14828	134.57450715501	9816
1	14833	134.593976995187	9817
1	14838	134.611081482343	9818
1	14844	134.693323603964	9438
1	14849	134.718827574764	9287
1	14854	134.742913907273	9145
1	14859	134.83558039311	8598
1	14865	134.933871239023	8058
1	14869	135	8085
1	14944	135.5	8285
1	14990	136	8485
1	15050	136.5	8685
1	15148	137	8885
1	15184	137.5	9085
1	15238	138	9285
1	15315	138.5	9485
1	15364	139	9685
1	15426	139.5	8139
1	15493	140	9211
1	15547	140.5	9671
1	15554	140.542050310227	9699
1	15563	140.759394183584	9843
1	15568	140.769063677246	9849
1	15571	140.776170997786	9854
1	15578	140.79600058541	9867
1	15582	140.80309494033	9872
1	15591	140.842825762281	9898
1	15598	141	9914
1	15601	141.007472398312	9913
1	15607	141.052887747144	9907
1	15610	141.059953458257	9906
1	15617	141.15989843416	9893
1	15622	141.17531334858	9891
1	15627	141.191055179073	9888
1	15630	141.198134467099	9888
1	15638	141.272964911465	9878
1	15649	141.401274610537	9861
1	15654	141.435676990255	9856
1	15659	141.472299921229	9851
1	15663	141.5	9848
1	15666	141.599814123419	9834
1	15671	141.727741991713	9817
1	15676	141.846155945051	9802
1	15681	141.898881282953	9795
1	15686	141.915233465348	9793
1	15691	141.958438110783	9787
1	15696	141.976241118705	9785
1	15700	142	9781
1	15703	142.002395762582	9781
1	15708	142.009694177085	9780
1	15713	142.024955941573	9778
1	15718	142.121804062875	9765
1	15723	142.200867424917	9755
1	15730	142.231104880859	9748
1	15735	142.244189470667	9746
1	15740	142.282327719077	9737
1	15743	142.289516791687	9736
1	15750	142.301875297235	9733
1	15755	142.343588096159	9724
1	15761	142.423565034239	9707
1	15766	142.433754328655	9705
1	15771	142.492941752426	9692
1	15772	142.5	9690
1	15778	142.508871756396	9688
1	15783	142.596966265165	9669
1	15789	142.70943355933	9645
1	15795	142.871448229553	9610
1	15800	142.933670351332	9596
1	15805	142.978392580378	9587
1	15808	142.985694134566	9585
1	15815	142.999486192314	9582
1	15816	143	9582
1	15852	143.5	9474
1	15905	144	9365
1	15974	144.5	9257
1	16044	145	9149
1	16081	145.5	9040
1	16098	146	8932
1	16151	146.5	8824
1	16228	147	8717
1	16270	147.5	8610
1	16319	148	8503
1	16368	148.5	8396
1	16422	149	8999
1	16463	149.5	9937
1	16466	149.596330927779	9933
1	16473	149.678860031832	9929
1	16478	149.714187208192	9928
1	16483	149.757717031596	9926
1	16488	149.801425634576	9924
1	16493	149.819443933932	9923
1	16498	149.886260104779	9920
1	16503	149.945333050024	9918
1	16508	149.997531042773	9916
1	16509	150	9915
1	16515	150.004590340877	9915
1	16522	150.011650350963	9915
1	16525	150.018710361049	9915
1	16528	150.025770371135	9914
1	16535	150.034822889054	9914
1	16540	150.095842549038	9911
1	16546	150.147003302807	9909
1	16549	150.1540675878	9909
1	16556	150.213513031215	9906
1	16562	150.30902886324	9902
1	16567	150.5	9894
1	16571	150.513729026101	9893
1	16577	150.524916688638	9893
1	16584	150.536201276514	9892
1	16590	150.576276086973	9891
1	16595	150.596473454361	9890
1	16602	150.655002761193	9887
1	16608	150.67506943816	9886
1	16613	150.682283991632	9886
1	16616	150.689364711842	9886
1	16623	150.712159779443	9885
1	16629	150.722055286547	9884
1	16632	150.729137439522	9884
1	16637	150.736219592497	9884
1	16645	150.807513310546	9881
1	16649	150.814597613754	9880
1	16657	150.821739778584	9880
1	16663	150.928229383125	9842
1	16669	150.950630633219	9834
1	16674	150.962239756466	9829
1	16678	151	9814
1	16681	151.142400460076	9758
1	16686	151.16610457491	9748
1	16691	151.192211407012	9738
1	16696	151.311302948812	9691
1	16701	151.320715079538	9687
1	16707	151.459940681214	9632
1	16711	151.5	9616
1	16751	152	9419
1	16774	152.5	9221
1	16838	153	9023
1	16902	153.5	8897
1	16989	154	8803
1	17052	154.5	8708
1	17114	155	8614
1	17182	155.5	8555
1	17232	156	8578
1	17315	156.5	8600
1	17368	157	8625
1	17408	157.5	8649
1	17460	158	8673
1	17492	158.5	8697
1	17535	159	8605
1	17587	159.5	8477
1	17630	160	8992
1	17690	160.5	9697
1	17746	161	9881
1	17755	161.154207245229	9873
1	17762	161.22516054567	9869
1	17768	161.250522573244	9868
1	17773	161.279245790909	9866
1	17780	161.3044675946	9865
1	17785	161.336583143589	9863
1	17791	161.401364129756	9860
1	17796	161.413930304365	9859
1	17801	161.433862665041	9858
1	17807	161.48774900352	9855
1	17811	161.5	9855
1	17814	161.506577855188	9854
1	17819	161.559436628153	9852
1	17824	161.59899791826	9849
1	17829	161.614373209273	9849
1	17834	161.631779916534	9848
1	17839	161.667338782233	9846
1	17844	161.717241022288	9843
1	17849	161.74012869646	9842
1	17855	161.777940038137	9840
1	17860	161.871072553915	9835
1	17865	161.974759175234	9830
1	17868	161.98188023322	9829
1	17874	162	9828
1	17877	162.052146170835	9826
1	17882	162.067022744109	9825
1	17887	162.083934991027	9824
1	17892	162.102411595729	9823
1	17897	162.118401100909	9822
1	17902	162.148854367364	9821
1	17907	162.217546485275	9817
1	17912	162.307235135507	9812
1	17919	162.372880044473	9809
1	17924	162.380016347868	9809
1	17927	162.387152651263	9808
1	17934	162.462084437276	9804
1	17939	162.49823057192	9802
1	17940	162.5	9802
1	17946	162.516634259229	9801
1	17952	162.60031007018	9797
1	17958	162.778254909977	9712
1	17964	162.875212796542	9652
1	17967	162.882465179468	9647
1	17975	162.950395644696	9604
1	17980	163	9573
1	18050	163.5	9260
1	18093	164	8947
1	18151	164.5	8713
1	18222	165	9223
1	18264	165.5	9734
1	18316	166	9051
1	18342	166.5	8969
1	18404	167	8894
1	18456	167.5	8895
1	18484	168	9203
1	18525	168.5	9093
1	18583	169	8983
1	18648	169.5	8873
1	18700	170	8763
1	18748	170.5	8666
1	18781	171	8570
1	18796	171.5	8475
1	18849	172	8380
1	18879	172.5	8285
1	18910	173	8190
1	18972	173.5	8630
1	19050	174	9680
1	19119	174.5	8870
1	19184	175	8923
1	19230	175.5	8976
1	19279	176	9029
1	19330	176.5	9098
1	19408	177	9188
1	19437	177.5	9277
1	19488	178	9367
1	19525	178.5	9332
1	19575	179	9246
1	19620	179.5	9159
1	19642	180	9072
1	19703	180.5	8986
1	19746	181	8899
1	19792	181.5	8812
1	19851	182	8724
1	19888	182.5	8611
1	19929	183	8499
1	19938	183.5	8387
1	19981	184	8275
1	20044	184.5	8163
1	20121	185	8151
1	20177	185.5	8156
1	20244	186	8162
1	20261	186.5	8170
1	20335	187	8178
1	20400	187.5	8186
1	20460	188	8194
1	20514	188.5	8248
1	20548	189	8616
1	20598	189.5	8482
1	20634	190	8348
1	20682	190.5	8214
1	20761	191	8247
1	20866	191.5	8688
1	20914	192	9129
1	20976	192.5	9570
1	20979	192.535240676826	9601
1	20985	192.616860381538	9614
1	20991	192.641855215174	9597
1	20997	192.713696444254	9547
1	21002	192.743988194586	9525
1	21007	192.78895666239	9494
1	21012	192.848307825725	9452
1	21017	192.894123952385	9420
1	21022	192.916415405836	9405
1	21027	192.96102538636	9373
1	21031	193	9346
1	21096	193.5	8996
1	21161	194	9239
1	21193	194.5	9494
1	21243	195	9749
1	21283	195.5	9117
1	21335	196	8965
1	21403	196.5	8818
1	21445	197	8671
1	21487	197.5	8525
1	21533	198	8687
1	21592	198.5	8923
1	21671	199	9158
1	21727	199.5	9137
1	21767	200	8962
1	21801	200.5	8788
1	21858	201	8533
1	21922	201.5	8267
1	21986	202	8310
1	22033	202.5	8353
1	22085	203	8396
1	22145	203.5	8439
1	22222	204	8482
1	22285	204.5	8525
1	22334	205	8569
1	22402	205.5	8612
1	22470	206	8655
1	22541	206.5	8698
1	22594	207	8741
1	22673	207.5	8784
1	22707	208	8827
1	22772	208.5	8870
1	22837	209	8913
1	22905	209.5	8956
1	22980	210	8999
1	23025	210.5	9042
1	23098	211	9085
1	23176	211.5	9128
1	23224	212	9171
1	23262	212.5	9184
1	23305	213	8233
1	23376	213.5	8390
1	23426	214	8546
1	23503	214.5	8703
1	23568	215	8860
1	23629	215.5	9017
1	23656	216	9174
1	23689	216.5	9331
1	23718	217	9487
1	23762	217.5	9644
1	23842	218	9576
1	23919	218.5	9396
1	23986	219	9215
1	24046	219.5	9035
1	24067	220	8854
1	24137	220.5	8674
1	24183	221	8580
1	24239	221.5	8709
1	24315	222	8838
1	24366	222.5	8968
1	24434	223	9097
1	24498	223.5	9226
1	24551	224	9373
1	24609	224.5	9558
1	24664	225	9415
1	24718	225.5	9268
1	24769	226	9120
1	24827	226.5	8973
1	24891	227	8983
1	24946	227.5	9089
1	24972	228	9182
1	25030	228.5	9274
1	25084	229	9367
1	25153	229.5	9460
1	25195	230	9553
1	25244	230.5	9638
1	25288	231	9631
1	25351	231.5	8775
1	25423	232	9290
1	25492	232.5	8972
1	25540	233	8654
1	25619	233.5	8336
1	25700	234	8868
1	25763	234.5	8999
1	25841	235	9130
1	25889	235.5	9262
1	25892	235.510355497011	9264
1	25897	235.544085809856	9273
1	25900	235.55163460744	9275
1	25905	235.559181777251	9277
1	25912	235.637838553169	9298
1	25917	235.710468554006	9317
1	25922	235.741543926697	9325
1	25927	235.764574984519	9331
1	25932	235.783184461551	9336
1	25937	235.820277412568	9346
1	25942	235.828397074306	9348
1	25947	235.838896826637	9351
1	25950	235.846382657029	9353
1	25957	235.93052835031	9375
1	25963	235.960456061987	9383
1	25967	236	9393
1	25971	236.021146191484	9399
1	25976	236.062418271202	9409
1	25981	236.071553993352	9412
1	25986	236.084385149624	9415
1	25991	236.152094322471	9433
1	25996	236.285274531771	9468
1	26001	236.347223890385	9484
1	26006	236.358193794736	9487
1	26011	236.368460932749	9490
1	26016	236.389028034311	9495
1	26021	236.413536203419	9502
1	26026	236.462291367756	9514
1	26030	236.5	9524
1	26033	236.505435927034	9526
1	26038	236.580591964064	9546
1	26043	236.685131311332	9573
1	26048	236.725193641356	9584
1	26054	236.776818973481	9063
1	26059	236.803526935363	8772
1	26064	236.815581009363	8641
1	26067	236.823681923609	8552
1	26076	236.908943328973	8246
1	26081	236.918494496029	8255
1	26086	236.936602149785	8273
1	26091	236.95220431386	8288
1	26095	237	8335
1	26128	237.5	8823
1	26179	238	9548
1	26239	238.5	9583
1	26242	238.517818889953	9577
1	26247	238.575067616876	9558
1	26252	238.590185776886	9553
1	26257	238.718020571145	9509
1	26262	238.726700625753	9507
1	26265	238.73406362144	9504
1	26272	238.813645724828	9477
1	26277	238.986853453997	9419
1	26281	239	9414
1	26310	239.5	9246
1	26382	240	9077
1	26428	240.5	8909
1	26471	241	8740
1	26521	241.5	8123
1	26586	242	8383
1	26616	242.5	8805
1	26665	243	9226
1	26710	243.5	9648
1	26740	244	9937
1	26743	244.007720460435	9936
1	26748	244.106725648018	9930
1	26751	244.113774993436	9930
1	26760	244.283434642921	9920
1	26765	244.43839346105	9910
1	26770	244.473526255267	9908
1	26774	244.5	9907
1	26779	244.660374462048	9873
1	26784	244.673083856976	9870
1	26790	244.736192799483	9852
1	26797	244.893717458702	9807
1	26802	244.926307933411	9798
1	26807	244.933452248577	9796
1	26810	244.940598022362	9794
1	26817	245	9777
1	26872	245.5	9634
1	26940	246	9492
1	26989	246.5	9350
1	27030	247	9208
1	27079	247.5	9065
1	27138	248	8923
1	27220	248.5	8781
1	27268	249	8638
1	27307	249.5	8497
1	27350	250	8358
1	27413	250.5	8947
1	27473	251	9097
1	27511	251.5	8826
1	27547	252	8521
1	27595	252.5	8211
1	27626	253	8167
1	27726	253.5	8123
1	27784	254	8210
1	27843	254.5	8327
1	27908	255	8445
1	27977	255.5	8279
1	28008	256	8322
1	28047	256.5	8390
1	28132	257	8764
1	28195	257.5	8630
1	28275	258	8496
1	28298	258.5	8361
1	28334	259	8264
1	28394	259.5	8262
1	28434	260	8261
1	28508	260.5	8259
1	28540	261	8258
1	28608	261.5	9225
1	28668	262	9051
1	28716	262.5	8838
1	28780	263	8625
1	28853	263.5	8412
1	28931	264	8439
1	28996	264.5	9243
1	29074	265	9060
1	29110	265.5	8877
1	29149	266	8693
1	29204	266.5	9641
1	29239	267	8489
1	29321	267.5	8552
1	29369	268	8687
1	29428	268.5	8821
1	29493	269	8955
1	29529	269.5	9120
1	29557	270	9347
1	29614	270.5	9573
1	29617	270.644997664382	9639
1	29622	270.657649445617	9644
1	29628	270.826637236637	9703
1	29635	270.981929943268	9692
1	29639	271	9691
1	29677	271.5	9655
1	29733	272	9620
1	29785	272.5	9585
1	29836	273	9549
1	29900	273.5	9514
1	29928	274	9479
1	29992	274.5	9443
1	30024	275	9408
1	30057	275.5	9373
1	30102	276	9337
1	30183	276.5	9302
1	30267	277	9150
1	30336	277.5	8707
1	30387	278	8744
1	30473	278.5	8932
1	30535	279	9119
1	30600	279.5	9306
1	30647	280	9494
1	30717	280.5	9681
1	30770	281	9868
1	30773	281.05434567386	9889
1	30778	281.077174674416	9897
1	30783	281.092879799147	9903
1	30788	281.116889105175	9912
1	30794	281.25797767473	9965
1	30799	281.2749326597	9971
1	30805	281.343901122283	9954
1	30810	281.462128349123	9894
1	30814	281.5	9875
1	30845	282	9624
1	30903	282.5	9372
1	30966	283	9121
1	31040	283.5	8869
1	31119	284	8618
1	31175	284.5	8373
1	31219	285	8429
1	31311	285.5	8485
1	31346	286	8541
1	31388	286.5	8598
1	31432	287	8654
1	31505	287.5	8710
1	31560	288	8766
1	31602	288.5	8822
1	31633	289	8882
1	31685	289.5	8942
1	31758	290	9001
1	31831	290.5	9061
1	31911	291	9005
1	31963	291.5	8926
1	32025	292	8848
1	32079	292.5	8770
1	32120	293	8947
1	32157	293.5	9153
1	32186	294	9189
1	32227	294.5	9021
1	32262	295	8854
1	32316	295.5	8686
1	32351	296	8519
1	32405	296.5	8351
1	32439	297	8184
1	32473	297.5	8362
1	32532	298	8692
1	32575	298.5	9022
1	32632	299	9152
1	32692	299.5	9152
1	32748	300	9523
1	32790	300.5	9728
1	32844	301	9306
1	32914	301.5	8885
1	32978	302	8675
1	33059	302.5	8775
1	33113	303	8875
1	33137	303.5	8933
1	33177	304	8909
1	33247	304.5	8885
1	33298	305	8863
1	33356	305.5	8865
1	33409	306	8867
1	33474	306.5	8877
1	33544	307	8904
1	33577	307.5	8931
1	33632	308	8958
1	33674	308.5	8985
1	33752	309	9012
1	33817	309.5	9039
1	33859	310	9066
1	33914	310.5	9092
1	33937	311	9119
1	33985	311.5	9146
1	34047	312	9173
1	34125	312.5	9200
1	34173	313	9175
1	34237	313.5	9084
1	34306	314	8993
1	34357	314.5	8901
1	34418	315	8810
1	34494	315.5	8718
1	34583	316	8627
1	34674	316.5	8551
1	34716	317	8482
1	34772	317.5	8413
1	34822	318	8617
1	34857	318.5	9257
1	34921	319	8572
1	34976	319.5	8199
1	35029	320	8132
1	35101	320.5	8065
1	35184	321	8239
1	35241	321.5	8413
1	35307	322	8587
1	35392	322.5	8760
1	35448	323	8934
1	35523	323.5	9108
1	35570	324	9282
1	35634	324.5	9456
1	35698	325	9629
1	35769	325.5	9648
1	35805	326	9605
1	35808	326.008948099557	9604
1	35814	326.054869005682	9600
1	35819	326.065801925582	9599
1	35824	326.1530340485	9592
1	35827	326.160331796623	9591
1	35834	326.250494710389	9583
1	35839	326.258762020411	9582
1	35842	326.266067384636	9582
1	35850	326.279988235403	9581
1	35856	326.325106557378	9577
1	35861	326.363241918423	9573
1	35867	326.416404536269	9569
1	35872	326.44735809298	9566
1	35875	326.454675676087	9565
1	35882	326.498942718765	9562
1	35883	326.5	9561
1	35889	326.578842249671	9555
1	35894	326.70142945612	9544
1	35899	326.731658032607	9541
1	35904	326.748849480966	9540
1	35910	326.828887776515	9533
1	35915	326.84345745462	9532
1	35920	326.857508141348	9530
1	35925	326.978232215352	9520
1	35930	327	9518
1	35933	327.006335615663	9517
1	35938	327.067624659145	9512
1	35941	327.07498378446	9511
1	35949	327.125925017448	9507
1	35954	327.133432113393	9506
1	35959	327.160556061689	9504
1	35967	327.256429606447	9496
1	35977	327.5	9474
1	36023	328	9431
1	36054	328.5	9387
1	36137	329	9334
1	36184	329.5	9273
1	36258	330	9211
1	36327	330.5	9196
1	36374	331	9183
1	36409	331.5	9170
1	36458	332	9157
1	36517	332.5	9144
1	36551	333	9130
1	36609	333.5	9117
1	36638	334	9104
1	36683	334.5	9099
1	36732	335	9105
1	36774	335.5	9122
1	36849	336	9141
1	36900	336.5	9160
1	36986	337	9179
1	37067	337.5	9198
1	37132	338	9217
1	37179	338.5	9236
1	37221	339	9255
1	37279	339.5	9274
1	37324	340	9292
1	37383	340.5	9311
1	37444	341	9330
1	37493	341.5	9349
1	37577	342	9368
1	37637	342.5	9387
1	37701	343	9406
1	37762	343.5	9425
1	37768	343.554407074902	9427
1	37774	343.623236061628	9429
1	37779	343.674554443467	9431
1	37784	343.707905149259	9432
1	37789	343.71882024289	9433
1	37792	343.726240999807	9433
1	37800	343.75850855507	9434
1	37803	343.76592852539	9435
1	37810	343.837423342672	9437
1	37815	343.97032866735	9442
1	37818	343.977742350892	9443
1	37824	344	9444
1	37827	344.039394479946	9445
1	37832	344.058114056468	9446
1	37835	344.061832554906	9446
1	37843	344.071557467583	9446
1	37854	344.257995728102	9453
1	37861	344.31723167374	9456
1	37867	344.35142857895	9457
1	37874	344.469229569041	9461
1	37881	344.493555762188	9462
1	37882	344.5	9462
1	37919	345	9481
1	37998	345.5	8875
1	38060	346	8912
1	38113	346.5	9128
1	38183	347	9354
1	38250	347.5	9388
1	38306	348	9187
1	38345	348.5	9258
1	38433	349	9329
1	38472	349.5	9400
1	38513	350	9471
1	38516	350.027562462827	9475
1	38522	350.102737811574	9485
1	38525	350.110117885375	9486
1	38533	350.182277298448	9497
1	38539	350.26808455849	9509
1	38548	350.383280917869	9525
1	38555	350.5	9542
1	38612	351	9613
1	38658	351.5	9625
1	38750	352	9537
1	38753	352.019603197096	9534
1	38758	352.035833656793	9531
1	38763	352.131997869396	9514
1	38770	352.209831607755	9500
1	38776	352.22476329219	9498
1	38782	352.382165002411	9470
1	38787	352.397793247859	9467
1	38792	352.460865981328	9456
1	38796	352.5	9449
1	38846	353	9361
1	38900	353.5	9274
1	38924	354	9186
1	38958	354.5	9098
1	39011	355	9010
1	39079	355.5	8922
1	39122	356	8834
1	39190	356.5	8746
1	39209	357	8658
1	39263	357.5	8668
1	39317	358	8708
1	39375	358.5	8748
1	39423	359	8788
1	39498	359.5	8829
1	39574	360	8869
1	39606	360.5	8909
1	39656	361	8949
1	39712	361.5	8989
1	39760	362	9029
1	39852	362.5	9069
1	39902	363	9109
1	39945	363.5	9149
1	40049	364	9154
1	40104	364.5	9019
1	40128	365	9012
1	40190	365.5	9066
1	40246	366	9141
1	40302	366.5	9216
1	40368	367	9291
1	40393	367.5	9261
1	40433	368	9155
1	40490	368.5	9049
1	40558	369	8943
1	40610	369.5	8837
1	40685	370	8731
1	40743	370.5	9291
1	40782	371	9271
1	40844	371.5	8971
1	40927	372	8671
1	40976	372.5	8479
1	41018	373	8484
1	41082	373.5	8490
1	41111	374	8496
1	41156	374.5	8502
1	41212	375	8537
1	41238	375.5	8755
1	41290	376	8951
1	41362	376.5	9146
1	41409	377	9342
1	41484	377.5	9537
1	41541	378	9722
1	41544	378.064230541041	9718
1	41550	378.15556483337	9711
1	41553	378.162773153831	9711
1	41558	378.169981474292	9710
1	41565	378.366749479956	9697
1	41570	378.375338564973	9696
1	41575	378.430757657131	9693
1	41580	378.495862441072	9688
1	41581	378.5	9688
1	41585	378.503087874598	9688
1	41592	378.598673964155	9681
1	41597	378.637114681322	9679
1	41603	378.691023540332	9675
1	41608	378.709412988776	9674
1	41614	378.793018023389	9668
1	41619	378.848193313889	9664
1	41624	378.893001787445	9661
1	41629	378.915295249981	9660
1	41634	378.925010816699	9659
1	41639	378.997032166252	9654
1	41640	379	9654
1	41647	379.05081480599	9651
1	41653	379.136161124431	9645
1	41659	379.154003682303	9644
1	41664	379.164126986589	9643
1	41672	379.238099324199	9638
1	41677	379.248248172099	9637
1	41682	379.26918801009	9636
1	41688	379.319238251571	9632
1	41693	379.353126117386	9630
1	41696	379.355436691372	9630
1	41707	379.5	9620
1	41712	379.659925325092	9609
1	41718	379.66807683434	9609
1	41724	379.677094892338	9608
1	41729	379.701922826339	9606
1	41735	379.728124073015	9605
1	41744	379.778564947181	9601
1	41749	379.787946937132	9600
1	41752	379.795238603799	9600
1	41763	379.958722140301	9589
1	41766	379.966022171587	9588
1	41772	380	9586
1	41806	380.5	9552
1	41859	381	9518
1	41919	381.5	9443
1	41964	382	9322
1	42021	382.5	9201
1	42087	383	9080
1	42159	383.5	8960
1	42193	384	8839
1	42242	384.5	8718
1	42319	385	8597
1	42352	385.5	8476
1	42416	386	8356
1	42468	386.5	8235
1	42540	387	8289
1	42567	387.5	8473
1	42594	388	8657
1	42642	388.5	8841
1	42700	389	9025
1	42735	389.5	9209
1	42784	390	9393
1	42818	390.5	9556
1	42871	391	9702
1	42904	391.5	9848
1	42907	391.504502416762	9849
1	42912	391.519919615803	9853
1	42919	391.644416382219	9890
1	42924	391.680538037441	9900
1	42929	391.737906110126	9917
1	42932	391.744964696392	9919
1	42939	391.767562377691	9926
1	42942	391.774614563869	9928
1	42950	391.885339257659	9936
1	42955	391.906748115653	9927
1	42959	392	9891
1	42962	392.004080927792	9889
1	42967	392.093409412016	9854
1	42973	392.103311134696	9850
1	42976	392.110417733681	9847
1	42984	392.180558393296	9820
1	42989	392.207700147469	9809
1	42995	392.39979648469	9734
1	43001	392.428016387048	9723
1	43006	392.45925135904	9711
1	43011	392.488225022988	9699
1	43015	392.5	9695
1	43018	392.5119182085	9690
1	43024	392.565008199833	9669
1	43030	392.637340792315	9641
1	43035	392.659888468324	9632
1	43040	392.674863507385	9626
1	43045	392.731898600024	9604
1	43050	392.761563139856	9592
1	43055	392.797801804366	9578
1	43060	392.822448238972	9568
1	43068	393	9499
1	43096	393.5	9303
1	43156	394	9109
1	43209	394.5	8997
1	43247	395	8886
1	43312	395.5	8774
1	43349	396	8662
1	43399	396.5	8551
1	43442	397	8439
1	43513	397.5	8327
1	43572	398	8216
1	43627	398.5	8110
1	43675	399	8152
1	43755	399.5	8194
1	43831	400	8236
2	1086	10	8642
2	1156	10.5	8885
2	1207	11	9149
2	1257	11.5	9412
2	1315	12	9675
2	1371	12.5	9832
2	1446	13	9338
2	1513	13.5	8845
2	1571	14	8847
2	1611	14.5	8849
2	1641	15	8851
2	1721	15.5	9256
2	1759	16	9221
2	1830	16.5	9086
2	1870	17	8951
2	1957	17.5	8935
2	2008	18	9058
2	2083	18.5	9181
2	2168	19	9305
2	2239	19.5	9389
2	2293	20	9435
2	2341	20.5	9482
2	2396	21	9529
2	2466	21.5	9575
2	2529	22	9622
2	2576	22.5	9669
2	2616	23	9716
2	2622	23.012167536114	9717
2	2627	23.05412151414	9721
2	2632	23.070324965155	9722
2	2638	23.098454839845	9725
2	2643	23.148913257927	9730
2	2650	23.164059354438	9731
2	2655	23.228500700293	9737
2	2658	23.235689772903	9738
2	2666	23.250914760201	9739
2	2671	23.386749349949	9752
2	2676	23.443403727737	9757
2	2681	23.456442605761	9758
2	2686	23.491753562781	9762
2	2689	23.498924224531	9762
2	2692	23.5	9762
2	2701	23.580849387297	9770
2	2708	23.608173139888	9773
2	2715	23.665662850424	9778
2	2718	23.67125285973	9779
2	2731	23.789523044746	9790
2	2736	23.826490054903	9793
2	2739	23.833638017734	9794
2	2746	23.857286625395	9796
2	2752	23.948832373162	9804
2	2758	23.962178954823	9806
2	2765	24	9809
2	2770	24.110264682619	9820
2	2776	24.151728170028	9823
2	2783	24.194349494973	9827
2	2788	24.206426290556	9829
2	2791	24.213548073036	9829
2	2799	24.220669855516	9830
2	2802	24.227790913502	9831
2	2809	24.267253782708	9834
2	2815	24.293844841879	9837
2	2821	24.311824425615	9838
2	2828	24.342474472083	9841
2	2834	24.455186600008	9852
2	2841	24.487657644977	9855
2	2845	24.5	9856
2	2848	24.540280078471	9860
2	2853	24.597474295236	9865
2	2858	24.712031876695	9876
2	2863	24.78233457917	9882
2	2868	24.795595356836	9884
2	2874	24.881553733232	9882
2	2879	24.896544305672	9878
2	2884	24.917800343126	9871
2	2889	24.990722792369	9849
2	2893	25	9846
2	2897	25.038441911525	9834
2	2902	25.053711702436	9829
2	2907	25.078662100668	9821
2	2913	25.129296342685	9806
2	2919	25.193908437749	9786
2	2924	25.244829104619	9770
2	2929	25.286274316255	9757
2	2934	25.321440216368	9746
2	2939	25.366606292899	9732
2	2944	25.433497127867	9711
2	2949	25.45802676373	9704
2	2953	25.5	9691
2	2987	26	9536
2	3067	26.5	9381
2	3123	27	9226
2	3161	27.5	9071
2	3216	28	9094
2	3284	28.5	9163
2	3334	29	9233
2	3394	29.5	9303
2	3448	30	9372
2	3496	30.5	9442
2	3572	31	9512
2	3628	31.5	9582
2	3655	32	9513
2	3712	32.5	9396
2	3754	33	9280
2	3793	33.5	9163
2	3851	34	9047
2	3908	34.5	8930
2	3965	35	8813
2	4008	35.5	8697
2	4061	36	8580
2	4130	36.5	8464
2	4174	37	8347
2	4249	37.5	8537
2	4302	38	8987
2	4353	38.5	8672
2	4404	39	8280
2	4466	39.5	8328
2	4519	40	8375
2	4576	40.5	8423
2	4622	41	8484
2	4655	41.5	8589
2	4707	42	8694
2	4798	42.5	8799
2	4858	43	8904
2	4899	43.5	9009
2	4965	44	9114
2	5028	44.5	9219
2	5110	45	9324
2	5161	45.5	9429
2	5220	46	9534
2	5247	46.5	9484
2	5298	47	9216
2	5355	47.5	8412
2	5419	48	8543
2	5460	48.5	8674
2	5535	49	8805
2	5575	49.5	9213
2	5644	50	9161
2	5688	50.5	8834
2	5771	51	8601
2	5822	51.5	8825
2	5884	52	9049
2	5912	52.5	9273
2	5977	53	8233
2	6016	53.5	8458
2	6055	54	8533
2	6085	54.5	8518
2	6154	55	8076
2	6217	55.5	8900
2	6285	56	9659
2	6346	56.5	9645
2	6406	57	9630
2	6448	57.5	9615
2	6529	58	9601
2	6572	58.5	9586
2	6595	59	9571
2	6645	59.5	9557
2	6687	60	9542
2	6733	60.5	9601
2	6738	60.557177821798	9609
2	6744	60.575803649256	9612
2	6750	60.612906399937	9617
2	6753	60.620185177102	9619
2	6758	60.627462440851	9620
2	6763	60.634738948128	9621
2	6770	60.683270259655	9628
2	6776	60.739003132857	9636
2	6782	60.830052246062	9650
2	6787	60.837702545915	9651
2	6792	60.878024951363	9657
2	6796	61	9675
2	6799	61.006246049413	9676
2	6805	61.018889977611	9678
2	6810	61.032935938413	9680
2	6815	61.081935270449	9687
2	6820	61.150864561258	9698
2	6825	61.282749628344	9717
2	6831	61.32996394683	9725
2	6837	61.374683828203	9731
2	6842	61.395830956327	9734
2	6847	61.41825145365	9738
2	6852	61.468130628511	9745
2	6857	61.498618373459	9750
2	6860	61.5	9750
2	6861	61.5	9750
2	6870	61.544469669851	9757
2	6875	61.616762860413	9767
2	6878	61.623929851301	9768
2	6885	61.633067234288	9770
2	6890	61.715318641932	9782
2	6895	61.76270855076	9789
2	6900	61.863988420171	9804
2	6903	61.871128363051	9805
2	6908	61.878267577737	9806
2	6915	61.919711392026	9813
2	6920	61.929348170428	9814
2	6926	61.995496485487	9795
2	6927	62	9791
2	6933	62.007014146214	9783
2	6940	62.086638857111	9696
2	6946	62.130029832041	9649
2	6952	62.137353949344	9641
2	6959	62.204816946663	9568
2	6965	62.237210504546	9533
2	6971	62.283801534372	9482
2	6976	62.310271107572	9454
2	6981	62.354279437205	9406
2	6988	62.379744822392	9378
2	6994	62.421891729957	9332
2	7001	62.5	9248
2	7077	63	9011
2	7147	63.5	8961
2	7211	64	8911
2	7256	64.5	8861
2	7307	65	8812
2	7393	65.5	8762
2	7463	66	8712
2	7496	66.5	8662
2	7575	67	8921
2	7629	67.5	8737
2	7677	68	8552
2	7712	68.5	8367
2	7750	69	8222
2	7784	69.5	8278
2	7835	70	8335
2	7887	70.5	8391
2	7960	71	8448
2	8015	71.5	8466
2	8047	72	8765
2	8112	72.5	9064
2	8157	73	9316
2	8205	73.5	9464
2	8284	74	9345
2	8304	74.5	9227
2	8366	75	9108
2	8416	75.5	8990
2	8461	76	8871
2	8519	76.5	8753
2	8579	77	8634
2	8622	77.5	8516
2	8659	78	9332
2	8714	78.5	9150
2	8782	79	8492
2	8884	79.5	8275
2	8929	80	8182
2	8993	80.5	8182
2	9042	81	8182
2	9085	81.5	8182
2	9144	82	8182
2	9208	82.5	8182
2	9257	83	8244
2	9307	83.5	8614
2	9365	84	8985
2	9423	84.5	9356
2	9471	85	9376
2	9509	85.5	9164
2	9561	86	9006
2	9609	86.5	9057
2	9699	87	9108
2	9741	87.5	9159
2	9805	88	9210
2	9849	88.5	9261
2	9924	89	9312
2	10016	89.5	9364
2	10078	90	9415
2	10153	90.5	9466
2	10212	91	9517
2	10258	91.5	9568
2	10300	92	9619
2	10328	92.5	9662
2	10382	93	9688
2	10385	93.204456838211	9699
2	10391	93.293541497948	9703
2	10394	93.300755761578	9704
2	10401	93.315074450954	9704
2	10406	93.412424680562	9709
2	10411	93.441420883432	9711
2	10415	93.5	9714
2	10418	93.548299947023	9716
2	10423	93.587535282427	9718
2	10428	93.594738410643	9719
2	10431	93.60194079772	9719
2	10440	93.655851097708	9722
2	10445	93.687594358373	9724
2	10448	93.694793042042	9724
2	10455	93.715452605133	9725
2	10460	93.738268147903	9726
2	10463	93.745465351275	9727
2	10470	93.845986182899	9732
2	10475	93.917558210242	9736
2	10479	94	9740
2	10482	94.025533788575	9741
2	10487	94.076474560986	9744
2	10493	94.258331831962	9753
2	10498	94.298582051728	9755
2	10503	94.32915122085	9757
2	10509	94.341996976135	9758
2	10514	94.3585393292	9759
2	10519	94.398031653836	9761
2	10524	94.433553389622	9762
2	10529	94.489021926485	9765
2	10533	94.5	9766
2	10536	94.517428208166	9767
2	10542	94.562302667062	9769
2	10548	94.616914847549	9772
2	10553	94.627662256508	9773
2	10559	94.765521120566	9780
2	10564	94.795675781801	9781
2	10569	94.825447980783	9783
2	10574	94.850158778771	9784
2	10580	94.956291080968	9789
2	10585	94.992785424877	9784
2	10589	95	9783
2	10593	95.076456052072	9772
2	10598	95.151959002445	9762
2	10603	95.162555468321	9760
2	10608	95.219975211522	9752
2	10613	95.274035901574	9745
2	10618	95.295574172291	9742
2	10623	95.389430444762	9728
2	10626	95.396626168446	9727
2	10635	95.446347567632	9720
2	10640	95.468209014625	9717
2	10644	95.5	9713
2	10648	95.557669586816	9705
2	10653	95.599969372303	9699
2	10658	95.630662304047	9695
2	10663	95.683602467469	9687
2	10668	95.715761710315	9683
2	10673	95.752748974472	9678
2	10678	95.824122848816	9668
2	10681	95.831363229453	9667
2	10688	95.8779457457	9660
2	10693	95.904346673222	9656
2	10697	96	9643
2	10700	96.005282724427	9642
2	10703	96.012542629011	9641
2	10710	96.039987007657	9637
2	10715	96.083438979339	9631
2	10721	96.174987268571	9618
2	10727	96.184174389249	9617
2	10732	96.234711084311	9610
2	10735	96.241995163395	9609
2	10742	96.256379917661	9607
2	10747	96.355834723644	9593
2	10752	96.418875556804	9584
2	10756	96.5	9573
2	10759	96.518506051898	9570
2	10764	96.61432976111	9557
2	10769	96.638622449932	9554
2	10774	96.655736126208	9551
2	10779	96.664547041515	9550
2	10784	96.674017772301	9549
2	10788	96.681348382836	9548
2	10795	96.721282453126	9542
2	10800	96.741683122007	9539
2	10805	96.920823767226	9514
2	10809	97	9503
2	10812	97.027622816488	9499
2	10817	97.055615319537	9495
2	10823	97.163991549386	9480
2	10826	97.171375515631	9479
2	10833	97.192745116601	9476
2	10838	97.202372586018	9475
2	10843	97.244943942851	9469
2	10850	97.312521288899	9459
2	10855	97.421552818518	9444
2	10858	97.428964932029	9443
2	10865	97.441989261786	9441
2	10870	97.468151091904	9437
2	10875	97.490823055276	9434
2	10879	97.5	9433
2	10923	98	9363
2	10981	98.5	9293
2	11037	99	9223
2	11075	99.5	9032
2	11127	100	8768
2	11199	100.5	8920
2	11276	101	9071
2	11352	101.5	9223
2	11399	102	9375
2	11461	102.5	9527
2	11495	103	9679
2	11498	103.076380723265	9702
2	11503	103.111889361468	9713
2	11508	103.130760948065	9719
2	11513	103.164520931548	9729
2	11517	103.171715915616	9731
2	11527	103.32006534522	9697
2	11530	103.327284072661	9692
2	11537	103.343605662628	9680
2	11541	103.5	9569
2	11544	103.527220107549	9550
2	11549	103.538012021034	9542
2	11554	103.56800343112	9521
2	11559	103.624208241683	9481
2	11565	103.749623114256	9392
2	11570	103.863124617441	9311
2	11573	103.870642606916	9306
2	11580	103.89564804933	9288
2	11585	103.966561507985	9237
2	11591	103.999226672049	9214
2	11592	104	9214
2	11634	104.5	8858
2	11697	105	8503
2	11766	105.5	8529
2	11831	106	8923
2	11850	106.5	9318
2	11900	107	9712
2	11903	107.006589475211	9717
2	11908	107.081761029527	9776
2	11913	107.195362608661	9866
2	11916	107.202457682652	9871
2	11925	107.286087530576	9918
2	11930	107.307559609835	9914
2	11936	107.334608848599	9909
2	11941	107.357299659395	9904
2	11947	107.405937914245	9895
2	11951	107.5	9878
2	11954	107.542223531131	9870
2	11959	107.564956318174	9866
2	11964	107.589280871996	9861
2	11969	107.629301341033	9854
2	11974	107.665276990159	9847
2	11979	107.707647814282	9839
2	11984	107.73031516952	9835
2	11990	107.802280804955	9821
2	11996	108	9784
2	11999	108.002699511495	9784
2	12004	108.08815786862	9768
2	12009	108.098830384082	9766
2	12014	108.112555167334	9763
2	12019	108.12059531571	9762
2	12022	108.12776597746	9760
2	12029	108.143615917411	9757
2	12032	108.150790253785	9756
2	12037	108.157965325536	9755
2	12044	108.192487948282	9748
2	12049	108.260230947386	9735
2	12054	108.292445848825	9729
2	12057	108.299640832893	9728
2	12064	108.307175221924	9727
2	12070	108.389732894558	9711
2	12075	108.422007363037	9705
2	12080	108.5	9691
2	12125	109	9597
2	12160	109.5	9504
2	12247	110	9345
2	12283	110.5	9134
2	12317	111	8922
2	12379	111.5	8711
2	12423	112	8499
2	12439	112.5	8496
2	12482	113	8704
2	12519	113.5	8912
2	12567	114	9120
2	12651	114.5	9329
2	12683	115	9537
2	12729	115.5	9745
2	12796	116	9767
2	12872	116.5	9691
2	12911	117	9616
2	12972	117.5	9540
2	12998	118	9464
2	13062	118.5	9389
2	13104	119	9313
2	13140	119.5	9244
2	13226	120	9195
2	13284	120.5	9145
2	13336	121	9096
2	13406	121.5	9047
2	13440	122	8997
2	13505	122.5	8948
2	13546	123	8898
2	13621	123.5	8849
2	13700	124	8800
2	13783	124.5	8750
2	13827	125	8701
2	13857	125.5	8652
2	13925	126	8602
2	13955	126.5	8632
2	13993	127	8671
2	14057	127.5	8711
2	14098	128	8750
2	14174	128.5	8790
2	14241	129	8829
2	14298	129.5	8869
2	14374	130	8908
2	14411	130.5	8948
2	14468	131	8988
2	14511	131.5	9027
2	14546	132	9248
2	14604	132.5	9664
2	14658	133	9631
2	14702	133.5	9309
2	14775	134	8988
2	14814	134.5	8666
2	14869	135	8345
2	14944	135.5	8422
2	14990	136	8549
2	15050	136.5	8675
2	15148	137	8802
2	15184	137.5	8928
2	15238	138	9015
2	15315	138.5	8974
2	15364	139	8933
2	15426	139.5	8892
2	15493	140	8851
2	15547	140.5	8810
2	15598	141	8769
2	15663	141.5	8728
2	15700	142	8688
2	15772	142.5	9104
2	15816	143	9218
2	15852	143.5	9332
2	15905	144	9446
2	15974	144.5	9560
2	16044	145	9674
2	16047	145.073460862249	9691
2	16052	145.148220902525	9708
2	16057	145.166301341974	9712
2	16060	145.173508920228	9714
2	16067	145.290147475156	9741
2	16072	145.338240173015	9751
2	16077	145.372248228636	9759
2	16081	145.5	9788
2	16084	145.705034037311	9835
2	16089	145.832517657793	9864
2	16094	145.960286829494	9893
2	16098	146	9902
2	16101	146.025877368372	9908
2	16106	146.032942366353	9910
2	16109	146.040005938502	9912
2	16116	146.077660114976	9920
2	16123	146.204781091847	9863
2	16130	146.319191550965	9712
2	16135	146.377001145505	9636
2	16140	146.442961540092	9549
2	16145	146.454512898131	9534
2	16151	146.5	9474
2	16228	147	8893
2	16270	147.5	8847
2	16319	148	8801
2	16368	148.5	8755
2	16422	149	8709
2	16463	149.5	8663
2	16509	150	8617
2	16567	150.5	8571
2	16678	151	8535
2	16711	151.5	8579
2	16751	152	8622
2	16774	152.5	8666
2	16838	153	8709
2	16902	153.5	8753
2	16989	154	8796
2	17052	154.5	8840
2	17114	155	8883
2	17182	155.5	8927
2	17232	156	8970
2	17315	156.5	9121
2	17368	157	9515
2	17408	157.5	9909
2	17411	157.510985898211	9918
2	17417	157.615321641599	9908
2	17424	157.720826202367	9732
2	17429	157.744663789078	9692
2	17435	157.805267060477	9591
2	17440	157.860949185413	9498
2	17446	157.923878389526	9393
2	17449	157.931330747665	9381
2	17456	157.952272557189	9346
2	17460	158	9266
[...]
22	21837	200.680089267361	3.0069326683112
22	22186	203.687021935672	3.1958600061168
22	22574	206.882881941789	0.865440964634
22	22700	207.748322906423	1.3759696144052
22	22853	209.124292520828	4.3810907394723
22	23378	213.5053832603	0.0088407459765674
22	23379	213.514224006277	1.5858637187973
22	23580	215.100087725074	3.3734723359175
22	23911	218.473560060992	2.8896115304326
22	24232	221.363171591425	4.5392924653665
22	24758	225.902464056791	1.3173109928351
22	24913	227.219775049626	0.16205155820086
22	24920	227.381826607827	1.7178596210406
22	25101	229.099686228868	2.8124836215792
22	25417	231.912169850447	4.0987414250008
22	25969	236.010911275448	1.1458360743879
22	26102	237.156747349836	0.77110405060596
22	26163	237.927851400442	2.8154623155687
22	26459	240.743313716011	0.96562423432785
22	26548	241.708937950339	1.4783035081389
22	26678	243.187241458478	0.49378266184658
22	26719	243.681024120325	1.2855969718425
22	26816	244.966621092168	0.44748596098623
22	26862	245.414107053154	1.174345233601
22	27003	246.588452286755	0.16929017285204
22	27024	246.757742459607	3.9233124887218
22	27433	250.681054948329	2.3859350834184
22	27642	253.066990031747	1.0765551250708
22	27796	254.143545156818	0.12853366081483
22	27828	254.272078817633	0.73448975218962
22	27909	255.006568569823	1.8936711088003
22	28106	256.900239678623	1.6153158142046
22	28300	258.515555492828	2.0576702452362
22	28513	260.573225738064	0.86233885277621
22	28601	261.43556459084	2.2778388959867
22	28893	263.713403486827	1.423706680745
22	29092	265.137110167572	0.23681267825064
22	29109	265.373922845823	1.8319441371688
22	29267	267.205866982992	0.86729482360581
22	29376	268.073161806598	0.0062579592017242
22	29377	268.0794197658	0.1169789060448
22	29384	268.196398671845	1.8814805631123
22	29564	270.077879234957	1.7776210401884
22	29712	271.855500275145	7.6273409451223
22	30593	279.482841220267	2.1564316497552
22	30816	281.639272870022	4.291551723054
22	31337	285.930824593076	10.012674190544
22	32349	295.94349878362	1.9589827579862
22	32526	297.902481541606	0.27172190705532
22	32552	298.174203448661	3.0677881584821
22	32878	301.241991607143	2.8670097063712
22	33184	304.109001313514	0.045975779118857
22	33194	304.154977092633	0.071786679212635
22	33213	304.226763771846	0.28365391292841
22	33249	304.510417684774	0.33807031299117
22	33296	304.848487997765	3.0721782970408
22	33605	307.920666294806	1.4288106114853
22	33804	309.349476906291	1.7814126114053
22	33951	311.130889517696	0.33950970889639
22	33977	311.470399226592	3.7524646916748
22	34452	315.222863918267	0.56713269066933
22	34535	315.789996608936	4.0471334576741
22	35020	319.83713006661	2.1424199851171
22	35303	321.979550051727	1.6499825509666
22	35538	323.629532602694	0.082379300611458
22	35543	323.711911903305	4.7321784478327
22	36053	328.444090351138	0.16228214598454
22	36062	328.606372497123	0.92319334280201
22	36186	329.529565839925	2.9614810178723
22	36516	332.491046857797	1.3435089636103
22	36622	333.834555821407	1.8915134493666
22	36806	335.726069270774	0.48978889722034
22	36871	336.215858167994	1.4741396808593
22	37089	337.689997848853	0.28765136454887
22	37131	337.977649213402	0.17118178744479
22	37142	338.148831000847	0.36602450088769
22	37181	338.514855501735	0.18482429724849
22	37198	338.699679798983	0.94028598774192
22	37294	339.639965786725	2.6856071254777
22	37633	342.325572912203	1.9318378504216
22	37852	344.257410762625	1.1659520760713
22	37986	345.423362838696	3.6709042171439
22	38440	349.09426705584	0.14633615629931
22	38447	349.240603212139	1.252199604842
22	38554	350.492802816981	1.2082050269921
22	38687	351.701007843973	0.47224934768382
22	38767	352.173257191657	0.030828946394349
22	38768	352.204086138051	11.36556937863
22	39964	363.569655516681	0.78771712356925
22	40092	364.35737264025	0.94412473601982
22	40158	365.30149737627	1.102583279481
22	40285	366.404080655751	8.4257218894066
22	41191	374.829802545158	0.019044217173143
22	41197	374.848846762331	3.225707845107
22	41548	378.074554607438	3.5873579326597
22	41933	381.661912540098	3.4909995825397
22	42337	385.152912122638	1.7170524753712
22	42532	386.869964598009	0.083531111980102
22	42538	386.953495709989	1.533124773011
22	42641	388.486620483	1.4550713855701
22	42778	389.94169186857	2.3516030280319
22	42993	392.293294896602	0.6058564498896
22	43065	392.899151346492	1.2241131222104
22	43164	394.123264468702	0.58425388621804
22	43236	394.70751835492	5.1705697499786
22	43819	399.878088104899	0.4349285881622
23	1629	14.88013127667	4.7205665301002
23	2251	19.60069780677	1.3852380602389
23	2395	20.985935867009	2.1693164908975
23	2645	23.155252357907	3.0578613548274
23	3035	26.213113712734	2.4518612410032
23	3292	28.664974953737	0.70916812221065
23	3383	29.374143075948	1.3608745928875
23	3543	30.735017668835	1.8534889848885
23	3737	32.588506653724	1.6523671528583
23	3880	34.240873806582	2.0178973773228
23	4089	36.258771183905	5.9961795454856
23	4745	42.254950729391	0.3553210300884
23	4805	42.610271759479	0.0014883428637058
23	4806	42.611760102343	0.32733841633871
23	4847	42.939098518682	9.0086486810069
23	5876	51.947747199689	0.10775257470661
23	5894	52.055499774396	0.71064527487448
23	5958	52.76614504927	3.7539359961844
23	6348	56.520081045454	2.6947424314664
23	6613	59.21482347692	1.2933820089373
23	6736	60.508205485857	0.86322369617272
23	6835	61.37142918203	1.9935337913247
23	7125	63.364962973355	6.0200243947272
23	7778	69.384987368082	4.3182959907546
23	8238	73.703283358837	2.9866079204565
23	8551	76.689891279294	0.7521926278423
23	8610	77.442083907136	0.53862385276211
23	8653	77.980707759898	0.60229380752291
23	8729	78.583001567421	0.64314656439402
23	8829	79.226148131815	1.4696331933983
23	9015	80.695781325213	2.6601253837878
23	9291	83.355906709001	4.9295399335186
23	9825	88.28544664252	0.83752411666243
23	9969	89.122970759182	0.63869119807147
23	10062	89.761661957253	2.8693551648363
23	10336	92.631017122089	2.0415738081163
23	10557	94.672590930205	2.6166110448452
23	10848	97.28920197505	7.8384397917293
23	11716	105.127641766779	0.81806324776956
23	11820	105.945705014549	10.736183484853
23	12874	116.681888499402	0.46518370830199
23	12923	117.147072207704	0.32049729765498
23	12971	117.467569505359	0.71024177675763
23	13017	118.177811282117	1.4030268211233
23	13157	119.58083810324	0.78509937267409
23	13266	120.365937475914	0.79022937215771
23	13339	121.156166848072	0.65621763620319
23	13429	121.812384484275	0.25539023842861
23	13448	122.067774722704	0.2420303609168
23	13479	122.309805083621	3.1545926815721
23	13855	125.464397765193	0.7365211161052
23	13938	126.200918881298	1.0419462417839
23	14037	127.242865123082	0.90267998864797
23	14120	128.14554511173	0.31920115191945
23	14170	128.464746263649	0.74149687056763
23	14274	129.206243134217	4.1901458466652
23	14701	133.396388980882	3.8446988907367
23	15167	137.241087871619	1.3195121867763
23	15327	138.560600058395	0.05633823156808
23	15328	138.616938289963	1.5380451690978
23	15513	140.154983459061	2.5885176978192
23	15793	142.74350115688	0.80820855434941
23	15864	143.551709711229	2.5720577418716
23	16120	146.123767453101	0.16859832024581
23	16128	146.292365773347	0.39230916052229
23	16183	146.684674933869	2.3694549381296
23	16439	149.054129871999	0.30780629166776
23	16461	149.361936163667	0.25467536436928
23	16470	149.616611528036	5.6038102626051
23	17147	155.220421790641	4.7181749474531
23	17609	159.938596738094	0.429108376749
23	17665	160.367705114843	1.3775399576318
23	17850	161.745245072475	1.0474788884704
23	17962	162.792723960945	1.7607767129682
23	18174	164.553500673913	9.2337363223021
23	19030	173.787236996215	0.63169173277892
23	19092	174.418928728994	0.052705726829951
23	19108	174.471634455824	3.3832613057954
23	19472	177.854895761619	3.2727891059794
23	19768	181.127684867598	1.9467947045252
23	19932	183.074479572123	1.1833827958248
23	20033	184.257862367948	0.38364823549929
23	20068	184.641510603447	0.69915621212556
23	20148	185.340666815573	0.036728641994197
23	20154	185.377395457567	1.6975777377591
23	20352	187.074973195326	0.78164435747619
23	20438	187.856617552802	3.4834207892597
23	20824	191.340038342062	1.2945917793557
23	20989	192.634630121418	5.8097393355623
23	21591	198.44436945698	0.88685932252931
23	21711	199.331228779509	11.688337911536
23	23100	211.019566691045	2.1517501220047
23	23319	213.17131681305	2.9446427321463
23	23663	216.115959545196	2.1496530142664
23	23884	218.265612559462	1.2622330539981
23	24048	219.52784561346	0.73252861502073
23	24111	220.260374228481	0.28192260676349
23	24144	220.542296835244	0.4338961683959
23	24182	220.97619300364	0.16342774753874
23	24206	221.139620751179	2.175209862811
23	24485	223.31483061399	1.3165896119398
23	24637	224.63142022593	0.017549253988623
23	24638	224.648969479919	1.092896162852
23	24755	225.741865642771	1.836050144065
23	24948	227.577915786836	3.4768092201653
23	25295	231.054725007001	4.8970568417189
23	25961	235.95178184872	4.9422088001257
23	26464	240.893990648846	3.0730426592648
23	26739	243.967033308111	0.76095255383162
23	26788	244.727985861943	0.076622186909967
23	26794	244.804608048853	1.5744880571048
23	26973	246.379096105958	0.8672569576853
23	27068	247.246353063643	2.6188967587305
23	27344	249.865249822373	0.86804122420774
23	27452	250.733291046581	2.8602320720236
23	27745	253.593523118605	6.609638847126
23	28460	260.203161965731	0.88936763923681
23	28556	261.092529604968	1.6703080933953
23	28749	262.762837698363	2.2358843275215
23	29073	264.998722025885	1.265678751236
23	29184	266.264400777121	2.3569655647722
23	29430	268.621366341893	4.792791733206
23	29885	273.414158075099	1.0708560640899
23	29991	274.485014139189	0.41749516272376
23	30021	274.902509301913	0.97087343728177
23	30081	275.873382739195	2.3120853465441
23	30419	278.185468085739	4.1569492741479
23	30893	282.342417359887	1.623068676485
23	31117	283.965486036372	3.2528014486919
23	31469	287.218287485064	1.6389077278318
23	31621	288.857195212896	2.1519212950615
23	31918	291.009116507958	5.5504854732819
23	32407	296.55960198124	2.5587919124516
23	32647	299.118393893692	0.7546157513653
23	32727	299.873009645057	0.54629135387515
23	32789	300.419300998932	2.3051473234542
23	33095	302.724448322386	2.4983604823875
23	33322	305.222808804774	1.6816102851071
23	33537	306.904419089881	1.7407737376489
23	33707	308.64519282753	0.21239623899589
23	33733	308.857589066526	0.14021478673399
23	33751	308.99780385326	2.113011223904
23	33947	311.110815077164	2.7216951754684
23	34284	313.832510252632	0.047249192801016
23	34291	313.879759445433	0.063849618029183
23	34297	313.943609063462	0.014568829016278
23	34300	313.958177892478	2.1194868052014
23	34591	316.077664697679	0.095317279425009
23	34608	316.172981977104	2.6327194368239
23	34885	318.805701413928	3.1410431789424
23	35299	321.94674459287	0.61120431502505
23	35399	322.557948907895	2.3491683825009
23	35686	324.907117290396	2.5361239932865
23	35975	327.443241283683	1.4491452028252
23	36116	328.892386486508	1.1203353644739
23	36260	330.012721850982	1.169714515498
23	36382	331.18243636648	6.6820628886334
23	37110	337.864499255113	0.2662115151537
23	37141	338.130710770267	0.39842728775679
23	37182	338.529138058024	0.80058118259344
23	37270	339.329719240617	2.7330948212813
23	37592	342.062814061898	0.19093381081762
23	37619	342.253747872716	0.64498982929234
23	37699	342.898737702008	1.4553344644998
23	37868	344.354072166508	1.1827216959398
23	38005	345.536793862448	1.9839211981972
23	38252	347.520715060645	1.7159302254059
23	38446	349.236645286051	1.7952115223918
23	38619	351.031856808443	7.4364120540516
23	39374	358.468268862495	0.74073119517851
23	39456	359.209000057674	3.9210616754892
23	39922	363.130061733163	1.7976479454005
23	40127	364.927709678564	0.78786397135886
23	40212	365.715573649923	0.13028055138465
23	40218	365.845854201308	8.4434489757577
23	41133	374.289303177066	0.15380104322515
23	41149	374.443104220291	1.2587219862665
23	41258	375.701826206558	1.7718838222605
23	41478	377.473710028818	0.23558095739537
23	41494	377.709290986213	3.4823330663764
23	41881	381.191624052589	7.9973036712071
23	42718	389.188927723796	8.4413992001134
23	43526	397.630326923909	5.0113513758688
24	1931	17.359049821192	0.48495296000732
24	2000	17.844002781199	1.5363635526454
24	2218	19.380366333844	5.7406037324418
24	2911	25.120970066286	1.3686644943602
24	3066	26.489634560646	0.066215589068304
24	3074	26.555850149714	1.4290777036021
24	3212	27.984927853316	5.3137032692466
24	3777	33.298631122563	5.084563121007
24	4325	38.38319424357	2.266207098395
24	4590	40.649401341965	2.3768015800091
24	4865	43.026202921974	2.5411167801236
24	5167	45.567319702098	0.88979150384091
24	5244	46.457111205939	1.6640053657462
24	5437	48.121116571685	0.86901310854306
24	5534	48.990129680228	1.2369755401593
24	5662	50.227105220387	0.91637317817326
24	5778	51.14347839856	0.27056240276879
24	5806	51.414040801329	1.5104089575316
24	5975	52.924449758861	1.2535969798979
24	6062	54.178046738759	0.58303350961165
24	6109	54.761080248371	0.83522851780302
24	6221	55.596308766174	0.65948424134043
24	6314	56.255793007514	1.5178318760739
24	6496	57.773624883588	0.789041582213
24	6584	58.562666465801	0.63099340668003
24	6612	59.193659872481	0.96058390915019
24	6705	60.154243781631	2.3365594723421
24	7000	62.490803253973	7.4187122009247
24	7822	69.909515454898	2.6506817548476
24	8119	72.560197209746	6.093289092174
24	8741	78.65348630192	1.7039175474934
24	8952	80.357403849413	5.3207708612379
24	9528	85.678174710651	1.9860893763939
24	9756	87.664264087045	0.26393792154666
24	9786	87.928202008592	2.1739654679445
24	10097	90.102167476537	4.0299939307351
24	10491	94.132161407272	0.41723024621709
24	10540	94.549391653489	0.8838795299013
24	10633	95.43327118339	0.10918122340288
24	10646	95.542452406793	0.63644182995341
24	10722	96.178894236746	2.1667402110281
24	10955	98.345634447774	1.5723851933844
24	11108	99.918019641158	0.16104488997608
24	11140	100.079064531134	0.074087367995255
24	11152	100.153151899129	2.3107985285903
24	11455	102.463950427719	0.82076379869982
24	11525	103.284714226419	5.4056909935489
24	12099	108.690405219968	6.7458282512752
24	12721	115.436233471243	1.4635898639171
24	12897	116.89982333516	0.28524594719122
24	12924	117.185069282351	0.40774137255118
24	12975	117.592810654902	0.099602601754547
24	12981	117.692413256657	3.4050028666747
24	13338	121.097416123332	2.5275835588869
24	13643	123.624999682219	0.78669122568551
24	13756	124.411690907905	1.867026943644
24	13939	126.278717851549	1.6828324568338
24	14092	127.961550308383	1.057899637373
24	14243	129.019449945756	0.35574819623259
24	14291	129.375198141989	0.86884050645385
24	14389	130.244038648443	0.73810004832002
24	14467	130.982138696763	0.41872689175675
24	14495	131.40086558852	2.9819496916566
24	14798	134.382815280177	0.91970144987482
24	14922	135.302516730052	4.8323057093163
24	15507	140.134822439368	0.17558276841263
24	15526	140.310405207781	4.1448462662474
24	15959	144.455251474028	3.3025134733525
24	16282	147.75776494738	2.3842614133711
24	16544	150.142026360751	0.15479173118091
24	16560	150.296818091932	0.49599960406474
24	16643	150.792817695997	0.01991116361597
24	16648	150.812728859613	0.82060157201951
24	16718	151.633330431633	1.7476013171831
24	16881	153.380931748816	5.9475076327613
24	17573	159.328439381577	1.0814556135882
24	17672	160.409894995165	0.95588144951685
24	17789	161.365776444682	3.8533761877855
24	18243	165.219152632467	0.3083810958053
24	18268	165.527533728272	1.0930420634288
24	18355	166.620575791701	1.6767419724239
24	18512	168.297317764125	5.6730265233386
24	19048	173.970344287464	0.21839062445117
24	19070	174.188734911915	1.2158375429033
24	19223	175.404572454818	1.4115050049286
24	19377	176.816077459747	1.3138576845705
24	19495	178.129935144318	0.58573069499408
24	19558	178.715665839312	0.57044656933932
24	19598	179.286112408651	0.78924729258347
24	19646	180.075359701234	0.38601155855217
24	19701	180.461371259786	2.5644871596217
24	19931	183.025858419408	2.4207187546032
24	20162	185.446577174011	0.0023583069883165
24	20166	185.448935480999	3.7092265655977
24	20560	189.158162046597	0.51578919829285
24	20622	189.67395124489	0.046079842919547
24	20628	189.72003108781	10.086478224162
24	21744	199.806509311972	1.4336049424804
24	21895	201.240114254452	4.6098315403148
24	22455	205.849945794767	1.2750561009061
24	22616	207.125001895673	0.79466708625006
24	22706	207.919668981923	0.21794943574674
24	22731	208.13761841767	1.58797069269
24	22922	209.72558911036	4.37013796124
24	23444	214.0957270716	0.28900247232308
24	23492	214.384729543923	0.03215573765883
24	23501	214.416885281582	2.7750424084206
24	23751	217.191927690003	2.5784826428703
24	24065	219.770410332873	0.14641469370595
24	24066	219.916825026579	1.4612775658627
24	24233	221.378102592442	3.9243712390439
24	24696	225.302473831486	0.56308846652365
24	24757	225.86556229801	1.9354324240459
24	24966	227.800994722056	0.75646139929851
24	25043	228.557456121355	1.1239036458236
24	25170	229.681359767179	0.76498971859446
24	25237	230.446349485773	2.9600981963779
24	25612	233.406447682151	0.87708194211506
24	25727	234.283529624266	0.78188970943856
24	25855	235.065419333705	4.737503257715
24	26334	239.80292259142	2.6528939089862
24	26615	242.455816500406	0.4515867886669
24	26659	242.907403289073	0.18250088726241
24	26667	243.089904176335	1.8018195596062
24	26795	244.891723735941	0.53420113845106
24	26866	245.425924874392	2.6939045380829
24	27152	248.119829412475	6.1666641589675
24	27829	254.286493571442	0.14911740111207
24	27840	254.435610972554	0.67845964784894
24	27917	255.114070620403	0.60493488185149
24	27991	255.719005502254	3.3016938912774
24	28341	259.020699393531	2.4303929916612
24	28602	261.451092385192	2.2402150728455
24	28890	263.691307458037	3.8387852975518
24	29330	267.530092755589	2.4493989707828
24	29556	269.979491726372	6.9420480889098
24	30248	276.921539815282	5.1567139808297
24	30862	282.078253796112	0.015439941503999
24	30868	282.093693737616	2.9496353460076
24	31227	285.043329083624	1.8719393412558
24	31426	286.91526842488	1.4297270508755
24	31594	288.344995475756	8.2340010437389
24	32413	296.578996519495	5.2500088092516
24	32953	301.829005328747	0.11316195188929
24	32965	301.942167280636	1.2405856820005
24	33124	303.182752962637	3.7525638028276
24	33538	306.935316765465	6.4812426199941
24	34231	313.416559385459	2.2988396763969
24	34524	315.715399061856	0.11952930309154
24	34546	315.834928364948	4.6426936096955
24	35094	320.477621974644	0.172501069495
24	35121	320.650123044139	0.98192529911755
24	35265	321.632048343257	1.1396786378681
24	35427	322.771726981125	2.1566516752795
24	35692	324.928378656405	0.61734312873762
24	35774	325.545721785143	0.060641813587989
24	35783	325.606363598731	0.71371528588573
24	35854	326.320078884617	0.66080661641352
24	35926	326.980885501031	4.6464863231012
24	36426	331.627371824132	2.7313461543271
24	36667	334.358717978459	1.8984065971865
24	36882	336.257124575645	1.8339309913899
24	37140	338.091055567035	2.9468512976934
24	37454	341.037906864728	6.031345396616
24	38196	347.069252261344	1.0807006781682
24	38318	348.149952939512	1.2759113585873
24	38469	349.425864298099	0.087736730437679
24	38477	349.513601028537	3.7850088471806
24	38879	353.298609875718	0.31872373856944
24	38902	353.617333614287	11.802727022865
24	40182	365.420060637152	0.034132655262443
24	40184	365.454193292414	3.6314901786433
24	40560	369.085683471057	1.1963838221832
24	40721	370.28206729324	4.258004988011
24	41163	374.540072281251	0.87063250439203
24	41236	375.410704785643	1.911407829865
24	41457	377.322112615508	1.3317889603443
24	41601	378.653901575852	0.80562399722946
24	41706	379.459525573081	0.28515035926285
24	41739	379.744675932344	4.5971652190333
24	42226	384.341841151377	1.9581604633133
24	42449	386.30000161469	0.15331304452657
24	42467	386.453314659217	0.50489635069854
24	42539	386.958211009916	4.5835050634107
24	42916	391.541716073327	5.5349677914967
24	43449	397.076683864824	0.20140252275269
24	43476	397.278086387577	2.3122570540939
24	43763	399.590343441671	1.745028230347

