file 9195897 1613479528                                         
version 2
run Exponential-capacity-3-20210216-13:45:26-8612
attr configname Exponential-capacity
attr datetime 20210216-13:45:26
attr experiment Exponential-capacity
attr inifile aerocom.ini
attr iterationvars "$0=0.5, $1=10, $2=0.5, $3=4"
attr iterationvarsf 0.5,10,0.5,4-
attr measurement "$0=0.5, $1=10, $2=0.5, $3=4"
attr network Aerocom
attr processid 8612
attr repetition 0
attr replication #0
attr resultdir results
attr runnumber 3
attr seedset 0
param **.t 0.5s
param **.k 10ms
param **.X 0.5s
param **.m 4s
param **.tDistribution "\"exponential\""
param **.operationMode 0
param **.s "70 byte"
param **.dimPoolMax 10000
param **.dimPoolMin 8000
param **.nDL 10
param **.nA 1
param **.DLMaxCapacity 0
param **.trasmitting false

vector 0 Aerocom.aircraft[0].packetGenerator arrivalTime:vector ETV
attr "" ""
attr source computeArrivalTime
vector 1 Aerocom.aircraft[0].linkSelector waitingTime:vector ETV
attr "" ""
attr source computeWaitingTime
vector 2 Aerocom.aircraft[0].linkSelector queueLength:vector ETV
attr "" ""
attr source computeQueueLength
vector 3 Aerocom.aircraft[0].dataLink[4] actualCapacity:vector ETV
attr "" ""
attr source computeActualCapacity
vector 4 Aerocom.aircraft[0].linkSelector serviceTime:vector ETV
attr "" ""
attr source computeServiceTime
vector 5 Aerocom.aircraft[0].linkSelector responseTime:vector ETV
attr "" ""
attr source computeResponseTime
vector 6 Aerocom.aircraft[0].dataLink[0] tDistribution:vector ETV
attr "" ""
attr source computeTDistribution
vector 7 Aerocom.aircraft[0].dataLink[3] tDistribution:vector ETV
attr "" ""
attr source computeTDistribution
vector 8 Aerocom.aircraft[0].dataLink[7] tDistribution:vector ETV
attr "" ""
attr source computeTDistribution
vector 9 Aerocom.aircraft[0].dataLink[2] tDistribution:vector ETV
attr "" ""
attr source computeTDistribution
vector 10 Aerocom.aircraft[0].dataLink[9] tDistribution:vector ETV
attr "" ""
attr source computeTDistribution
vector 11 Aerocom.aircraft[0].dataLink[5] tDistribution:vector ETV
attr "" ""
attr source computeTDistribution
vector 12 Aerocom.aircraft[0].dataLink[6] tDistribution:vector ETV
attr "" ""
attr source computeTDistribution
vector 13 Aerocom.aircraft[0].dataLink[1] tDistribution:vector ETV
attr "" ""
attr source computeTDistribution
vector 14 Aerocom.aircraft[0].dataLink[8] tDistribution:vector ETV
attr "" ""
attr source computeTDistribution
vector 15 Aerocom.aircraft[0].dataLink[4] tDistribution:vector ETV
attr "" ""
attr source computeTDistribution
vector 16 Aerocom.aircraft[0].dataLink[0] actualCapacity:vector ETV
attr "" ""
attr source computeActualCapacity
vector 17 Aerocom.aircraft[0].dataLink[1] actualCapacity:vector ETV
attr "" ""
attr source computeActualCapacity
vector 18 Aerocom.aircraft[0].dataLink[2] actualCapacity:vector ETV
attr "" ""
attr source computeActualCapacity
vector 19 Aerocom.aircraft[0].dataLink[3] actualCapacity:vector ETV
attr "" ""
attr source computeActualCapacity
vector 20 Aerocom.aircraft[0].dataLink[5] actualCapacity:vector ETV
attr "" ""
attr source computeActualCapacity
vector 21 Aerocom.aircraft[0].dataLink[6] actualCapacity:vector ETV
attr "" ""
attr source computeActualCapacity
vector 22 Aerocom.aircraft[0].dataLink[7] actualCapacity:vector ETV
attr "" ""
attr source computeActualCapacity
vector 23 Aerocom.aircraft[0].dataLink[8] actualCapacity:vector ETV
attr "" ""
attr source computeActualCapacity
vector 24 Aerocom.aircraft[0].dataLink[9] actualCapacity:vector ETV
attr "" ""
attr source computeActualCapacity
0	3618 1342797 5702 195623 10.002616319138 334.179259405181 32768 4.011e-008 0.107223249796 324.17673621716 6.4215077879631
1	1346415 1206758 5703 195638 10.002616319138 334.199946627041 32768 0 0.683052120942 1720.4648535071 608.93659446377
2	2553173 924646 5703 195638 10.002616319138 334.199946627041 32768 0 77 178147 6772271
4	3477819 1472941 5703 195638 10.002616319138 334.199946627041 32768 0.0070049034324027 0.0087434424181864 253.97766750382 1.9744318386547
5	4950760 1342812 5708 195643 10.011308731903 334.207374470844 32768 0.007004903432 0.691314632746 1974.4425210108 637.60026479051
0	6293572 272531 195625 233921 334.179352536302 399.974672125632 6522 2.306095e-006 0.10350655095 65.828555667873 1.3356747668135
1	6566103 243287 195643 233926 334.207374470844 399.983253752771 6522 0 0.546526134511 333.93644661208 113.39044826409
2	6809390 189316 195643 233926 334.207374470844 399.983253752771 6522 0 57 34373 1228115
3	6998706 107253 5703 233933 10.002616319138 400 3448 8053 9993 30899973 278063643593
4	7105959 298426 195643 233926 334.207374470844 399.983253752771 6522 0.0070042025215129 0.00875 50.371385549625 0.39025077890669
5	7404385 272452 195646 233930 334.2148659092 399.990814781071 6522 0.007004202522 0.554286666662 384.30783216172 118.90989073265
6	7676837 33991 5724 233912 10.042820177235 399.967497856534 788 0.00062020026830132 2.9799121312984 390.37915609227 381.96671869248
7	7710828 35707 5738 233663 10.062091937059 399.519600555502 827 0.00036199919213032 3.6981388542622 390.50754970754 370.17857299301
8	7746535 36094 5764 233511 10.100728150422 399.263459716624 836 0.00019418306873277 2.7142132760003 391.25474958391 368.06052080671
9	7782629 32879 5809 233879 10.171203108278 399.905483447295 762 0.00045111153041332 3.1786045526238 390.53559259343 392.23059181944
10	7815508 33545 5823 233396 10.192621587094 399.068006015217 760 0.00027665290109629 3.2522337397256 390.66987786196 387.16390925616
11	7849053 30820 5827 233878 10.199131011911 399.90237018197 700 0.0011978778005887 3.7747751881069 390.40676740378 417.98564983781
12	7879873 33089 5839 233769 10.241083994123 399.706936420127 749 0.00040164675543452 3.6444460937736 390.19670470527 429.01833469629
13	7912962 35594 5944 233640 10.398736202718 399.465438120764 805 0.00056323607031456 3.3069891392411 390.05446963084 378.77187713309
14	7948556 36011 6036 233265 10.548171519696 398.804411642983 813 6.1795907249355e-005 3.8756011976659 390.15883067755 392.65495195696
15	7984567 37124 6542 233355 11.369278336466 398.993347524372 841 0.00023429031071929 3.194958277539 389.73593214821 360.44654827189
16	8021691 94467 6926 233933 12 400 2962 8023 9930 26917336 245266222940
17	8116158 133914 6926 233933 12 400 4237 8015 9994 38514910 350891814048
18	8250072 128164 6926 233933 12 400 4084 8009 9980 37362881 342850988239
19	8378236 145788 6926 233933 12 400 4565 8037 9967 41151608 372095147762
20	8524024 155552 6926 233933 12 400 4904 8007 9979 44503836 404992091924
21	8679576 147077 6926 233933 12 400 4592 8028 9986 41853593 382242227671
22	8826653 172740 6926 233933 12 400 5352 8000 9993 48500213 440900748761
23	8999393 79011 6926 233933 12 400 2467 8044 9987 21832000 193829758810
24	9078404 117491 6926 233933 12 400 3659 8005 9919 33404451 305866183953

