file 1476216 1613553640                                         
version 2
run Exponential-capacity-13-20210217-10:20:40-2176
attr configname Exponential-capacity
attr datetime 20210217-10:20:40
attr experiment Exponential-capacity
attr inifile aerocom.ini
attr iterationvars "$0=60, $1=1.5"
attr iterationvarsf 60,1.5-
attr measurement "$0=60, $1=1.5"
attr network Aerocom
attr processid 2176
attr repetition 0
attr replication #0
attr resultdir results
attr runnumber 13
attr seedset 0
param **.t 3s
param **.k 60ms
param **.X 0.5s
param **.m 1.5s
param **.tDistribution "\"exponential\""
param **.operationMode 0
param **.s "70 byte"
param **.dimPoolMax 10000
param **.dimPoolMin 8000
param **.nDL 10
param **.nA 1
param **.DLMaxCapacity 0
param **.trasmitting false

vector 0 Aerocom.aircraft[0].packetGenerator arrivalTime:vector ETV
attr "" ""
attr source computeArrivalTime
vector 1 Aerocom.aircraft[0].linkSelector waitingTime:vector ETV
attr "" ""
attr source computeWaitingTime
vector 2 Aerocom.aircraft[0].linkSelector queueLength:vector ETV
attr "" ""
attr source computeQueueLength
vector 3 Aerocom.aircraft[0].dataLink[1] actualCapacity:vector ETV
attr "" ""
attr source computeActualCapacity
vector 4 Aerocom.aircraft[0].linkSelector serviceTime:vector ETV
attr "" ""
attr source computeServiceTime
vector 5 Aerocom.aircraft[0].linkSelector responseTime:vector ETV
attr "" ""
attr source computeResponseTime
vector 6 Aerocom.aircraft[0].dataLink[4] tDistribution:vector ETV
attr "" ""
attr source computeTDistribution
vector 7 Aerocom.aircraft[0].dataLink[6] tDistribution:vector ETV
attr "" ""
attr source computeTDistribution
vector 8 Aerocom.aircraft[0].dataLink[1] tDistribution:vector ETV
attr "" ""
attr source computeTDistribution
vector 9 Aerocom.aircraft[0].dataLink[0] actualCapacity:vector ETV
attr "" ""
attr source computeActualCapacity
vector 10 Aerocom.aircraft[0].dataLink[2] actualCapacity:vector ETV
attr "" ""
attr source computeActualCapacity
vector 11 Aerocom.aircraft[0].dataLink[3] actualCapacity:vector ETV
attr "" ""
attr source computeActualCapacity
vector 12 Aerocom.aircraft[0].dataLink[4] actualCapacity:vector ETV
attr "" ""
attr source computeActualCapacity
vector 13 Aerocom.aircraft[0].dataLink[5] actualCapacity:vector ETV
attr "" ""
attr source computeActualCapacity
vector 14 Aerocom.aircraft[0].dataLink[6] actualCapacity:vector ETV
attr "" ""
attr source computeActualCapacity
vector 15 Aerocom.aircraft[0].dataLink[7] actualCapacity:vector ETV
attr "" ""
attr source computeActualCapacity
vector 16 Aerocom.aircraft[0].dataLink[8] actualCapacity:vector ETV
attr "" ""
attr source computeActualCapacity
vector 17 Aerocom.aircraft[0].dataLink[9] actualCapacity:vector ETV
attr "" ""
attr source computeActualCapacity
vector 18 Aerocom.aircraft[0].dataLink[5] tDistribution:vector ETV
attr "" ""
attr source computeTDistribution
vector 19 Aerocom.aircraft[0].dataLink[8] tDistribution:vector ETV
attr "" ""
attr source computeTDistribution
vector 20 Aerocom.aircraft[0].dataLink[0] tDistribution:vector ETV
attr "" ""
attr source computeTDistribution
vector 21 Aerocom.aircraft[0].dataLink[2] tDistribution:vector ETV
attr "" ""
attr source computeTDistribution
vector 22 Aerocom.aircraft[0].dataLink[7] tDistribution:vector ETV
attr "" ""
attr source computeTDistribution
vector 23 Aerocom.aircraft[0].dataLink[9] tDistribution:vector ETV
attr "" ""
attr source computeTDistribution
vector 24 Aerocom.aircraft[0].dataLink[3] tDistribution:vector ETV
attr "" ""
attr source computeTDistribution
0	3586 256564 864 35297 10.002239996404 399.941012287251 6369 3.321114e-006 0.61394892745 390.12588975903 47.967875753031
1	260150 205786 865 35298 10.002239996404 399.941012287251 6369 0 0.504789235247 553.00868542989 185.82035354549
2	465936 172109 865 35298 10.002239996404 399.941012287251 6369 0 19 9087 60713
3	638045 25487 865 35220 10.002239996404 399 940 8077 9920 8900791 84433674021
4	663532 279459 865 35298 10.002239996404 399.941012287251 6369 0.0070063056751076 0.0087129698780184 46.629526374068 0.3418860393054
5	942991 256483 866 35299 10.009549174644 399.948573315551 6369 0.007006305675 0.512127530666 599.63821180389 194.23307350616
6	1199474 6452 886 35082 10.203684607688 397.281470896017 155 0.010739517205868 10.933740481042 391.20523465692 1867.3384032852
7	1205926 5345 892 35270 10.276687748401 399.582664491057 128 0.0046257705518035 21.866676562641 394.65348847132 2680.3533415531
8	1211271 4981 903 35271 10.379485951627 399.598350968059 120 0.010023053548118 19.095471434865 392.76340000707 2407.0567308421
9	1216252 33960 909 35220 10.5 399 1230 8065 9958 11612810 109919955812
10	1250212 15362 909 35220 10.5 399 596 8018 9963 5518144 51258611130
11	1265574 22914 909 35220 10.5 399 845 8077 9942 7962403 75175212359
12	1288488 21666 909 35220 10.5 399 799 8021 9958 7456558 69832624452
13	1310154 23138 909 35220 10.5 399 841 8016 9986 7863377 73682884733
14	1333292 20464 909 35220 10.5 399 751 8168 9921 7000611 65428128607
15	1353756 24512 909 35298 10.5 399.941012287251 883 8031 9987 8245507 77207941153
16	1378268 29060 909 35220 10.5 399 1041 8036 9991 9913061 94574529509
17	1407328 29404 909 35220 10.5 399 1043 8034 9946 9850267 93263783509
18	1436732 6202 913 35232 10.512701937009 399.26724886852 146 0.0074565261417224 13.460148239681 393.83660967434 2049.2077779932
19	1442934 4678 992 34734 11.360882962893 393.499445083393 110 0.00037077544349613 23.253607185995 395.47160748284 3033.4957189197
20	1447612 5661 1086 35040 11.986246086418 396.616178795411 133 0.039976272460222 11.530792426723 388.43385299836 2058.0400242859
21	1453273 5806 1096 34947 12.109370541993 395.436018372776 136 0.0061931119847609 15.274890465208 389.19202620404 2037.979323136
22	1459079 5581 1129 35208 12.313726549034 398.971737981676 131 0.029300814333314 15.865257109258 388.93846333758 2425.3017972606
23	1464660 5504 1191 35237 13.034736668212 399.363504255394 129 0.0077577452830852 19.513402438353 388.62563507912 2515.9534008334
24	1470164 6050 1631 35183 18.527692622347 398.597767503948 142 0.0056532962066554 13.09960706888 383.31012451243 1994.1847888339

