version 2
run Exponential-capacity-36-20210216-13:46:19-24780
attr configname Exponential-capacity
attr datetime 20210216-13:46:19
attr experiment Exponential-capacity
attr inifile aerocom.ini
attr iterationvars "$0=2, $1=50, $2=0.5, $3=0.5"
attr iterationvarsf 2,50,0.5,0.5-
attr measurement "$0=2, $1=50, $2=0.5, $3=0.5"
attr network Aerocom
attr processid 24780
attr repetition 0
attr replication #0
attr resultdir results
attr runnumber 36
attr seedset 0
param **.t 2s
param **.k 50ms
param **.X 0.5s
param **.m 0.5s
param **.tDistribution "\"exponential\""
param **.operationMode 0
param **.s "70 byte"
param **.dimPoolMax 10000
param **.dimPoolMin 8000
param **.nDL 10
param **.nA 1
param **.DLMaxCapacity 0
param **.trasmitting false

vector 0 Aerocom.aircraft[0].dataLink[0] actualCapacity:vector ETV
attr "" ""
attr source computeActualCapacity
vector 1 Aerocom.aircraft[0].dataLink[1] actualCapacity:vector ETV
attr "" ""
attr source computeActualCapacity
vector 2 Aerocom.aircraft[0].dataLink[2] actualCapacity:vector ETV
attr "" ""
attr source computeActualCapacity
vector 3 Aerocom.aircraft[0].dataLink[3] actualCapacity:vector ETV
attr "" ""
attr source computeActualCapacity
vector 4 Aerocom.aircraft[0].dataLink[4] actualCapacity:vector ETV
attr "" ""
attr source computeActualCapacity
vector 5 Aerocom.aircraft[0].dataLink[5] actualCapacity:vector ETV
attr "" ""
attr source computeActualCapacity
vector 6 Aerocom.aircraft[0].dataLink[6] actualCapacity:vector ETV
attr "" ""
attr source computeActualCapacity
vector 7 Aerocom.aircraft[0].dataLink[7] actualCapacity:vector ETV
attr "" ""
attr source computeActualCapacity
vector 8 Aerocom.aircraft[0].dataLink[8] actualCapacity:vector ETV
attr "" ""
attr source computeActualCapacity
vector 9 Aerocom.aircraft[0].dataLink[9] actualCapacity:vector ETV
attr "" ""
attr source computeActualCapacity
vector 10 Aerocom.aircraft[0].packetGenerator arrivalTime:vector ETV
attr "" ""
attr source computeArrivalTime
vector 11 Aerocom.aircraft[0].linkSelector waitingTime:vector ETV
attr "" ""
attr source computeWaitingTime
vector 12 Aerocom.aircraft[0].linkSelector queueLength:vector ETV
attr "" ""
attr source computeQueueLength
vector 13 Aerocom.aircraft[0].linkSelector serviceTime:vector ETV
attr "" ""
attr source computeServiceTime
vector 14 Aerocom.aircraft[0].linkSelector responseTime:vector ETV
attr "" ""
attr source computeResponseTime
vector 15 Aerocom.aircraft[0].dataLink[1] tDistribution:vector ETV
attr "" ""
attr source computeTDistribution
vector 16 Aerocom.aircraft[0].dataLink[2] tDistribution:vector ETV
attr "" ""
attr source computeTDistribution
vector 17 Aerocom.aircraft[0].dataLink[7] tDistribution:vector ETV
attr "" ""
attr source computeTDistribution
vector 18 Aerocom.aircraft[0].dataLink[5] tDistribution:vector ETV
attr "" ""
attr source computeTDistribution
vector 19 Aerocom.aircraft[0].dataLink[0] tDistribution:vector ETV
attr "" ""
attr source computeTDistribution
vector 20 Aerocom.aircraft[0].dataLink[8] tDistribution:vector ETV
attr "" ""
attr source computeTDistribution
vector 21 Aerocom.aircraft[0].dataLink[9] tDistribution:vector ETV
attr "" ""
attr source computeTDistribution
vector 22 Aerocom.aircraft[0].dataLink[3] tDistribution:vector ETV
attr "" ""
attr source computeTDistribution
vector 23 Aerocom.aircraft[0].dataLink[4] tDistribution:vector ETV
attr "" ""
attr source computeTDistribution
vector 24 Aerocom.aircraft[0].dataLink[6] tDistribution:vector ETV
attr "" ""
attr source computeTDistribution
0	1133	10	8730
0	1190	10.5	8820
0	1234	11	8910
0	1267	11.5	9042
0	1323	12	9193
0	1361	12.5	9344
0	1432	13	9254
0	1509	13.5	9142
0	1565	14	9031
0	1621	14.5	9192
0	1679	15	9561
0	1702	15.5	9888
0	1705	15.559913022022	9822
0	1710	15.661208462877	9712
0	1713	15.668416041131	9704
0	1718	15.675629561329	9697
0	1725	15.707484783639	9662
0	1730	15.755283104835	9610
0	1735	15.764410034929	9600
0	1738	15.771701701596	9592
0	1746	15.84651039319	9511
0	1751	15.940706837519	9408
0	1755	16	9344
0	1807	16.5	8800
0	1858	17	8256
0	1922	17.5	8278
0	1994	18	8360
0	2054	18.5	8441
0	2085	19	8523
0	2124	19.5	8605
0	2198	20	8687
0	2262	20.5	8769
0	2312	21	8843
0	2358	21.5	8895
0	2419	22	8947
0	2465	22.5	8999
0	2520	23	9052
0	2570	23.5	9069
0	2630	24	9044
0	2700	24.5	9019
0	2772	25	8993
0	2840	25.5	8968
0	2892	26	8943
0	2961	26.5	8918
0	3010	27	8892
0	3052	27.5	8867
0	3085	28	8842
0	3129	28.5	8817
0	3183	29	8791
0	3218	29.5	8766
0	3277	30	8891
0	3332	30.5	8720
0	3364	31	8248
0	3427	31.5	8305
0	3501	32	8506
0	3565	32.5	8707
0	3651	33	8824
0	3712	33.5	8941
0	3776	34	9057
0	3846	34.5	9174
0	3907	35	9290
0	3976	35.5	9406
0	4040	36	9523
0	4092	36.5	9397
0	4156	37	9268
0	4215	37.5	9301
0	4256	38	9369
0	4262	38.02649822451	9373
0	4265	38.033966484405	9374
0	4272	38.18332294778	9394
0	4277	38.231923492333	9400
0	4282	38.274795247464	9406
0	4287	38.374192220206	9420
0	4292	38.460145685795	9431
0	4297	38.468722617164	9432
0	4301	38.5	9437
0	4348	39	9504
0	4398	39.5	9572
0	4401	39.582572833191	9583
0	4406	39.650358758884	9592
0	4409	39.657656507007	9593
0	4416	39.670387609336	9595
0	4421	39.83007570297	9616
0	4424	39.83735523708	9617
0	4431	39.858408230939	9620
0	4436	39.887746671273	9624
0	4441	39.909804411809	9627
0	4446	39.934664876126	9631
0	4449	39.941933072575	9632
0	4456	39.973436279037	9636
0	4461	39.983678892394	9637
0	4465	40	9639
0	4468	40.077010915903	9650
0	4473	40.102657265494	9653
0	4478	40.141080394364	9658
0	4485	40.273539807476	9668
0	4490	40.330553751322	9670
0	4493	40.337792634466	9671
0	4500	40.382775487981	9673
0	4505	40.5	9679
0	4508	40.528071468164	9680
0	4511	40.535302873123	9681
0	4518	40.63506971936	9686
0	4521	40.642296644819	9686
0	4528	40.670168472393	9687
0	4531	40.677394651809	9688
0	4539	40.692826398254	9688
0	4542	40.70005183178	9689
0	4549	40.710598518643	9689
0	4554	40.72413473818	9690
0	4560	40.771790865093	9692
0	4566	40.863267972886	9697
0	4569	40.870486700327	9697
0	4576	40.901895669929	9699
0	4579	40.90911290882	9699
0	4586	40.938664371002	9701
0	4592	40.966664789669	9702
0	4596	41	9704
0	4599	41.019131897965	9705
0	4603	41.026344674884	9705
0	4610	41.061984949978	9707
0	4615	41.076498620734	9707
0	4618	41.083709911555	9708
0	4623	41.090920459557	9708
0	4630	41.134039454313	9710
0	4635	41.148636757899	9711
0	4640	41.222357869138	9715
0	4643	41.229563221686	9715
0	4650	41.252980059375	9716
0	4653	41.260184670326	9717
0	4660	41.287353315137	9718
0	4663	41.294556443353	9718
0	4671	41.493367239339	9728
0	4672	41.5	9729
0	4704	42	9753
0	4758	42.5	9778
0	4836	43	9803
0	4839	43.021608950262	9804
0	4844	43.076418578312	9807
0	4850	43.207200624933	9813
0	4855	43.243619503585	9815
0	4860	43.339806432118	9820
0	4866	43.3673965382	9821
0	4871	43.401822232602	9823
0	4876	43.442271217359	9825
0	4881	43.470187556822	9826
0	4886	43.487104862757	9827
0	4890	43.5	9828
0	4893	43.573560844641	9832
0	4898	43.634867455253	9835
0	4903	43.701881253352	9838
0	4908	43.728676193119	9839
0	4913	43.758309064016	9841
0	4919	43.780666059146	9842
0	4925	43.954198313173	9851
0	4930	44	9853
0	4933	44.042402682782	9855
0	4938	44.064964622707	9856
0	4944	44.194455929982	9862
0	4949	44.219792090677	9864
0	4952	44.226888603248	9864
0	4960	44.289248041289	9817
0	4965	44.302487154956	9805
0	4970	44.332295749526	9779
0	4975	44.353721129735	9760
0	4980	44.492178353877	9637
0	4984	44.5	9630
0	5006	45	9189
0	5043	45.5	8747
0	5098	46	8558
0	5168	46.5	8715
0	5234	47	8871
0	5288	47.5	9028
0	5332	48	8981
0	5370	48.5	8742
0	5439	49	8502
0	5470	49.5	8263
0	5523	50	8289
0	5583	50.5	8333
0	5645	51	8377
0	5705	51.5	8422
0	5770	52	8466
0	5820	52.5	8510
0	5901	53	8554
0	5976	53.5	8598
0	6032	54	8643
0	6080	54.5	8687
0	6124	55	8731
0	6175	55.5	8628
0	6219	56	8513
0	6273	56.5	8397
0	6312	57	8282
0	6360	57.5	8166
0	6426	58	8134
0	6468	58.5	8119
0	6545	59	8104
0	6608	59.5	8123
0	6665	60	8088
0	6713	60.5	8890
0	6763	61	8857
0	6821	61.5	8824
0	6868	62	8791
0	6932	62.5	8758
0	6960	63	8725
0	7001	63.5	8692
0	7034	64	8659
0	7121	64.5	8617
0	7188	65	8545
0	7218	65.5	8473
0	7265	66	8614
0	7343	66.5	9386
0	7349	66.671676827198	9651
0	7355	66.769832991676	9803
0	7367	66.883281446007	9861
0	7370	66.890380117541	9861
0	7377	66.902109202488	9861
0	7383	66.933911726044	9861
0	7391	66.965957497204	9861
0	7395	66.973056168738	9861
0	7401	67	9861
0	7404	67.004785682936	9861
0	7409	67.035323391679	9861
0	7414	67.070826908962	9861
0	7419	67.266333947445	9861
0	7426	67.437290772579	9860
0	7431	67.464847669995	9860
0	7434	67.471947061476	9860
0	7440	67.5	9860
0	7443	67.567402620151	9860
0	7446	67.574502011632	9860
0	7451	67.581601403113	9860
0	7458	67.608718884093	9860
0	7463	67.624540253652	9860
0	7468	67.655188617086	9860
0	7473	67.68104696344	9860
0	7478	67.694458118104	9860
0	7483	67.719983746901	9860
0	7486	67.727083138382	9860
0	7494	67.778660652491	9859
0	7497	67.785760764064	9859
0	7504	67.806405721885	9859
0	7510	67.903565749701	9859
0	7516	67.966113182734	9859
0	7521	67.991626752622	9859
0	7525	68	9859
0	7528	68.042596512025	9859
0	7533	68.066611102715	9859
0	7538	68.092082528226	9859
0	7541	68.099182639799	9859
0	7548	68.121454042569	9859
0	7553	68.144934444175	9859
0	7558	68.192598740736	9859
0	7565	68.246776150151	9859
0	7568	68.253876261724	9859
0	7575	68.299496198336	9858
0	7580	68.385909166984	9858
0	7584	68.5	9858
0	7587	68.508574459059	9858
0	7593	68.561556706219	9858
0	7598	68.617262443042	9858
0	7603	68.682056333867	9858
0	7608	68.701640560861	9858
0	7613	68.740133657652	9858
0	7618	68.759139609219	9857
0	7621	68.766241161415	9857
0	7628	68.854575827979	9857
0	7633	68.880538514223	9857
0	7638	68.955300070129	9857
0	7643	68.981291167373	9857
0	7648	68.997796502076	9857
0	7649	69	9857
0	7655	69.017156375438	9857
0	7660	69.079731823286	9857
0	7663	69.086833375482	9857
0	7670	69.122480809133	9857
0	7676	69.189309229999	9857
0	7681	69.214822187517	9857
0	7684	69.221923739713	9857
0	7691	69.258479486716	9856
0	7697	69.305088823744	9856
0	7700	69.312191096471	9856
0	7707	69.370280907047	9856
0	7712	69.425063400559	9856
0	7717	69.475427034978	9856
0	7720	69.482529307705	9856
0	7726	69.5	9856
0	7734	69.636814112625	9856
0	7742	69.746854956343	9855
0	7745	69.753957949747	9855
0	7753	69.809610451277	9855
0	7761	69.910543639273	9855
0	7768	70	9855
0	7771	70.021508415362	9855
0	7776	70.028611408766	9855
0	7780	70.03571440217	9855
0	7787	70.061327022185	9855
0	7792	70.199732025069	9854
0	7798	70.225628197323	9854
0	7805	70.384499728396	9854
0	7810	70.421635915881	9854
0	7814	70.5	9854
0	7817	70.501196029048	9854
0	7822	70.523910407901	9854
0	7827	70.765789780354	9853
0	7832	70.776360839103	9853
0	7837	70.798303547955	9853
0	7840	70.805407983152	9853
0	7847	70.893574708557	9853
0	7853	70.93008080957	9853
0	7858	71	9853
0	7861	71.003711452697	9853
0	7866	71.096215913691	9853
0	7871	71.159958486318	9852
0	7876	71.183316147641	9852
0	7881	71.233492367036	9852
0	7886	71.246099350858	9852
0	7891	71.264462759233	9852
0	7894	71.271567915546	9852
0	7901	71.307192314275	9852
0	7904	71.314297470588	9852
0	7911	71.327700751283	9852
0	7916	71.340213415303	9852
0	7923	71.347318571616	9852
0	7926	71.354423727929	9852
0	7929	71.361528884242	9852
0	7934	71.368634040555	9852
0	7941	71.375739196868	9852
0	7944	71.382844353181	9852
0	7951	71.409844136315	9852
0	7954	71.416949292628	9852
0	7961	71.425830669452	9852
0	7965	71.5	9852
0	7969	71.522823757432	9852
0	7975	71.545885046312	9852
0	7980	71.554729081618	9852
0	7983	71.561834237931	9852
0	7991	71.598576225306	9852
0	7997	71.719643057628	9851
0	8002	71.79388376133	9851
0	8008	71.902004008466	9851
0	8013	71.932481967508	9851
0	8017	72	9851
0	8020	72.046267966662	9851
0	8025	72.054592476358	9851
0	8030	72.074780121714	9851
0	8035	72.085912064316	9851
0	8040	72.14831297588	9850
0	8045	72.176681381863	9850
0	8050	72.204519922435	9850
0	8055	72.242083541119	9850
0	8060	72.26003832526	9850
0	8065	72.281534435397	9850
0	8069	72.288641034382	9850
0	8076	72.361228857971	9850
0	8081	72.388624479856	9850
0	8087	72.458143946217	9850
0	8092	72.482721214155	9850
0	8096	72.5	9850
0	8100	72.613731292999	9849
0	8105	72.622472393001	9849
0	8108	72.629579713541	9849
0	8115	72.645496481726	9849
0	8121	72.758516504095	9849
0	8124	72.765623824635	9849
0	8131	72.788467596878	9849
0	8136	72.890904496557	9849
0	8141	72.996244102851	9849
0	8142	73	9849
0	8149	73.051313906766	9849
0	8155	73.10999979316	9831
0	8160	73.120703902893	9822
0	8165	73.339203890464	9636
0	8172	73.464311789591	9530
0	8177	73.5	9499
0	8271	74	9165
0	8336	74.5	8925
0	8394	75	8685
0	8436	75.5	8445
0	8490	76	8420
0	8546	76.5	8584
0	8610	77	8748
0	8635	77.5	8779
0	8676	78	8765
0	8740	78.5	8752
0	8788	79	8739
0	8838	79.5	8726
0	8913	80	8713
0	8951	80.5	8505
0	9020	81	8210
0	9057	81.5	8442
0	9114	82	8674
0	9201	82.5	8906
0	9305	83	8840
0	9365	83.5	8867
0	9431	84	9158
0	9494	84.5	9449
0	9550	85	9658
0	9553	85.063433482418	9636
0	9558	85.243866233264	9574
0	9563	85.310699285202	9551
0	9568	85.413603844085	9516
0	9571	85.420959876031	9513
0	9576	85.42831822776	9511
0	9584	85.481615333857	9492
0	9588	85.5	9486
0	9633	86	9314
0	9689	86.5	9142
0	9752	87	8971
0	9819	87.5	8799
0	9873	88	8627
0	9938	88.5	8709
0	9970	89	8916
0	10005	89.5	9122
0	10067	90	9329
0	10135	90.5	9536
0	10189	91	9742
0	10251	91.5	8576
0	10310	92	9219
0	10340	92.5	9370
0	10400	93	9386
0	10449	93.5	9402
0	10512	94	9418
0	10547	94.5	9434
0	10604	95	9450
0	10657	95.5	9466
0	10692	96	9482
0	10760	96.5	9498
0	10822	97	9514
0	10826	97.003125636729	9515
0	10833	97.0220167435	9515
0	10839	97.189764962468	9521
0	10845	97.22271038981	9522
0	10850	97.256495505598	9523
0	10855	97.321930263585	9525
0	10860	97.32927934495	9525
0	10863	97.336628426315	9525
0	10870	97.345703035914	9526
0	10875	97.451372950128	9529
0	10879	97.5	9530
0	10922	98	9547
0	10943	98.5	9563
0	11010	99	9230
0	11070	99.5	8641
0	11124	100	8751
0	11216	100.5	8872
0	11285	101	8993
0	11362	101.5	9114
0	11422	102	9235
0	11462	102.5	9114
0	11515	103	8977
0	11556	103.5	8840
0	11616	104	8702
0	11660	104.5	8565
0	11733	105	8428
0	11797	105.5	8291
0	11877	106	8154
0	11931	106.5	8063
0	11990	107	8065
0	12044	107.5	8067
0	12097	108	8068
0	12162	108.5	8070
0	12180	109	8072
0	12218	109.5	8074
0	12275	110	8076
0	12324	110.5	8077
0	12381	111	8079
0	12406	111.5	8081
0	12457	112	8083
0	12532	112.5	8084
0	12575	113	8086
0	12614	113.5	8341
0	12639	114	8984
0	12704	114.5	8813
0	12754	115	9703
0	12757	115.032077012346	9653
0	12762	115.045588117322	9632
0	12767	115.110788591972	9530
0	12772	115.140533900355	9483
0	12777	115.160531752376	9452
0	12783	115.186335988661	9412
0	12788	115.264789531025	9290
0	12791	115.272324514879	9278
0	12796	115.279869244347	9266
0	12805	115.417441951661	9045
0	12810	115.442347206746	8996
0	12814	115.5	8883
0	12907	116	8225
0	12960	116.5	8240
0	13000	117	8254
0	13064	117.5	8268
0	13126	118	8283
0	13190	118.5	8297
0	13234	119	8311
0	13277	119.5	8326
0	13319	120	8340
0	13361	120.5	8354
0	13412	121	8369
0	13482	121.5	8383
0	13535	122	8318
0	13593	122.5	9272
0	13652	123	8294
0	13691	123.5	8307
0	13715	124	8321
0	13745	124.5	8334
0	13841	125	8348
0	13931	125.5	8361
0	13980	126	8375
0	14025	126.5	8388
0	14056	127	8402
0	14106	127.5	8416
0	14151	128	8429
0	14178	128.5	8443
0	14200	129	8978
0	14250	129.5	9429
0	14312	130	9513
0	14315	130.007784645856	9515
0	14320	130.056170897762	9523
0	14326	130.13505995597	9536
0	14331	130.143444783401	9537
0	14337	130.161325063828	9537
0	14342	130.1903917153	9525
0	14347	130.271063660606	9492
0	14352	130.311260933589	9476
0	14358	130.351058297037	9459
0	14363	130.363988460524	9454
0	14368	130.396047155321	9441
0	14373	130.408931096539	9435
0	14378	130.465146976319	9412
0	14383	130.480673758703	9406
0	14386	130.488115816964	9403
0	14392	130.5	9398
0	14395	130.59543248897	9359
0	14398	130.602911920533	9356
0	14405	130.642407024101	9340
0	14410	130.659685110937	9332
0	14413	130.667186182519	9329
0	14420	130.870106076452	9246
0	14425	130.881577452529	9241
0	14428	130.889152390306	9238
0	14434	131	9193
0	14504	131.5	8987
0	14549	132	8782
0	14588	132.5	8728
0	14626	133	8797
0	14678	133.5	8867
0	14751	134	8937
0	14786	134.5	9006
0	14838	135	9076
0	14869	135.5	9145
0	14924	136	9215
0	14994	136.5	9189
0	15068	137	9138
0	15122	137.5	9063
0	15191	138	8724
0	15261	138.5	8841
0	15303	139	8978
0	15338	139.5	9158
0	15382	140	9420
0	15385	140.091764762956	9468
0	15392	140.172793695487	9624
0	15395	140.180067178446	9650
0	15404	140.242700187014	9719
0	15409	140.250673431639	9718
0	15414	140.351278122998	9707
0	15420	140.421866368089	9699
0	15425	140.5	9691
0	15428	140.553067766526	9685
0	15434	140.560295438183	9684
0	15437	140.567523856192	9683
0	15444	140.594426204084	9680
0	15449	140.62716306557	9677
0	15454	140.639577209737	9675
0	15460	140.764114573208	9662
0	15465	140.780145206076	9660
0	15470	140.789457768671	9659
0	15475	140.849964100878	9652
0	15480	140.857216483804	9651
0	15483	140.864469618194	9651
0	15490	140.881616330957	9649
0	15496	140.984920657394	9637
0	15500	141	9636
0	15503	141.013136664848	9634
0	15508	141.042529103836	9631
0	15513	141.080407535318	9627
0	15518	141.115304798215	9623
0	15523	141.14710982042	9619
0	15528	141.185941473148	9615
0	15533	141.245806863148	9609
0	15538	141.297665457289	9603
0	15543	141.336690376757	9599
0	15548	141.357835432548	9596
0	15553	141.39691691893	9592
0	15556	141.404214667053	9591
0	15564	141.457259179439	9585
0	15569	141.476423249707	9583
0	15573	141.5	9581
0	15624	142	9526
0	15628	142.129003647676	9511
0	15633	142.180397412664	9506
0	15638	142.228793179756	9500
0	15643	142.300961548523	9493
0	15648	142.349012522521	9487
0	15653	142.36774799404	9485
0	15657	142.5	9471
0	15706	143	9416
0	15745	143.5	9179
0	15805	144	8706
0	15871	144.5	8651
0	15906	145	8913
0	15969	145.5	8922
0	16004	146	8935
0	16062	146.5	9020
0	16107	147	9106
0	16160	147.5	9191
0	16163	147.501706072495	9191
0	16170	147.562643737299	9202
0	16175	147.574946950146	9204
0	16180	147.591712582292	9207
0	16185	147.610180267683	9210
0	16188	147.617780701994	9211
0	16195	147.651029174359	9217
0	16201	147.770272356521	9237
0	16206	147.782809724999	9239
0	16212	147.844540056306	9250
0	16217	147.910007186413	9261
0	16223	147.957768696365	9269
0	16226	147.965320751603	9270
0	16232	148	9276
0	16278	148.5	9362
0	16329	149	9447
0	16390	149.5	9491
0	16433	150	9535
0	16436	150.146618632514	9547
0	16441	150.157554487424	9548
0	16446	150.23453959458	9555
0	16451	150.290204732595	9560
0	16456	150.359314475862	9566
0	16461	150.451881446644	9574
0	16466	150.498658196699	9578
0	16469	150.5	9578
0	16470	150.5	9578
0	16478	150.522574578821	9580
0	16483	150.57404802306	9585
0	16488	150.617978481559	9588
0	16493	150.647226587184	9591
0	16498	150.655782697333	9592
0	16504	150.769964857471	9602
0	16507	150.777255005357	9602
0	16514	150.791281184486	9603
0	16520	150.816222128937	9606
0	16526	150.848362403176	9616
0	16531	150.856731874096	9619
0	16537	150.892888189778	9635
0	16542	150.901175711566	9638
0	16547	150.908742415945	9641
0	16552	150.941422413835	9655
0	16556	151	9680
0	16559	151.005966611817	9682
0	16565	151.013553342304	9685
0	16573	151.102291484179	9723
0	16578	151.113441105139	9727
0	16581	151.120637568591	9730
0	16590	151.159223444771	9747
0	16597	151.176445860072	9754
0	16602	151.20698394383	9767
0	16605	151.214150934718	9770
0	16612	151.272236828618	9794
0	16630	151.429037263526	9860
0	16637	151.460129783026	9873
0	16641	151.5	9890
0	16645	151.515135777713	9890
0	16650	151.533494165258	9874
0	16656	151.699985123835	9729
0	16661	151.750497036805	9684
0	16666	151.788407385324	9651
0	16671	151.821357019979	9622
0	16676	151.90234873868	9552
0	16681	152	9466
0	16685	152.092245556859	9386
0	16690	152.115698879333	9365
0	16695	152.129934359748	9353
0	16701	152.151768143476	9334
0	16707	152.207973552158	9284
0	16712	152.231735844801	9264
0	16718	152.450321656538	9072
0	16722	152.5	9029
0	16758	153	8889
0	16830	153.5	9455
0	16835	153.580593336006	9532
0	16840	153.590940682669	9533
0	16845	153.603480812617	9534
0	16850	153.62826570792	9535
0	16855	153.662321228854	9537
0	16862	153.839968411234	9548
0	16868	153.972659826756	9556
0	16871	153.979985067442	9557
0	16877	154	9558
0	16913	154.5	9589
0	16966	155	9619
0	16970	155.026160379325	9621
0	16973	155.033436130286	9622
0	16981	155.100121544188	9626
0	16986	155.111072886412	9626
0	16991	155.13771674621	9628
0	16996	155.154640367821	9629
0	17002	155.21654413957	9633
0	17007	155.24614020724	9635
0	17013	155.324141534891	9639
0	17016	155.331403699016	9640
0	17023	155.349831406497	9641
0	17028	155.448038770814	9647
0	17033	155.5	9650
0	17037	155.641848005103	9659
0	17043	155.704720587987	9663
0	17048	155.757162646112	9666
0	17053	155.830863586933	9670
0	17058	155.937294361739	9677
0	17061	155.94452800853	9677
0	17068	155.982661015404	9680
0	17072	156	9681
0	17075	156.017464811614	9682
0	17080	156.085127738568	9686
0	17083	156.092354664027	9687
0	17090	156.165106023765	9691
0	17095	156.181119080857	9692
0	17101	156.300552587285	9699
0	17106	156.427182438838	9707
0	17111	156.435328963306	9708
0	17115	156.5	9712
0	17118	156.509387292555	9712
0	17123	156.550241633591	9715
0	17128	156.624174577786	9719
0	17133	156.652138489845	9721
0	17140	156.722074300949	9725
0	17146	156.85037516306	9733
0	17152	156.876304892878	9735
0	17155	156.883495442441	9735
0	17160	156.890685992004	9736
0	17166	157	9742
0	17169	157.088894552683	9748
0	17175	157.22248796413	9756
0	17181	157.326640896218	9762
0	17186	157.385913807446	9766
0	17189	157.393081532205	9766
0	17197	157.465056847999	9771
0	17203	157.498818908755	9773
0	17204	157.5	9773
0	17210	157.577237195461	9778
0	17216	157.640451564193	9782
0	17222	157.727128191368	9787
0	17228	157.794127659375	9791
0	17233	157.818218661637	9793
0	17238	157.936705209682	9800
0	17242	158	9804
0	17246	158.073205582601	9808
0	17253	158.153643848313	9813
0	17259	158.185348922485	9815
0	17264	158.203969571203	9816
0	17269	158.216134305276	9817
0	17277	158.250635387382	9820
0	17282	158.286777049967	9828
0	17290	158.347274207095	9840
0	17295	158.398915005414	9850
0	17300	158.406365351319	9852
0	17305	158.425605822245	9855
0	17310	158.436388828255	9858
0	17313	158.443489660067	9859
0	17321	158.474833080753	9865
0	17326	158.5	9870
0	17329	158.505352949189	9871
0	17334	158.523061552956	9875
0	17339	158.556513486759	9882
0	17345	158.655741605322	9901
0	17350	158.729531934119	9916
0	17356	158.77365990426	9925
0	17359	158.780712800985	9926
0	17366	158.798855443937	9930
0	17371	158.854353785473	9941
0	17376	158.948822300308	9960
0	17381	158.95683013647	9962
0	17386	159	9868
0	17389	159.038536764281	9760
0	17394	159.095682975542	9601
0	17399	159.416180070152	8706
0	17404	159.437106310747	8647
0	17408	159.5	8472
0	17459	160	8499
0	17502	160.5	8916
0	17580	161	9333
0	17659	161.5	9538
0	17707	162	9345
0	17751	162.5	9151
0	17795	163	8957
0	17854	163.5	8763
0	17915	164	8569
0	17960	164.5	8376
0	18011	165	8182
0	18071	165.5	8269
0	18152	166	8712
0	18212	166.5	9156
0	18239	167	9599
0	18283	167.5	9883
0	18286	167.520387713748	9880
0	18289	167.527472733991	9880
0	18296	167.534836267462	9879
0	18301	167.541922004885	9878
0	18304	167.549008459633	9877
0	18309	167.556095631851	9876
0	18316	167.598396742091	9871
0	18321	167.629400642852	9868
0	18326	167.66833687815	9863
0	18331	167.719192580138	9857
0	18336	167.745277933503	9854
0	18339	167.752381647731	9853
0	18346	167.904127582728	9835
0	18351	167.960018887968	9829
0	18354	167.967140670448	9828
0	18360	168	9824
0	18363	168.045349500504	9819
0	18369	168.196250701747	9801
0	18374	168.206498261482	9800
0	18377	168.213641118625	9799
0	18384	168.235096946028	9797
0	18389	168.273808778015	9792
0	18394	168.31050567295	9788
0	18399	168.456108387943	9771
0	18404	168.486164782874	9767
0	18408	168.5	9765
0	18411	168.517136753762	9763
0	18416	168.597566149968	9754
0	18419	168.604742692925	9753
0	18426	168.765007833572	9734
0	18433	168.938195639259	9714
0	18438	169	9707
0	18441	169.018406508218	9705
0	18446	169.048443048914	9701
0	18449	169.055658799868	9700
0	18456	169.137038534775	9691
0	18461	169.218759803099	9681
0	18466	169.27597870594	9674
0	18469	169.283214595954	9674
0	18476	169.305450608607	9671
0	18481	169.318908044594	9669
0	18485	169.5	9648
0	18488	169.52092433683	9646
0	18493	169.529232786293	9645
0	18498	169.582754601364	9638
0	18503	169.59375696277	9637
0	18508	169.664588629696	9629
0	18514	169.702160838045	9624
0	18517	169.709434321004	9624
0	18524	169.758946023575	9618
0	18529	169.805920446583	9612
0	18534	169.837694678605	9609
0	18539	169.982888776572	9591
0	18545	170	9589
0	18582	170.5	9531
0	18634	171	9472
0	18696	171.5	9605
0	18746	172	9698
0	18750	172.142601937972	9689
0	18755	172.272804359693	9681
0	18760	172.350233637933	9677
0	18767	172.435442288395	9672
0	18772	172.46924500042	9670
0	18776	172.5	9668
0	18870	173	9638
0	18925	173.5	9608
0	18984	174	9579
0	19052	174.5	9549
0	19122	175	9519
0	19171	175.5	9490
0	19242	176	9765
0	19280	176.5	9138
0	19345	177	8541
0	19444	177.5	8815
0	19496	178	9089
0	19573	178.5	9363
0	19646	179	9371
0	19708	179.5	8866
0	19754	180	8459
0	19815	180.5	8471
0	19893	181	8484
0	19920	181.5	8496
0	19964	182	8509
0	20018	182.5	8521
0	20064	183	8534
0	20104	183.5	8546
0	20155	184	8559
0	20239	184.5	8571
0	20268	185	8584
0	20294	185.5	8596
0	20317	186	8609
0	20358	186.5	8878
0	20414	187	9218
0	20470	187.5	9587
0	20529	188	9895
0	20533	188.062970515499	9894
0	20539	188.098211126676	9894
0	20544	188.11716191322	9893
0	20549	188.170827442698	9892
0	20554	188.216589675509	9892
0	20557	188.223666100903	9892
0	20564	188.247885037274	9891
0	20569	188.268767384722	9891
0	20574	188.388663164934	9889
0	20580	188.413347644545	9889
0	20585	188.423721053716	9888
0	20590	188.45892873171	9888
0	20594	188.5	9887
0	20597	188.518750197476	9887
0	20602	188.613157676171	9885
0	20607	188.789115055247	9883
0	20613	188.87203763324	9881
0	20618	188.88167292925	9881
0	20621	188.888757232458	9881
0	20626	188.895841535666	9881
0	20631	188.902925838874	9881
0	20639	188.961050665666	9880
0	20644	188.984724024632	9879
0	20649	189	9879
0	20652	189.060238489802	9878
0	20657	189.096112269546	9878
0	20662	189.129833355371	9877
0	20667	189.176529261085	9876
0	20672	189.22356950782	9876
0	20678	189.231366995506	9876
0	20683	189.243323173562	9875
0	20688	189.302907411887	9874
0	20693	189.335279235182	9874
0	20698	189.445998425839	9872
0	20701	189.453089187589	9872
0	20708	189.464603606169	9872
0	20714	189.483991393172	9871
0	20718	189.5	9871
0	20721	189.522805389098	9871
0	20726	189.539563622771	9871
0	20731	189.768660070925	9867
0	20736	189.798065688841	9866
0	20742	189.849724991665	9866
0	20749	189.982778334991	9863
0	20752	189.98987556707	9863
0	20759	189.997672883399	9863
0	20760	190	9863
0	20767	190.071891405355	9651
0	20772	190.097548507877	9457
0	20777	190.132999498876	9189
0	20782	190.180802717902	8828
0	20785	190.188732033715	8768
0	20794	190.333199782562	8711
0	20799	190.3693958725	8710
0	20802	190.37743261188	8710
0	20810	190.446914017496	8709
0	20814	190.5	8708
0	20907	191	8699
0	20935	191.5	8691
0	21001	192	8682
0	21041	192.5	8673
0	21099	193	8665
0	21176	193.5	8656
0	21244	194	8648
0	21284	194.5	8639
0	21343	195	8631
0	21399	195.5	8643
0	21456	196	8667
0	21531	196.5	8691
0	21575	197	8714
0	21628	197.5	8738
0	21691	198	8762
0	21744	198.5	8786
0	21822	199	8810
0	21875	199.5	8833
0	21901	200	8857
0	21958	200.5	8881
0	22018	201	8905
0	22053	201.5	8929
0	22117	202	8952
0	22158	202.5	8976
0	22204	203	9025
0	22277	203.5	9140
0	22330	204	9251
0	22404	204.5	9356
0	22460	205	9462
0	22556	205.5	9567
0	22615	206	9560
0	22704	206.5	9190
0	22744	207	9209
0	22805	207.5	8947
0	22867	208	8478
0	22923	208.5	8033
0	22976	209	8502
0	23013	209.5	8464
0	23058	210	8426
0	23130	210.5	8388
0	23194	211	8350
0	23286	211.5	8312
0	23340	212	8274
0	23390	212.5	8047
0	23471	213	9368
0	23519	213.5	9345
0	23563	214	9323
0	23624	214.5	9301
0	23689	215	9279
0	23771	215.5	9256
0	23806	216	9234
0	23850	216.5	9212
0	23880	217	9190
0	23947	217.5	9167
0	24020	218	8752
0	24081	218.5	8043
0	24111	219	8142
0	24167	219.5	8241
0	24234	220	8340
0	24278	220.5	8439
0	24330	221	8536
0	24381	221.5	8629
0	24413	222	8722
0	24494	222.5	8815
0	24545	223	8894
0	24572	223.5	8853
0	24636	224	8811
0	24694	224.5	8770
0	24739	225	8984
0	24788	225.5	9363
0	24872	226	9743
0	24875	226.097596285541	9817
0	24881	226.265113821901	8899
0	24886	226.275395131339	8828
0	24893	226.438934199271	8374
0	24898	226.460363745051	8383
0	24903	226.472630148942	8388
0	24908	226.496950217306	8398
0	24911	226.5	8399
0	24946	227	8608
0	24979	227.5	8816
0	25033	228	9024
0	25085	228.5	9233
0	25145	229	9374
0	25188	229.5	9385
0	25222	230	9397
0	25272	230.5	9408
0	25318	231	9419
0	25371	231.5	9634
0	25374	231.512191103817	9641
0	25379	231.538257844443	9656
0	25385	231.571304072345	9660
0	25390	231.736272975712	9533
0	25395	231.815492272342	9473
0	25400	231.832162085474	9460
0	25406	231.895111299189	9411
0	25411	231.910375013623	9400
0	25416	231.920079668061	9392
0	25421	231.940365979333	9377
0	25425	232	9331
0	25483	232.5	9169
0	25517	233	9081
0	25567	233.5	8993
0	25613	234	8906
0	25663	234.5	8818
0	25725	235	8730
0	25793	235.5	8642
0	25852	236	8555
0	25884	236.5	8467
0	25922	237	8379
0	25980	237.5	8292
0	26022	238	8204
0	26090	238.5	8116
0	26144	239	8370
0	26196	239.5	9384
0	26250	240	9829
0	26253	240.035561409911	9825
0	26258	240.119146894565	9817
0	26263	240.210224965522	9807
0	26268	240.240551557748	9804
0	26275	240.377600452056	9791
0	26280	240.397420468955	9789
0	26286	240.405077239771	9788
0	26291	240.412520036303	9787
0	26296	240.427532999007	9785
0	26301	240.476624910829	9781
0	26305	240.5	9778
0	26370	241	9728
0	26373	241.006726518887	9727
0	26378	241.076628346294	9720
0	26383	241.096226643455	9718
0	26388	241.14295899144	9713
0	26393	241.272221525623	9700
0	26396	241.279438020468	9700
0	26403	241.46166310613	9681
0	26408	241.488826793663	9679
0	26412	241.5	9677
0	26447	242	9627
0	26498	242.5	9577
0	26520	243	9526
0	26598	243.5	9476
0	26662	244	9306
0	26735	244.5	9092
0	26794	245	8877
0	26861	245.5	8663
0	26907	246	8449
0	26959	246.5	8235
0	27067	247	8395
0	27122	247.5	8737
0	27173	248	8918
0	27224	248.5	9099
0	27267	249	9281
0	27310	249.5	9462
0	27350	250	9585
0	27390	250.5	9626
0	27450	251	9666
0	27520	251.5	9707
0	27573	252	9748
0	27579	252.107081605126	9757
0	27582	252.1142559415	9758
0	27590	252.212509393083	9766
0	27595	252.266990751729	9770
0	27603	252.315881495274	9774
0	27608	252.326270361478	9775
0	27611	252.333431486798	9775
0	27619	252.390165927478	9780
0	27624	252.413904795528	9782
0	27633	252.456739045607	9786
0	27639	252.5	9789
0	27643	252.649418582669	9801
0	27648	252.681164145262	9804
0	27653	252.738344160628	9809
0	27660	252.81129585394	9815
0	27665	252.820072358997	9815
0	27671	253	9830
0	27675	253.018412751299	9831
0	27682	253.04927734365	9834
0	27685	253.056395505131	9835
0	27694	253.226326315489	9847
0	27700	253.266309365701	9849
0	27705	253.304563890193	9852
0	27710	253.323351163975	9853
0	27715	253.330455599172	9854
0	27718	253.3375593134	9854
0	27726	253.374364191145	9830
0	27729	253.381485249131	9819
0	27736	253.391672396101	9802
0	27741	253.434765128342	9731
0	27744	253.441958633634	9719
0	27749	253.449161020711	9707
0	27756	253.470081102867	9672
0	27759	253.477318489137	9660
0	27765	253.5	9623
0	27768	253.513208698819	9601
0	27773	253.522698884788	9585
0	27776	253.530001962514	9573
0	27783	253.554355042377	9533
0	27788	253.595295870174	9465
0	27793	253.630030054085	9408
0	27798	253.665820468958	9348
0	27804	253.789232691411	9144
0	27812	253.86820441501	9101
0	27817	253.895412263203	9095
0	27822	253.922955581253	9088
0	27825	253.930658046042	9086
0	27832	253.968967885408	9077
0	27837	253.982095634696	9073
0	27841	254	9069
0	27881	254.5	8946
0	27927	255	8823
0	27993	255.5	8735
0	28050	256	8652
0	28123	256.5	8570
0	28164	257	8541
0	28230	257.5	8524
0	28269	258	8429
0	28341	258.5	8919
0	28384	259	9409
0	28414	259.5	9145
0	28472	260	8734
0	28545	260.5	8691
0	28583	261	8648
0	28633	261.5	8604
0	28683	262	8561
0	28736	262.5	8518
0	28794	263	8475
0	28844	263.5	8432
0	28897	264	8389
0	28947	264.5	8366
0	29010	265	8437
0	29090	265.5	8507
0	29139	266	8578
0	29186	266.5	8648
0	29229	267	8752
0	29296	267.5	9134
0	29352	268	9180
0	29386	268.5	9119
0	29443	269	9058
0	29484	269.5	8998
0	29553	270	8937
0	29585	270.5	8946
0	29658	271	8999
0	29704	271.5	9052
0	29739	272	9086
0	29792	272.5	8889
0	29864	273	8692
0	29916	273.5	8496
0	29957	274	8299
0	30008	274.5	9960
0	30011	274.509780690888	9957
0	30017	274.662593879156	9919
0	30022	274.696613602437	9911
0	30027	274.713621959522	9907
0	30032	274.749397110549	9898
0	30037	274.766617600596	9893
0	30042	274.792057950622	9887
0	30048	274.917112440235	9431
0	30051	274.924534770847	9391
0	30057	275	8986
0	30127	275.5	8839
0	30197	276	8922
0	30248	276.5	9004
0	30303	277	9087
0	30340	277.5	9170
0	30423	278	9252
0	30462	278.5	9335
0	30523	279	9417
0	30579	279.5	9500
0	30628	280	9583
0	30693	280.5	9665
0	30753	281	8168
0	30771	281.5	8220
0	30805	282	8273
0	30854	282.5	8325
0	30924	283	8378
0	30965	283.5	8430
0	31059	284	8483
0	31129	284.5	8535
0	31180	285	8587
0	31246	285.5	8640
0	31295	286	8914
0	31369	286.5	9203
0	31404	287	9492
0	31438	287.5	9622
0	31476	288	9238
0	31540	288.5	8853
0	31574	289	8763
0	31627	289.5	8727
0	31673	290	8690
0	31736	290.5	8653
0	31756	291	8616
0	31826	291.5	8579
0	31877	292	8542
0	31920	292.5	8506
0	31976	293	8469
0	32005	293.5	8432
0	32079	294	8395
0	32151	294.5	8374
0	32248	295	8367
0	32308	295.5	8359
0	32347	296	8624
0	32387	296.5	8816
0	32426	297	8814
0	32471	297.5	8813
0	32516	298	8914
0	32594	298.5	9034
0	32632	299	9153
0	32681	299.5	9272
0	32720	300	9391
0	32798	300.5	9510
0	32840	301	9630
0	32843	301.003146044861	9630
0	32850	301.136327899617	9662
0	32855	301.223959558709	9683
0	32860	301.242549552968	9687
0	32865	301.296532835907	9700
0	32870	301.415899929142	9729
0	32875	301.487159237044	9746
0	32879	301.5	9749
0	32882	301.555897211425	9762
0	32887	301.589851709132	9770
0	32892	301.612667716414	9776
0	32897	301.624130683029	9778
0	32902	301.654810276669	9786
0	32908	301.737847852912	9806
0	32913	301.840946463103	9830
0	32918	301.882892194499	9840
0	32923	301.892843441543	9842
0	32928	301.900355826581	9844
0	32933	301.908733464388	9846
0	32938	301.99044408578	9866
0	32942	302	9868
0	32945	302.032338700336	9876
0	32950	302.191545398119	9914
0	32955	302.391525084481	9961
0	32961	302.412770010862	9952
0	32966	302.447414778853	9920
0	32971	302.464787249724	9904
0	32975	302.5	9871
0	32978	302.512539570356	9859
0	32981	302.519639681929	9852
0	32988	302.565955419527	9809
0	32993	302.620560778379	9758
0	32998	302.679115745644	9704
0	33003	302.838778121566	9555
0	33008	302.894790745719	9502
0	33011	302.902157615852	9495
0	33018	303	9445
0	33021	303.006184421954	9443
0	33026	303.039379341779	9435
0	33031	303.067748803879	9428
0	33034	303.075173496285	9427
0	33041	303.219795429522	9392
0	33044	303.22724858114	9390
0	33052	303.296836471485	9374
0	33058	303.351443294065	9361
0	33063	303.367469004828	9357
0	33069	303.468598320384	9333
0	33074	303.485676513801	9329
0	33078	303.5	9325
0	33134	304	9206
0	33202	304.5	9086
0	33261	305	8967
0	33314	305.5	8894
0	33396	306	9099
0	33460	306.5	9303
0	33464	306.581947198622	9337
0	33469	306.598881434225	9344
0	33477	306.698044063814	9384
0	33484	306.803924727698	9428
0	33487	306.811349420104	9431
0	33494	306.82118000674	9435
0	33500	306.877150093859	9458
0	33509	307	9508
0	33513	307.019246667828	9516
0	33518	307.027557173845	9519
0	33523	307.067054699855	9535
0	33528	307.148476290045	9569
0	33533	307.168025836228	9577
0	33538	307.261246490307	9615
0	33545	307.345224761983	9573
0	33552	307.444799101264	9522
0	33557	307.5	9493
0	33601	308	9235
0	33693	308.5	8978
0	33760	309	8720
0	33823	309.5	8462
0	33872	310	8450
0	33936	310.5	9068
0	34013	311	9858
0	34020	311.052039160904	9850
0	34025	311.098996124857	9843
0	34032	311.142117479152	9837
0	34037	311.151076479647	9835
0	34043	311.171154489227	9832
0	34049	311.202109231954	9828
0	34057	311.291740888736	9814
0	34060	311.298873556354	9813
0	34067	311.310561471795	9811
0	34077	311.5	9782
0	34081	311.566105792201	9772
0	34086	311.581198063512	9770
0	34089	311.588362853686	9769
0	34097	311.625186572155	9763
0	34102	311.641311375682	9761
0	34109	311.673836419538	9756
0	34116	311.729904824183	9747
0	34122	311.759431886502	9743
0	34128	311.774210578564	9740
0	34133	311.782678019034	9739
0	34142	311.87159707691	9726
0	34147	311.906721227675	9720
0	34152	311.923483165168	9718
0	34157	311.938472174153	9716
0	34162	311.982534052099	9709
0	34166	312	9706
0	34169	312.007427867002	9705
0	34174	312.091108277216	9692
0	34179	312.157240547841	9682
0	34184	312.24141944593	9669
0	34190	312.379541723563	9648
0	34196	312.491869476633	9631
0	34200	312.5	9630
0	34203	312.566200181285	9620
0	34209	312.743316703665	9593
0	34214	312.769329693766	9589
0	34219	312.835943848608	9579
0	34224	312.880895024082	9572
0	34231	312.925403534217	9565
0	34236	312.994022675638	9555
0	34237	313	9554
0	34243	313.075453540247	9542
0	34248	313.102194179553	9538
0	34253	313.115499651427	9536
0	34258	313.13783339777	9533
0	34263	313.162709969761	9529
0	34267	313.170055966193	9528
0	34275	313.290610708639	9199
0	34281	313.357250435063	8895
0	34289	313.5	8536
0	34335	314	8798
0	34427	314.5	9047
0	34461	315	9114
0	34501	315.5	9181
0	34581	316	9248
0	34645	316.5	9207
0	34688	317	8975
0	34749	317.5	8279
0	34787	318	8444
0	34839	318.5	8609
0	34918	319	8775
0	34982	319.5	8940
0	35028	320	9105
0	35091	320.5	9270
0	35131	321	9435
0	35193	321.5	9600
0	35237	322	9766
0	35284	322.5	9931
0	35290	322.509851258524	9934
0	35295	322.558081607228	9950
0	35301	322.673450875002	9930
0	35306	322.687408817962	9924
0	35311	322.730053060523	9905
0	35316	322.739831442787	9900
0	35321	322.764824503663	9889
0	35326	322.791456806173	9877
0	35331	322.864801167057	9844
0	35337	322.925972613275	9817
0	35341	323	9784
0	35413	323.5	9560
0	35477	324	9335
0	35532	324.5	9001
0	35635	325	8694
0	35694	325.5	9377
0	35764	326	9366
0	35798	326.5	9241
0	35859	327	9116
0	35937	327.5	8991
0	36006	328	8678
0	36090	328.5	8311
0	36149	329	8374
0	36218	329.5	8437
0	36239	330	8499
0	36303	330.5	8562
0	36341	331	8624
0	36387	331.5	8687
0	36436	332	8750
0	36495	332.5	8812
0	36547	333	8875
0	36593	333.5	8931
0	36633	334	8694
0	36707	334.5	8549
0	36769	335	8404
0	36836	335.5	8259
0	36892	336	8113
0	36923	336.5	8007
0	36981	337	8009
0	37026	337.5	8011
0	37085	338	8013
0	37123	338.5	8015
0	37186	339	8017
0	37260	339.5	8020
0	37303	340	8022
0	37344	340.5	8024
0	37402	341	8212
0	37464	341.5	9585
0	37503	342	9655
0	37506	342.021145506051	9635
0	37509	342.028410685086	9628
0	37517	342.236899559564	9430
0	37522	342.259485522391	9409
0	37527	342.277043369708	9392
0	37532	342.316450779398	9355
0	37537	342.338103030745	9335
0	37542	342.365078301138	9309
0	37547	342.400930478547	9275
0	37552	342.45599512438	9223
0	37555	342.463584845729	9216
0	37562	342.472717853127	9207
0	37567	342.482326543521	9198
0	37572	342.499447723832	9182
0	37573	342.5	9181
0	37619	343	8707
0	37701	343.5	8233
0	37722	344	8390
0	37754	344.5	8906
0	37799	345	9239
0	37868	345.5	9169
0	37908	346	9100
0	37977	346.5	9030
0	38014	347	8961
0	38080	347.5	8884
0	38130	348	8775
0	38180	348.5	8665
0	38239	349	8555
0	38328	349.5	8448
0	38366	350	8551
0	38419	350.5	8654
0	38484	351	8758
0	38539	351.5	8861
0	38618	352	8796
0	38696	352.5	8643
0	38738	353	8490
0	38793	353.5	8337
0	38826	354	8184
0	38863	354.5	8982
0	38923	355	8953
0	38978	355.5	8899
0	39021	356	8844
0	39069	356.5	8790
0	39102	357	8779
0	39163	357.5	8787
0	39219	358	8794
0	39265	358.5	8901
0	39318	359	9075
0	39343	359.5	9163
0	39396	360	8868
0	39465	360.5	8905
0	39564	361	9131
0	39629	361.5	8912
0	39704	362	8246
0	39775	362.5	8585
0	39839	363	8680
0	39887	363.5	8674
0	39930	364	8667
0	39980	364.5	8661
0	40027	365	8655
0	40084	365.5	8648
0	40160	366	8642
0	40217	366.5	8755
0	40266	367	8878
0	40307	367.5	9001
0	40341	368	9120
0	40398	368.5	9223
0	40489	369	9327
0	40553	369.5	9430
0	40598	370	9534
0	40669	370.5	9572
0	40717	371	9544
0	40779	371.5	9517
0	40782	371.510398814346	9516
0	40791	371.614844794694	9511
0	40799	371.708087653917	9505
0	40806	371.789703687526	9501
0	40811	371.798554175681	9501
0	40814	371.805921821192	9500
0	40821	371.821103354431	9499
0	40824	371.828472551189	9499
0	40833	371.912129978228	9494
0	40838	371.922585948803	9494
0	40843	371.962946099818	9491
0	40847	372	9489
0	40906	372.5	9462
0	40909	372.612433952673	9456
0	40914	372.655803295777	9453
0	40919	372.77005469958	9447
0	40924	372.88347943729	9441
0	40929	372.910977859317	9439
0	40934	372.959404859966	9437
0	40937	372.966822471495	9436
0	40944	372.992917824867	9435
0	40945	373	9435
0	41002	373.5	9407
0	41077	374	9380
0	41080	374.034840452557	9378
0	41083	374.042304730655	9377
0	41091	374.225051888166	9367
0	41096	374.333714055715	9361
0	41101	374.3578355378	9360
0	41104	374.365314170279	9360
0	41111	374.383775874863	9359
0	41117	374.476903019694	9353
0	41120	374.484387249353	9353
0	41126	374.5	9352
0	41129	374.507393081226	9352
0	41136	374.595966625291	9347
0	41141	374.606151128114	9346
0	41146	374.658162888215	9344
0	41152	374.706936913524	9341
0	41157	374.780403783655	9337
0	41162	374.8163927837	9335
0	41167	374.848195524175	9333
0	41173	374.899372787737	9330
0	41178	375	9325
0	41181	375.025780295999	9323
0	41186	375.048547531434	9322
0	41189	375.056056649649	9322
0	41196	375.130137583274	9318
0	41199	375.137649924978	9317
0	41206	375.164212969989	9316
0	41212	375.187794604551	9314
0	41217	375.212385810955	9313
0	41220	375.219902185915	9313
0	41228	375.266059016809	9310
0	41231	375.273577813801	9310
0	41238	375.361078734135	9305
0	41243	375.402914911885	9303
0	41246	375.410439366362	9302
0	41253	375.41967947434	9302
0	41258	375.448442870397	9300
0	41263	375.497689447588	9297
0	41264	375.5	9297
0	41319	376	9270
0	41378	376.5	9242
0	41433	377	9215
0	41482	377.5	9187
0	41548	378	9160
0	41636	378.5	9133
0	41739	379	9105
0	41790	379.5	9133
0	41844	380	9197
0	41895	380.5	9261
0	41944	381	9324
0	41999	381.5	9388
0	42002	381.593330795562	9400
0	42007	381.610281650215	9402
0	42012	381.63542318583	9405
0	42017	381.658816941711	9408
0	42022	381.776055599377	9423
0	42027	381.811327441574	9427
0	42032	381.831732301001	9430
0	42035	381.83915541871	9431
0	42042	381.854853554688	9433
0	42047	381.87970519736	9436
0	42052	382	9451
0	42055	382.152543557434	9471
0	42061	382.310332190387	9491
0	42066	382.462589293118	9510
0	42072	382.495077011996	9514
0	42073	382.5	9515
0	42079	382.508055612636	9516
0	42084	382.69332504154	9540
0	42089	382.784087304992	9551
0	42094	382.929952067865	9570
0	42099	382.950914390462	9572
0	42104	382.966832719256	9574
0	42108	383	9579
0	42112	383.16057720819	9599
0	42119	383.24478126559	9610
0	42126	383.339576511804	9622
0	42131	383.360848921101	9624
0	42139	383.478500384446	9639
0	42143	383.5	9642
0	42146	383.530355029718	9646
0	42151	383.57298252088	9651
0	42156	383.592702136167	9654
0	42162	383.610119858405	9656
0	42167	383.621069738828	9658
0	42172	383.632072468218	9659
0	42177	383.675336612187	9664
0	42182	383.712861860608	9669
0	42187	383.807951239853	9681
0	42193	383.863614555432	9688
0	42197	384	9706
0	42200	384.020992529708	9708
0	42205	384.088691369879	9717
0	42210	384.103917463754	9719
0	42215	384.113257032882	9720
0	42220	384.170157224942	9727
0	42225	384.208538693035	9732
0	42231	384.295792655094	9743
0	42236	384.324437443245	9747
0	42241	384.336329299706	9749
0	42246	384.348003150884	9750
0	42251	384.383878688545	9755
0	42256	384.424134307673	9760
0	42260	384.5	9769
0	42263	384.542100711079	9775
0	42268	384.558242947298	9777
0	42274	384.658325055287	9756
0	42279	384.696616816174	9746
0	42282	384.703799249993	9744
0	42287	384.710983158039	9742
0	42294	384.75727868139	9730
0	42299	384.872379211082	9699
0	42304	384.922826315334	9686
0	42309	384.943458567852	9681
0	42313	385	9666
0	42361	385.5	9534
0	42416	386	9402
0	42462	386.5	9035
0	42510	387	8110
0	42558	387.5	8196
0	42613	388	8283
0	42659	388.5	8369
0	42732	389	8503
0	42787	389.5	8648
0	42851	390	8792
0	42895	390.5	8937
0	42935	391	9082
0	42987	391.5	9226
0	43052	392	9371
0	43150	392.5	9269
0	43216	393	9032
0	43301	393.5	8901
0	43350	394	8944
0	43405	394.5	8988
0	43450	395	9029
0	43534	395.5	9023
0	43593	396	8903
0	43647	396.5	8621
0	43712	397	8339
0	43778	397.5	8711
0	43843	398	9380
0	43901	398.5	9853
0	43904	398.638982729526	9787
0	43909	398.672882412623	9771
0	43914	398.685308629391	9765
0	43919	398.721666129573	9748
0	43922	398.72884708977	9744
0	43927	398.736030997816	9741
0	43934	398.789303326538	9716
0	43937	398.796507937489	9712
0	43942	398.803715515743	9709
0	43949	398.821303910281	9701
0	43954	398.835626126021	9694
0	43959	398.871933477626	9677
0	43964	398.880899071454	9672
0	43969	398.941243293188	9644
0	43973	399	9616
0	44039	399.5	8751
0	44091	400	8266
1	1133	10	8291
1	1190	10.5	9718
1	1193	10.527340749582	9700
1	1198	10.552557939911	9684
1	1203	10.59738748345	9655
1	1209	10.710574162243	9583
1	1214	10.753035202821	9555
1	1219	10.803968139322	9523
1	1224	10.816589138967	9515
1	1230	10.927664483891	9444
1	1234	11	9397
1	1267	11.5	9077
1	1323	12	8756
1	1361	12.5	8436
1	1432	13	8600
1	1509	13.5	9176
1	1565	14	9210
1	1621	14.5	9218
1	1679	15	9202
1	1702	15.5	9186
1	1755	16	9170
1	1807	16.5	9154
1	1858	17	9137
1	1922	17.5	9120
1	1994	18	9104
1	2054	18.5	9087
1	2085	19	9070
1	2124	19.5	8992
1	2198	20	8906
1	2262	20.5	8821
1	2312	21	8735
1	2358	21.5	8650
1	2419	22	8564
1	2465	22.5	8478
1	2520	23	8393
1	2570	23.5	8307
1	2630	24	8222
1	2700	24.5	8136
1	2772	25	8115
1	2840	25.5	8712
1	2892	26	9310
1	2961	26.5	9444
1	3010	27	9436
1	3052	27.5	9428
1	3085	28	9420
1	3129	28.5	9411
1	3183	29	9403
1	3218	29.5	9395
1	3277	30	9387
1	3332	30.5	9383
1	3364	31	9405
1	3427	31.5	9428
1	3501	32	9451
1	3565	32.5	9474
1	3651	33	9497
1	3712	33.5	9520
1	3776	34	9543
1	3846	34.5	9566
1	3850	34.525025173045	9567
1	3855	34.605446065499	9571
1	3861	34.639193614182	9572
1	3865	34.646506610421	9572
1	3873	34.674894163304	9561
1	3878	34.711471430261	9546
1	3883	34.818626415282	9503
1	3888	34.836948979874	9496
1	3893	34.870460573703	9483
1	3898	34.913543948293	9465
1	3903	34.940314165848	9455
1	3907	35	9431
1	3976	35.5	9230
1	4040	36	9030
1	4092	36.5	8829
1	4156	37	8693
1	4215	37.5	8644
1	4256	38	8595
1	4301	38.5	8546
1	4348	39	8511
1	4398	39.5	8479
1	4465	40	8446
1	4505	40.5	8414
1	4596	41	8382
1	4672	41.5	8350
1	4704	42	8404
1	4758	42.5	8651
1	4836	43	8932
1	4890	43.5	9212
1	4930	44	9394
1	4984	44.5	9280
1	5006	45	9165
1	5043	45.5	9051
1	5098	46	8937
1	5168	46.5	8823
1	5234	47	8709
1	5288	47.5	8595
1	5332	48	8480
1	5370	48.5	8366
1	5439	49	8252
1	5470	49.5	8517
1	5523	50	8974
1	5583	50.5	9093
1	5645	51	9019
1	5705	51.5	8946
1	5770	52	8873
1	5820	52.5	8799
1	5901	53	8726
1	5976	53.5	8653
1	6032	54	8579
1	6080	54.5	8385
1	6124	55	8297
1	6175	55.5	8404
1	6219	56	8511
1	6273	56.5	8619
1	6312	57	8726
1	6360	57.5	8834
1	6426	58	8941
1	6468	58.5	9048
1	6545	59	9146
1	6608	59.5	9202
1	6665	60	9258
1	6713	60.5	9313
1	6763	61	9369
1	6821	61.5	9425
1	6868	62	9481
1	6932	62.5	9492
1	6960	63	9416
1	7001	63.5	9340
1	7034	64	9092
1	7121	64.5	8838
1	7188	65	8664
1	7218	65.5	8249
1	7265	66	8411
1	7343	66.5	9142
1	7401	67	9105
1	7440	67.5	9067
1	7525	68	9005
1	7584	68.5	8918
1	7649	69	8830
1	7726	69.5	8742
1	7768	70	8654
1	7814	70.5	8798
1	7858	71	8959
1	7965	71.5	9120
1	8017	72	9280
1	8096	72.5	9441
1	8142	73	9602
1	8177	73.5	9763
1	8180	73.535518340373	9774
1	8186	73.578855393906	9788
1	8191	73.601526064823	9795
1	8199	73.631957032526	9805
1	8204	73.666720821575	9816
1	8209	73.718131087489	9833
1	8214	73.741742524921	9840
1	8220	73.75639569981	9845
1	8225	73.779095272147	9852
1	8231	73.81914070629	9861
1	8236	73.834257113192	9860
1	8240	73.841356504673	9859
1	8248	73.875585722338	9854
1	8253	73.886775160945	9853
1	8259	73.944019483418	9846
1	8265	73.980102420803	9841
1	8270	73.996343261035	9839
1	8271	74	9839
1	8275	74.003457805196	9838
1	8282	74.038629006745	9834
1	8287	74.13410675767	9822
1	8290	74.141233615744	9821
1	8297	74.165521106335	9818
1	8302	74.17422956739	9817
1	8307	74.187498065279	9815
1	8310	74.194630006186	9814
1	8317	74.233920847173	9809
1	8322	74.410482917198	9787
1	8327	74.479168880432	9778
1	8330	74.486327808638	9777
1	8336	74.5	9776
1	8340	74.526313201767	9772
1	8345	74.536149236198	9771
1	8351	74.579406689144	9766
1	8357	74.626856006483	9760
1	8362	74.636178488193	9759
1	8365	74.641233615744	9758
1	8377	74.698397857045	9751
1	8384	74.805207553361	9737
1	8392	74.993391593038	9714
1	8394	75	9713
1	8436	75.5	9650
1	8490	76	9587
1	8546	76.5	9524
1	8610	77	9461
1	8635	77.5	9398
1	8676	78	9335
1	8740	78.5	9272
1	8788	79	9209
1	8838	79.5	9321
1	8913	80	9438
1	8951	80.5	9555
1	9020	81	9672
1	9057	81.5	9789
1	9060	81.506568618372	9790
1	9065	81.53697019966	9797
1	9070	81.558658509135	9802
1	9076	81.604497202719	9813
1	9081	81.718412689859	9840
1	9086	81.771490355674	9852
1	9091	81.844967021467	9869
1	9096	81.86831063034	9875
1	9102	81.89042418979	9880
1	9108	81.945590454925	9893
1	9113	81.994189274579	9904
1	9114	82	9906
1	9120	82.024710951731	9911
1	9125	82.041734861308	9915
1	9128	82.048794871394	9917
1	9136	82.149912691673	9428
1	9141	82.163187443805	9348
1	9144	82.170675676582	9303
1	9149	82.178200131059	9258
1	9154	82.185761159359	9212
1	9161	82.204766479779	9098
1	9167	82.214874326592	9063
1	9172	82.262125226123	9025
1	9177	82.287919312249	9004
1	9182	82.310833040402	8986
1	9187	82.379203326352	8930
1	9192	82.443976159548	8878
1	9197	82.481399371294	8847
1	9201	82.5	8832
1	9305	83	8784
1	9365	83.5	8931
1	9431	84	9078
1	9494	84.5	9226
1	9550	85	9373
1	9588	85.5	9520
1	9591	85.539235884826	9532
1	9596	85.665215392774	9569
1	9599	85.672530681728	9571
1	9606	85.728920985841	9588
1	9612	85.837152344625	9620
1	9617	85.846892649451	9623
1	9624	85.940061948641	9650
1	9629	85.973097703312	9660
1	9633	86	9668
1	9636	86.008778260975	9670
1	9641	86.016337782297	9673
1	9644	86.023574420362	9675
1	9651	86.04540414803	9681
1	9656	86.093977545708	9696
1	9662	86.232301554111	9736
1	9667	86.245979797223	9740
1	9672	86.374375933211	9778
1	9677	86.424206397169	9793
1	9682	86.440828993248	9798
1	9688	86.499995969416	9815
1	9689	86.5	9815
1	9752	87	9880
1	9755	87.016634427287	9881
1	9762	87.050487512905	9881
1	9769	87.121998480318	9881
1	9775	87.23661096161	9881
1	9780	87.258855885059	9881
1	9785	87.269116025975	9881
1	9793	87.330820027312	9882
1	9801	87.368855857404	9882
1	9808	87.413116699637	9882
1	9813	87.432862964242	9882
1	9819	87.5	9882
1	9822	87.515792633587	9882
1	9827	87.534822178553	9882
1	9832	87.546234509713	9882
1	9837	87.575843249912	9882
1	9843	87.655422355566	9883
1	9848	87.683798984758	9883
1	9853	87.699289091486	9883
1	9858	87.721396600082	9883
1	9863	87.739106530786	9883
1	9868	87.862344537607	9883
1	9873	88	9884
1	9876	88.053573020429	9884
1	9881	88.119363732018	9884
1	9884	88.126445884993	9884
1	9892	88.186733480994	9885
1	9897	88.197254326156	9885
1	9902	88.214372746799	9885
1	9907	88.25116241315	9885
1	9913	88.294265494515	9885
1	9918	88.317845280538	9885
1	9924	88.393365521472	9885
1	9929	88.407225693398	9885
1	9934	88.486607157777	9886
1	9938	88.5	9886
1	9941	88.544295345945	9886
1	9946	88.565415518415	9886
1	9951	88.620733171663	9886
1	9956	88.694407060496	9886
1	9961	88.860260429382	9887
1	9966	88.926830646904	9887
1	9970	89	9887
1	9973	89.032264020998	9887
1	9978	89.039892828405	9887
1	9984	89.338204613393	9888
1	9989	89.438680044228	9889
1	9994	89.461220534759	9889
1	9999	89.490329587416	9889
1	10002	89.497408159567	9889
1	10005	89.5	9889
1	10011	89.525960606513	9889
1	10016	89.545634726361	9889
1	10021	89.575378539156	9889
1	10026	89.609728320951	9889
1	10031	89.651676985097	9890
1	10036	89.661125910933	9890
1	10041	89.709659198325	9890
1	10044	89.716737054746	9890
1	10051	89.748580562538	9890
1	10057	89.778721107938	9890
1	10062	89.879511981155	9890
1	10067	90	9891
1	10070	90.014416133303	9891
1	10077	90.063823565961	9891
1	10085	90.135843146211	9891
1	10091	90.161503565273	9891
1	10099	90.180164551691	9891
1	10104	90.207116527118	9891
1	10114	90.316854879557	9892
1	10120	90.400112615926	9892
1	10125	90.459859022595	9892
1	10130	90.481259280118	9892
1	10135	90.5	9892
1	10138	90.512379181335	9892
1	10143	90.524257458482	9893
1	10148	90.53962582212	9893
1	10151	90.546701532218	9893
1	10158	90.5855329488	9893
1	10164	90.689917461957	9893
1	10169	90.700756963244	9893
1	10174	90.826143080007	9894
1	10179	90.89373418431	9894
1	10182	90.900809179256	9894
1	10189	91	9894
1	10192	91.038306503582	9894
1	10197	91.058665362609	9894
1	10203	91.112498295052	9895
1	10208	91.122139444492	9895
1	10214	91.186687579771	9895
1	10217	91.19376185971	9895
1	10224	91.201832301347	9895
1	10231	91.316894969649	9895
1	10236	91.385855737186	9895
1	10239	91.392930017125	9896
1	10246	91.423177418176	9896
1	10251	91.5	9896
1	10255	91.620007724667	9896
1	10258	91.627081289744	9896
1	10263	91.634154854821	9896
1	10270	91.654075360559	9896
1	10275	91.753636142584	9897
1	10281	91.819000711834	9897
1	10286	91.860794590211	9897
1	10291	91.903957017424	9897
1	10296	91.926893784491	9897
1	10301	91.945185526448	9897
1	10306	91.966139066626	9897
1	10310	92	9898
1	10315	92.190503987188	9898
1	10320	92.261313661213	9898
1	10325	92.303983195524	9899
1	10330	92.322868880801	9899
1	10335	92.467843813485	9899
1	10340	92.5	9899
1	10400	93	9901
1	10403	93.038979244295	9901
1	10409	93.103632841189	9901
1	10414	93.117620681309	9901
1	10417	93.124690674239	9901
1	10425	93.285764800125	9902
1	10430	93.35992931004	9902
1	10435	93.427521652885	9902
1	10440	93.439744497515	9903
1	10445	93.453335673466	9903
1	10449	93.5	9903
1	10452	93.570065084569	9903
1	10457	93.621765375706	9903
1	10460	93.628833940787	9903
1	10467	93.644716329328	9903
1	10473	93.664969990787	9903
1	10478	93.729972291246	9904
1	10481	93.737040142619	9904
1	10488	93.779150257416	9904
1	10493	93.811424245967	9904
1	10498	93.882087736731	9904
1	10503	93.967833891936	9904
1	10508	93.982315676832	9904
1	10512	94	9904
1	10547	94.5	9564
1	10604	95	9211
1	10657	95.5	8858
1	10692	96	8505
1	10760	96.5	8155
1	10822	97	8687
1	10879	97.5	9237
1	10922	98	9123
1	10943	98.5	8355
1	11010	99	8954
1	11070	99.5	8886
1	11124	100	8300
1	11216	100.5	8136
1	11285	101	8296
1	11362	101.5	8340
1	11422	102	8347
1	11462	102.5	8354
1	11515	103	8361
1	11556	103.5	8369
1	11616	104	8376
1	11660	104.5	8383
1	11733	105	8390
1	11797	105.5	8403
1	11877	106	8470
1	11931	106.5	8537
1	11990	107	8604
1	12044	107.5	8672
1	12097	108	8739
1	12162	108.5	8806
1	12180	109	8873
1	12218	109.5	8940
1	12275	110	9007
1	12324	110.5	9074
1	12381	111	9141
1	12406	111.5	9208
1	12410	111.516033051437	9210
1	12416	111.623663192419	9225
1	12421	111.660256544395	9230
1	12427	111.834216254291	9253
1	12431	111.841781368308	9254
1	12438	111.880234745909	9259
1	12443	111.912206895579	9264
1	12448	111.942869421655	9268
1	12453	111.97170486941	9272
1	12457	112	9275
1	12460	112.004887253172	9276
1	12465	112.016219489094	9278
1	12470	112.129154090303	9293
1	12475	112.156700689031	9296
1	12480	112.168403541346	9298
1	12485	112.190543037448	9301
1	12490	112.214071261258	9304
1	12495	112.22300871393	9305
1	12501	112.274248876176	9312
1	12506	112.303362642734	9316
1	12511	112.366307442992	9325
1	12518	112.381552242708	9327
1	12521	112.38905733545	9328
1	12528	112.421367170712	9332
1	12532	112.5	9343
1	12575	113	9410
1	12614	113.5	9477
1	12617	113.512582418329	9478
1	12620	113.519967942701	9479
1	12629	113.82705554743	9521
1	12635	113.849621626709	9524
1	12639	114	9544
1	12642	114.070304381918	9553
1	12647	114.157097870959	9565
1	12652	114.203329516947	9571
1	12657	114.219438035288	9573
1	12661	114.226750267608	9574
1	12668	114.249269676268	9577
1	12673	114.293026255547	9583
1	12679	114.364682284643	9593
1	12682	114.37197927203	9594
1	12689	114.424313262773	9601
1	12694	114.43540244524	9602
1	12700	114.461990741829	9608
1	12704	114.5	9620
1	12707	114.618309174031	9654
1	12713	114.62728460883	9657
1	12718	114.647341376308	9663
1	12725	114.759450109163	9692
1	12731	114.8103095738	9680
1	12736	114.853100139813	9670
1	12742	114.86958506581	9666
1	12747	114.8844224051	9662
1	12754	115	9634
1	12814	115.5	9515
1	12907	116	9395
1	12960	116.5	9275
1	13000	117	9156
1	13064	117.5	9036
1	13126	118	8916
1	13190	118.5	8796
1	13234	119	8677
1	13277	119.5	8705
1	13319	120	8850
1	13361	120.5	8996
1	13412	121	8850
1	13482	121.5	8613
1	13535	122	8462
1	13593	122.5	8582
1	13652	123	8703
1	13691	123.5	8823
1	13715	124	8943
1	13745	124.5	9038
1	13841	125	9089
1	13931	125.5	9140
1	13980	126	9191
1	14025	126.5	9242
1	14056	127	9294
1	14106	127.5	9345
1	14151	128	9396
1	14178	128.5	9456
1	14200	129	9535
1	14203	129.032348558945	9540
1	14208	129.131225655894	9556
1	14214	129.18278536493	9564
1	14219	129.205029229845	9568
1	14225	129.219185656087	9570
1	14231	129.328515099141	9587
1	14236	129.347433534494	9590
1	14242	129.398323298838	9598
1	14250	129.5	9673
1	14253	129.514964614701	9685
1	14258	129.543070277796	9706
1	14264	129.670682821307	9802
1	14267	129.677824221021	9807
1	14274	129.723286175415	9841
1	14279	129.796797835162	9897
1	14283	129.803870685521	9902
1	14290	129.836817470587	9927
1	14295	129.851934320411	9938
1	14302	129.929067345564	9501
1	14307	129.938863812761	9445
1	14312	130	9095
1	14392	130.5	8670
1	14434	131	8866
1	14504	131.5	9063
1	14549	132	9259
1	14588	132.5	9313
1	14626	133	9260
1	14678	133.5	9207
1	14751	134	9153
1	14786	134.5	9100
1	14838	135	9047
1	14869	135.5	8994
1	14924	136	8941
1	14994	136.5	8893
1	15068	137	8907
1	15122	137.5	8921
1	15191	138	8936
1	15261	138.5	8950
1	15303	139	8965
1	15338	139.5	8979
1	15382	140	8993
1	15425	140.5	9008
1	15500	141	9022
1	15573	141.5	9037
1	15624	142	9051
1	15657	142.5	9036
1	15706	143	9020
1	15745	143.5	9004
1	15805	144	8988
1	15871	144.5	8973
1	15906	145	9198
1	15969	145.5	9425
1	16004	146	9652
1	16062	146.5	9621
1	16107	147	9361
1	16160	147.5	9101
1	16232	148	8841
1	16278	148.5	8581
1	16329	149	8492
1	16390	149.5	8754
1	16433	150	9016
1	16469	150.5	9278
1	16556	151	9140
1	16641	151.5	8162
1	16681	152	8212
1	16722	152.5	8504
1	16758	153	8821
1	16830	153.5	9138
1	16877	154	9307
1	16913	154.5	9376
1	16966	155	9445
1	17033	155.5	9513
1	17072	156	9582
1	17115	156.5	9651
1	17166	157	9508
1	17204	157.5	9077
1	17242	158	8645
1	17326	158.5	8233
1	17386	159	8509
1	17408	159.5	8785
1	17459	160	8853
1	17502	160.5	9037
1	17580	161	9222
1	17659	161.5	9406
1	17707	162	9553
1	17751	162.5	8912
1	17795	163	8077
1	17854	163.5	8597
1	17915	164	9123
1	17960	164.5	9354
1	18011	165	9312
1	18071	165.5	9270
1	18152	166	9227
1	18212	166.5	9238
1	18239	167	9266
1	18283	167.5	9295
1	18360	168	9324
1	18408	168.5	9353
1	18438	169	9381
1	18485	169.5	9410
1	18545	170	9439
1	18582	170.5	9468
1	18634	171	9496
1	18696	171.5	9525
1	18746	172	9554
1	18776	172.5	9583
1	18870	173	9370
1	18925	173.5	9064
1	18984	174	8820
1	19052	174.5	8963
1	19122	175	9106
1	19171	175.5	9248
1	19242	176	9391
1	19280	176.5	9534
1	19345	177	9677
1	19444	177.5	9574
1	19496	178	9222
1	19573	178.5	8870
1	19646	179	8518
1	19708	179.5	9870
1	19714	179.547870171557	9868
1	19719	179.560691038815	9867
1	19722	179.567785393735	9867
1	19729	179.613707437956	9864
1	19734	179.795985657304	9854
1	19739	179.810915441184	9853
1	19744	179.871219749771	9850
1	19750	179.92798791668	9847
1	19754	180	9843
1	19757	180.020187651386	9841
1	19766	180.158889633319	9834
1	19771	180.20070234302	9831
1	19776	180.215526206393	9831
1	19781	180.247915910507	9829
1	19788	180.322239941224	9825
1	19793	180.370867441303	9822
1	19799	180.424246155919	9819
1	19806	180.461863582377	9817
1	19811	180.487370321251	9815
1	19815	180.5	9815
1	19818	180.51905618838	9814
1	19823	180.580320701294	9810
1	19828	180.651562120122	9806
1	19833	180.667964655386	9805
1	19838	180.677777624732	9805
1	19843	180.695567031474	9804
1	19848	180.704954165581	9803
1	19853	180.730536461874	9802
1	19859	180.758804305701	9800
1	19864	180.786360763552	9799
1	19869	180.805698911639	9798
1	19874	180.845879100777	9795
1	19877	180.853025604095	9795
1	19884	180.873905107047	9794
1	19889	180.96695109657	9789
1	19893	181	9787
1	19896	181.063669266768	9783
1	19901	181.13750272155	9779
1	19906	181.187614059108	9776
1	19911	181.226868575404	9774
1	19916	181.349486133057	9767
1	19920	181.5	9759
1	19923	181.543426524506	9756
1	19928	181.566233528757	9755
1	19931	181.573409336035	9755
1	19942	181.778894005095	9743
1	19948	181.851658930448	9739
1	19954	181.913778927782	9736
1	19959	181.929266477791	9735
1	19964	182	9731
1	20018	182.5	9703
1	20024	182.551571449281	9700
1	20031	182.643511339188	9695
1	20034	182.650731555794	9695
1	20042	182.752237165832	9689
1	20049	182.835532747037	9684
1	20055	182.866795810237	9683
1	20060	182.916206058218	9679
1	20064	183	9674
1	20068	183.080254245634	9669
1	20075	183.197938858663	9662
1	20081	183.282032547435	9657
1	20087	183.351092376639	9652
1	20095	183.452753595931	9646
1	20101	183.493930164646	9643
1	20104	183.5	9643
1	20155	184	9612
1	20239	184.5	9581
1	20242	184.590271882339	9575
1	20248	184.647791816102	9572
1	20254	184.708785440887	9568
1	20259	184.912688600168	9555
1	20264	184.961459902841	9552
1	20268	185	9550
1	20272	185.091724343489	9544
1	20280	185.247859181232	9534
1	20285	185.261250792939	9533
1	20290	185.420088726662	9523
1	20294	185.5	9518
1	20297	185.610114973453	9512
1	20302	185.697054295737	9506
1	20308	185.785695739333	9501
1	20313	185.832487493998	9498
1	20317	186	9487
1	20358	186.5	9456
1	20414	187	9425
1	20470	187.5	9394
1	20529	188	8182
1	20594	188.5	9795
1	20649	189	9824
1	20718	189.5	9852
1	20760	190	9800
1	20814	190.5	9512
1	20907	191	9224
1	20935	191.5	8935
1	21001	192	8647
1	21041	192.5	8359
1	21099	193	8190
1	21176	193.5	8234
1	21244	194	8279
1	21284	194.5	8324
1	21343	195	8369
1	21399	195.5	8344
1	21456	196	8318
1	21531	196.5	8292
1	21575	197	8266
1	21628	197.5	8240
1	21691	198	8214
1	21744	198.5	8188
1	21822	199	8162
1	21875	199.5	8136
1	21901	200	8110
1	21958	200.5	8284
1	22018	201	8533
1	22053	201.5	8781
1	22117	202	9030
1	22158	202.5	9279
1	22204	203	9528
1	22207	203.054329849247	9555
1	22212	203.075274568179	9565
1	22218	203.12667471076	9591
1	22223	203.150221999281	9602
1	22232	203.186543047228	9620
1	22237	203.208787647039	9631
1	22242	203.250666310029	9652
1	22248	203.298602537581	9676
1	22253	203.337045196463	9695
1	22262	203.452379946627	9753
1	22267	203.459733648803	9756
1	22272	203.469242862197	9761
1	22277	203.5	9776
1	22330	204	9752
1	22404	204.5	9695
1	22407	204.57557440144	9686
1	22412	204.612602694898	9682
1	22417	204.635413819049	9679
1	22422	204.649832640287	9678
1	22427	204.780112768514	9663
1	22432	204.826561689979	9657
1	22435	204.833810317917	9657
1	22442	204.847620981827	9655
1	22447	204.86004020186	9654
1	22452	204.903092938986	9649
1	22459	204.995565974719	9638
1	22460	205	9638
1	22466	205.004863067079	9637
1	22471	205.013799851581	9636
1	22476	205.022485929187	9635
1	22481	205.037558250299	9633
1	22486	205.06453920584	9630
1	22491	205.087737690531	9628
1	22496	205.115565421931	9625
1	22501	205.159442783546	9620
1	22506	205.1750489857	9618
1	22511	205.199953596969	9615
1	22514	205.207233888181	9614
1	22521	205.22261912138	9612
1	22524	205.229901684842	9612
1	22532	205.257987651323	9608
1	22535	205.26527324666	9608
1	22542	205.297214728672	9604
1	22547	205.313056563011	9602
1	22552	205.477107789729	9583
1	22556	205.5	9581
1	22615	206	9524
1	22704	206.5	9468
1	22744	207	9412
1	22805	207.5	9355
1	22867	208	9299
1	22923	208.5	9243
1	22976	209	9187
1	23013	209.5	9131
1	23058	210	9074
1	23130	210.5	9018
1	23194	211	8962
1	23286	211.5	8856
1	23340	212	8722
1	23390	212.5	9666
1	23393	212.512608375585	9690
1	23400	212.560403098317	9719
1	23405	212.585563394753	9714
1	23410	212.629965831996	9706
1	23415	212.643072697813	9704
1	23420	212.65558039621	9701
1	23425	212.676660896409	9697
1	23430	212.686873216269	9695
1	23436	212.834984953027	9668
1	23441	212.867427337744	9662
1	23446	212.884733227263	9658
1	23452	212.906762671742	9654
1	23457	212.920880194429	9652
1	23462	212.934657090146	9649
1	23467	212.978407090131	9641
1	23471	213	9637
1	23519	213.5	9543
1	23563	214	9495
1	23566	214.039190519028	9493
1	23572	214.107261846548	9490
1	23579	214.174605191751	9488
1	23585	214.204486103201	9487
1	23590	214.374981793652	9480
1	23595	214.401548617119	9479
1	23600	214.428307780137	9478
1	23605	214.436022410307	9478
1	23610	214.457977110291	9477
1	23615	214.479867833884	9476
1	23618	214.487254917041	9476
1	23624	214.5	9475
1	23689	215	9456
1	23771	215.5	9436
1	23806	216	9416
1	23850	216.5	9397
1	23880	217	9377
1	23947	217.5	9358
1	24020	218	9338
1	24081	218.5	9318
1	24111	219	9299
1	24167	219.5	9292
1	24234	220	9302
1	24237	220.028708840163	9303
1	24242	220.121263572972	9304
1	24248	220.176306978914	9306
1	24253	220.203083744826	9306
1	24258	220.252897337809	9307
1	24264	220.280243592752	9308
1	24267	220.2877640053	9308
1	24274	220.417024307727	9310
1	24278	220.5	9312
1	24330	221	9322
1	24381	221.5	9332
1	24413	222	9343
1	24494	222.5	9353
1	24545	223	9363
1	24572	223.5	9373
1	24636	224	9383
1	24694	224.5	9393
1	24697	224.502262864693	9394
1	24703	224.66018695734	9397
1	24709	224.71198834808	9398
1	24714	224.724490962982	9398
1	24719	224.865959781686	9401
1	24724	224.894691934687	9402
1	24729	224.937549892633	9402
1	24735	224.964681825244	9403
1	24739	225	9404
1	24742	225.012325348314	9404
1	24748	225.05648705773	9405
1	24751	225.063929907278	9405
1	24758	225.117566764214	9406
1	24763	225.269619792261	9409
1	24768	225.282220811326	9409
1	24773	225.319768305208	9410
1	24779	225.361028872592	9411
1	24784	225.441820140915	9413
1	24788	225.5	9414
1	24791	225.568350164429	9415
1	24794	225.575785108667	9415
1	24801	225.584281467607	9416
1	24806	225.61159634801	9416
1	24809	225.61903050264	9416
1	24816	225.632319536559	9417
1	24821	225.648691463894	9417
1	24826	225.664220298715	9417
1	24831	225.704451140886	9418
1	24838	225.782830857766	9420
1	24843	225.812948807704	9420
1	24848	225.861839395134	9421
1	24853	225.89086477136	9422
1	24858	225.919832960905	9422
1	24863	225.972927489585	9423
1	24866	225.980356121655	9424
1	24872	226	9424
1	24911	226.5	9434
1	24912	226.5	9434
1	24917	226.507386086028	9434
1	24925	226.54515842861	9435
1	24930	226.655752133861	9437
1	24936	226.80696984869	9440
1	24942	226.941709332422	9443
1	24946	227	9444
1	24952	227.062327011048	9446
1	24959	227.41937436791	9453
1	24965	227.463307603933	9454
1	24971	227.476846102682	9454
1	24976	227.494933984072	9454
1	24979	227.5	9455
1	24980	227.5	9455
1	24988	227.518677755633	9455
1	24993	227.526708121147	9455
1	24998	227.640804883346	9457
1	25003	227.726785842486	9459
1	25008	227.76062828174	9460
1	25014	227.893361943604	9463
1	25017	227.900759174926	9463
1	25024	227.922384154852	9463
1	25029	227.936663399836	9463
1	25033	228	9465
1	25039	228.100829011142	9467
1	25044	228.117032131778	9467
1	25050	228.196747675437	9469
1	25053	228.204140219528	9469
1	25060	228.225149808253	9469
1	25066	228.256241799913	9470
1	25072	228.351416450385	9472
1	25081	228.475293685774	9474
1	25085	228.5	9475
1	25088	228.526516124402	9475
1	25093	228.581765132043	9477
1	25098	228.61133832568	9477
1	25101	228.618724629363	9477
1	25108	228.645167254785	9478
1	25111	228.652552779157	9478
1	25118	228.809109048955	9481
1	25123	228.825274350392	9481
1	25129	228.842612196072	9482
1	25134	228.865137380392	9482
1	25139	228.920524295065	9483
1	25144	228.995497373345	9485
1	25145	229	9485
1	25188	229.5	9495
1	25192	229.701037150191	9499
1	25197	229.745347203254	9500
1	25205	229.813802663454	9502
1	25211	229.879870309952	9503
1	25217	229.930426423675	9504
1	25222	230	9505
1	25225	230.027200938838	9506
1	25228	230.034564709088	9506
1	25235	230.070281792342	9507
1	25240	230.089801888759	9507
1	25246	230.250025378753	9510
1	25251	230.37234362683	9513
1	25256	230.388847752773	9513
1	25261	230.400067812831	9514
1	25264	230.407425391137	9514
1	25271	230.496286125183	9515
1	25272	230.5	9516
1	25278	230.520540260855	9516
1	25283	230.580129904821	9517
1	25289	230.746470973194	9521
1	25294	230.769281877365	9521
1	25299	230.841463935175	9523
1	25304	230.879127298155	9523
1	25309	230.890090601485	9523
1	25314	230.929223025756	9524
1	25318	231	9526
1	25324	231.124093624901	9528
1	25329	231.186691201467	9530
1	25334	231.247294363681	9531
1	25342	231.283635347005	9531
1	25349	231.363916588605	9533
1	25352	231.371259502693	9533
1	25357	231.378602416781	9533
1	25367	231.448066015653	9535
1	25371	231.5	9536
1	25425	232	9546
1	25483	232.5	8202
1	25517	233	8225
1	25567	233.5	8248
1	25613	234	8695
1	25663	234.5	9301
1	25725	235	9858
1	25731	235.095710446759	9826
1	25737	235.115483851433	9819
1	25742	235.141457081071	9811
1	25750	235.227663599307	9782
1	25756	235.238852137858	9778
1	25761	235.278545472833	9765
1	25766	235.299611025178	9758
1	25771	235.356947595383	9739
1	25776	235.36784227779	9735
1	25783	235.449760476288	9708
1	25789	235.464535388311	9703
1	25793	235.5	9691
1	25796	235.520185283726	9684
1	25801	235.591042753426	9661
1	25806	235.618487087217	9651
1	25811	235.632078969925	9647
1	25814	235.639335111731	9644
1	25821	235.698750158463	9625
1	25826	235.742154739414	9610
1	25831	235.787146768359	9595
1	25837	235.901008881943	9557
1	25842	235.908846420134	9554
1	25848	235.935987389554	9545
1	25852	236	9524
1	25855	236.008121865492	9521
1	25860	236.128923686518	9481
1	25865	236.224746471299	9449
1	25870	236.259757862329	9437
1	25875	236.41592189659	9385
1	25880	236.464411952426	9369
1	25884	236.5	9357
1	25888	236.624120318053	9315
1	25893	236.713604940897	9285
1	25898	236.774876816955	9265
1	25903	236.816450992018	9251
1	25908	236.833670283047	9245
1	25913	236.841241943404	9243
1	25916	236.848815242117	9240
1	25922	237	9190
1	25980	237.5	9023
1	26022	238	8856
1	26090	238.5	8689
1	26144	239	8732
1	26196	239.5	8915
1	26250	240	9098
1	26305	240.5	9845
1	26308	240.504508667037	9843
1	26313	240.561454618275	9824
1	26316	240.568580025441	9822
1	26324	240.694747495067	9779
1	26328	240.701905691202	9776
1	26333	240.709066084001	9774
1	26341	240.717892330431	9771
1	26346	240.784683885384	9748
1	26351	240.817486279476	9737
1	26356	240.85702869234	9724
1	26361	240.871514414838	9719
1	26366	240.902077118647	9708
1	26370	241	9675
1	26412	241.5	9505
1	26447	242	9335
1	26498	242.5	9165
1	26520	243	8995
1	26598	243.5	8825
1	26662	244	8655
1	26735	244.5	8485
1	26794	245	8315
1	26861	245.5	8152
1	26907	246	8152
1	26959	246.5	8152
1	27067	247	8152
1	27122	247.5	8152
1	27173	248	8152
1	27224	248.5	8152
1	27267	249	8204
1	27310	249.5	9257
1	27350	250	9388
1	27390	250.5	9426
1	27450	251	9465
1	27520	251.5	9503
1	27573	252	9542
1	27639	252.5	9545
1	27671	253	9376
1	27765	253.5	9208
1	27841	254	9111
1	27881	254.5	9160
1	27927	255	9209
1	27993	255.5	9258
1	28050	256	9274
1	28123	256.5	9146
1	28164	257	9018
1	28230	257.5	8891
1	28269	258	8763
1	28341	258.5	8635
1	28384	259	8508
1	28414	259.5	8380
1	28472	260	8253
1	28545	260.5	8239
1	28583	261	8364
1	28633	261.5	8489
1	28683	262	8614
1	28736	262.5	8738
1	28794	263	8863
1	28844	263.5	8988
1	28897	264	9113
1	28947	264.5	9169
1	29010	265	8612
1	29090	265.5	8516
1	29139	266	8427
1	29186	266.5	8395
1	29229	267	8586
1	29296	267.5	8777
1	29352	268	8968
1	29386	268.5	9159
1	29443	269	8692
1	29484	269.5	8660
1	29553	270	8629
1	29585	270.5	8753
1	29658	271	8896
1	29704	271.5	9039
1	29739	272	9182
1	29792	272.5	9325
1	29864	273	9434
1	29916	273.5	9491
1	29957	274	9548
1	30008	274.5	9606
1	30057	275	9663
1	30127	275.5	9720
1	30197	276	9777
1	30201	276.063841971192	9784
1	30204	276.070996509213	9785
1	30209	276.07815031606	9786
1	30217	276.12787685927	9792
1	30222	276.136479169667	9793
1	30227	276.156670291134	9795
1	30232	276.211363712341	9801
1	30237	276.248785468537	9806
1	30242	276.315832867733	9813
1	30248	276.5	8937
1	30303	277	8297
1	30340	277.5	8875
1	30423	278	9453
1	30462	278.5	9131
1	30523	279	9124
1	30579	279.5	9118
1	30628	280	9111
1	30693	280.5	9105
1	30753	281	9098
1	30771	281.5	9091
1	30805	282	9085
1	30854	282.5	9056
1	30924	283	8947
1	30965	283.5	8837
1	31059	284	8727
1	31129	284.5	8617
1	31180	285	8508
1	31246	285.5	8398
1	31295	286	8288
1	31369	286.5	8179
1	31404	287	8069
1	31438	287.5	8034
1	31476	288	8057
1	31540	288.5	8081
1	31574	289	8105
1	31627	289.5	8128
1	31673	290	8377
1	31736	290.5	8720
1	31756	291	9063
1	31826	291.5	9406
1	31877	292	9749
1	31880	292.017128124435	9761
1	31885	292.075792795616	9801
1	31890	292.106229222348	9822
1	31895	292.131825318052	9839
1	31900	292.166821110918	9863
1	31905	292.183961589621	9875
1	31911	292.309192249707	9376
1	31916	292.483896487822	8656
1	31920	292.5	8589
1	31976	293	8105
1	32005	293.5	8212
1	32079	294	8319
1	32151	294.5	8425
1	32248	295	8532
1	32308	295.5	8639
1	32347	296	8746
1	32387	296.5	8852
1	32426	297	8959
1	32471	297.5	8986
1	32516	298	8929
1	32594	298.5	8873
1	32632	299	8817
1	32681	299.5	8760
1	32720	300	8704
1	32798	300.5	8647
1	32840	301	8591
1	32879	301.5	8535
1	32942	302	8478
1	32975	302.5	8422
1	33018	303	8365
1	33078	303.5	8309
1	33134	304	8473
1	33202	304.5	8735
1	33261	305	8997
1	33314	305.5	9259
1	33396	306	9268
1	33460	306.5	9010
1	33509	307	8752
1	33557	307.5	8495
1	33601	308	8237
1	33693	308.5	8273
1	33760	309	8402
1	33823	309.5	8531
1	33872	310	8659
1	33936	310.5	8788
1	34013	311	8917
1	34077	311.5	9045
1	34166	312	9120
1	34200	312.5	9122
1	34237	313	9124
1	34289	313.5	9126
1	34335	314	9128
1	34427	314.5	8732
1	34461	315	8672
1	34501	315.5	8596
1	34581	316	8520
1	34645	316.5	8372
1	34688	317	8634
1	34749	317.5	8896
1	34787	318	9158
1	34839	318.5	9421
1	34842	318.501746122541	9421
1	34847	318.517333887938	9430
1	34852	318.531046387709	9437
1	34857	318.569893665823	9457
1	34862	318.672406120867	9511
1	34867	318.709481692143	9530
1	34872	318.730754944121	9542
1	34877	318.796441647176	9576
1	34882	318.806415403512	9581
1	34887	318.831096184642	9594
1	34890	318.83839241145	9598
1	34897	318.853328405592	9606
1	34903	318.898595332669	9621
1	34906	318.90587108363	9621
1	34914	318.992190234013	9627
1	34918	319	9627
1	34921	319.021259547637	9629
1	34926	319.037255564231	9630
1	34931	319.056571215845	9631
1	34937	319.181343002872	9639
1	34942	319.192247451307	9640
1	34947	319.263133456479	9645
1	34952	319.272028636501	9645
1	34955	319.27928628295	9646
1	34962	319.295203300065	9647
1	34968	319.337708907255	9650
1	34973	319.416103674249	9655
1	34978	319.458005494769	9657
1	34982	319.5	9660
1	34986	319.53477787953	9662
1	34991	319.546083546203	9663
1	34996	319.738372985931	9676
1	35001	319.758737152379	9677
1	35006	319.785946347831	9679
1	35012	319.816596546426	9681
1	35018	319.925688583234	9688
1	35021	319.93291401676	9689
1	35028	320	9693
1	35031	320.063812701312	9697
1	35036	320.071925497195	9698
1	35041	320.094423782661	9699
1	35046	320.103380378357	9700
1	35051	320.136895595622	9702
1	35056	320.160735791053	9703
1	35061	320.181473900773	9705
1	35066	320.250262884825	9709
1	35069	320.25747269016	9710
1	35076	320.344927843337	9716
1	35081	320.370646156514	9717
1	35086	320.379533699873	9718
1	35091	320.5	9726
1	35094	320.544884118429	9729
1	35099	320.614581503304	9733
1	35105	320.700968607634	9739
1	35110	320.756509424248	9743
1	35115	320.828248928363	9747
1	35122	320.938926107766	9754
1	35125	320.946102650723	9755
1	35131	321	9758
1	35134	321.117598473066	9766
1	35137	321.124766197825	9767
1	35142	321.131933188713	9767
1	35149	321.139100179601	9768
1	35152	321.146266436767	9768
1	35159	321.161155533232	9769
1	35164	321.241560005089	9774
1	35169	321.368529663134	9783
1	35174	321.377376718525	9783
1	35179	321.384533314901	9784
1	35184	321.395352544646	9784
1	35189	321.437840629997	9787
1	35193	321.5	9791
1	35196	321.544709385843	9794
1	35201	321.583081429466	9797
1	35207	321.722896735396	9806
1	35212	321.731665305058	9806
1	35217	321.750836146503	9808
1	35222	321.829509621498	9813
1	35228	321.921820860217	9819
1	35231	321.92894989576	9819
1	35237	322	9824
1	35240	322.021494193239	9825
1	35243	322.028618875173	9826
1	35250	322.072087484138	9829
1	35255	322.165566488893	9835
1	35260	322.207312216774	9838
1	35265	322.228550831354	9839
1	35270	322.271432869794	9842
1	35278	322.478441619499	9855
1	35283	322.496367536818	9857
1	35284	322.5	9857
1	35341	323	9831
1	35345	323.017554794201	9819
1	35351	323.066122202797	9785
1	35356	323.084864721363	9772
1	35365	323.252316910194	9655
1	35371	323.284715143993	9632
1	35377	323.336702497435	9596
1	35383	323.393003212063	9557
1	35388	323.400620813324	9552
1	35394	323.460501684247	9510
1	35400	323.469291919187	9504
1	35405	323.487150042462	9491
1	35408	323.494525450744	9486
1	35413	323.5	9482
1	35477	324	9134
1	35532	324.5	8786
1	35635	325	8437
1	35694	325.5	8089
1	35764	326	8092
1	35798	326.5	8190
1	35859	327	8571
1	35937	327.5	9362
1	36006	328	9704
1	36090	328.5	9115
1	36149	329	9785
1	36218	329.5	9546
1	36239	330	9308
1	36303	330.5	9423
1	36341	331	9842
1	36387	331.5	8994
1	36436	332	8129
1	36495	332.5	8174
1	36547	333	8231
1	36593	333.5	8379
1	36633	334	8528
1	36707	334.5	8676
1	36769	335	8824
1	36836	335.5	8972
1	36892	336	9121
1	36923	336.5	9269
1	36981	337	9156
1	37026	337.5	9010
1	37085	338	8865
1	37123	338.5	8719
1	37186	339	9253
1	37260	339.5	9519
1	37264	339.597502580443	9532
1	37271	339.818635417826	9562
1	37277	339.854390290681	9567
1	37282	339.902015253716	9573
1	37287	339.917974048947	9575
1	37292	339.937453363637	9578
1	37295	339.944761778755	9579
1	37302	339.999854349895	9586
1	37303	340	9586
1	37309	340.084984328278	9598
1	37314	340.119213518002	9602
1	37319	340.144116278216	9606
1	37326	340.250618374806	9620
1	37332	340.358685310635	9635
1	37338	340.472099933274	9650
1	37344	340.5	9654
1	37402	341	9722
1	37406	341.078491475451	9732
1	37411	341.133962253287	9740
1	37417	341.223327280787	9752
1	37422	341.235813275082	9754
1	37427	341.258630928659	9757
1	37433	341.279055793279	9759
1	37436	341.286228659351	9760
1	37441	341.293400790499	9761
1	37450	341.461715496563	9671
1	37453	341.468953631192	9655
1	37460	341.488635581729	9612
1	37464	341.5	9588
1	37503	342	9064
1	37573	342.5	9128
1	37619	343	9192
1	37701	343.5	9256
1	37722	344	9320
1	37754	344.5	9384
1	37799	345	9448
1	37868	345.5	9512
1	37908	346	9576
1	37977	346.5	9558
1	38014	347	9120
1	38080	347.5	8982
1	38130	348	8973
1	38180	348.5	8964
1	38239	349	8955
1	38328	349.5	8874
1	38366	350	8692
1	38419	350.5	9336
1	38484	351	9065
1	38539	351.5	9155
1	38618	352	9245
1	38696	352.5	9334
1	38738	353	9424
1	38793	353.5	9514
1	38826	354	9603
1	38863	354.5	9693
1	38923	355	9220
1	38978	355.5	8409
1	39021	356	8461
1	39069	356.5	9113
1	39102	357	9765
1	39163	357.5	9803
1	39166	357.516841792202	9796
1	39172	357.692994791443	9718
1	39177	357.704133468097	9713
1	39182	357.74037044543	9697
1	39187	357.763320377961	9687
1	39190	357.770546557377	9684
1	39198	357.805901747717	9668
1	39203	357.853822655784	9647
1	39209	357.9039310358	9625
1	39215	357.990253058906	9556
1	39219	358	9526
1	39265	358.5	8619
1	39318	359	8723
1	39343	359.5	8828
1	39396	360	8932
1	39465	360.5	9037
1	39564	361	9141
1	39629	361.5	9245
1	39704	362	9350
1	39775	362.5	9336
1	39839	363	9278
1	39887	363.5	9219
1	39930	364	9161
1	39980	364.5	9103
1	40027	365	9044
1	40084	365.5	8986
1	40160	366	8927
1	40217	366.5	8869
1	40266	367	8811
1	40307	367.5	9760
1	40341	368	9838
1	40344	368.063895781591	9848
1	40349	368.090326485512	9852
1	40354	368.12231860408	9857
1	40359	368.197877315833	9869
1	40366	368.249441698045	9844
1	40371	368.286099931265	9791
1	40377	368.301650354056	9769
1	40382	368.355676519093	9692
1	40387	368.444247739117	9565
1	40394	368.486005514445	9505
1	40398	368.5	9485
1	40489	369	9052
1	40553	369.5	9476
1	40598	370	9723
1	40669	370.5	9635
1	40717	371	9546
1	40779	371.5	9458
1	40847	372	9370
1	40906	372.5	9281
1	40945	373	9193
1	41002	373.5	9104
1	41077	374	9016
1	41126	374.5	8928
1	41178	375	8839
1	41264	375.5	8751
1	41319	376	8663
1	41378	376.5	8940
1	41433	377	9062
1	41482	377.5	9072
1	41548	378	9081
1	41636	378.5	9247
1	41739	379	9500
1	41790	379.5	9304
1	41844	380	9002
1	41895	380.5	8983
1	41944	381	9013
1	41999	381.5	9044
1	42052	382	9075
1	42073	382.5	9106
1	42108	383	9137
1	42143	383.5	9168
1	42197	384	9198
1	42260	384.5	9229
1	42313	385	9260
1	42361	385.5	9291
1	42416	386	9322
1	42462	386.5	9352
1	42510	387	9383
1	42558	387.5	9414
1	42613	388	9445
1	42617	388.11637015432	9452
1	42622	388.125856044337	9453
[...]
22	28828	263.29113343546	2.440711567166
22	29122	265.731845002626	2.1600330872233
22	29345	267.891878089849	0.40166750676129
22	29365	268.29354559661	3.7625784364593
22	29741	272.056124033069	2.01154911814
22	29964	274.067673151209	0.49371199004339
22	30015	274.561385141252	0.60495919367035
22	30087	275.166344334922	0.55617086799599
22	30149	275.722515202918	0.041557998017274
22	30167	275.764073200935	0.34921255118441
22	30215	276.113285752119	1.7561371866686
22	30401	277.869422938788	1.6063656153841
22	30576	279.475788554172	0.3897450555697
22	30627	279.865533609742	2.358377995699
22	30822	282.223911605441	0.74263450538362
22	30912	282.966546110825	2.3355072378078
22	31215	285.302053348633	0.4365032620464
22	31279	285.738556610679	2.7438282430602
22	31536	288.482384853739	0.4349718264056
22	31568	288.917356680145	0.78528501411604
22	31650	289.702641694261	1.1612261493072
22	31748	290.863867843568	0.2349698493648
22	31780	291.098837692933	0.26988226514647
22	31812	291.368719958079	5.6759698809259
22	32434	297.044689839005	1.7035157868714
22	32611	298.748205625876	2.3796595963716
22	32848	301.127865222248	2.1561386156505
22	33050	303.284003837898	0.95256467338983
22	33151	304.236568511288	0.95838639767766
22	33288	305.194954908966	3.066711810683
22	33635	308.261666719649	0.52076410340507
22	33736	308.782430823054	1.3202918609578
22	33885	310.102722684012	1.0714087109999
22	34044	311.174131395012	0.57011273901757
22	34120	311.74424413403	3.6408858706895
22	34490	315.38513000472	1.0158600024636
22	34624	316.400990007184	2.53874163406
22	34912	318.939731641244	3.438702527906
22	35274	322.37843416915	1.6874174491752
22	35482	324.065851618325	2.550560421597
22	35808	326.616412039922	0.10196501539871
22	35824	326.718377055321	0.021135659556045
22	35830	326.739512714877	4.5071482336868
22	36371	331.246660948564	0.31617951457083
22	36394	331.562840463135	0.40791818333312
22	36433	331.970758646468	1.1947249345392
22	36560	333.165483581007	0.57392226714717
22	36619	333.739405848154	0.83519609368044
22	36714	334.574601941834	0.74348422087448
22	36820	335.318086162708	1.619468853425
22	36964	336.937555016133	0.058196040233825
22	36977	336.995751056367	8.6514258261669
22	37888	345.647176882534	8.4757869249944
22	38834	354.122963807528	1.0795799262797
22	38940	355.202543733808	0.48129154552561
22	38987	355.683835279334	1.6654924059519
22	39146	357.349327685286	0.93731772129801
22	39232	358.286645406584	4.9437864312747
22	39856	363.230431837859	1.0235284075902
22	39954	364.253960245449	1.5663133383537
22	40124	365.820273583803	3.8235655942849
22	40570	369.643839178088	5.5309620177218
22	41210	375.17480119581	0.071606510493639
22	41226	375.246407706304	1.6852045490939
22	41432	376.931612255398	2.9527022124677
22	41837	379.884314467866	0.53033542695495
22	41888	380.414649894821	0.81194578349414
22	41967	381.226595678315	4.1152070627947
22	42340	385.34180274111	0.33133236324526
22	42374	385.673135104355	3.3579709823507
22	42734	389.031106086706	2.142814696217
22	42947	391.173920782923	4.7353955880445
22	43582	395.909316370968	0.83959447623356
22	43686	396.748910847202	6.6989894188138
23	1398	12.816289886563	1.1156456673606
23	1554	13.931935553924	2.9972174468076
23	1847	16.929153000732	3.4619079589
23	2255	20.391060959632	1.3983798019308
23	2386	21.789440761563	2.4520415148137
23	2668	24.241482276377	2.870381052346
23	3022	27.111863328723	1.7049541577859
23	3164	28.816817486509	2.6075752472146
23	3426	31.424392733724	2.9176291096681
23	3834	34.342021843392	0.085392722716967
23	3835	34.427414566109	2.0826550453429
23	4094	36.510069611452	2.0647612581499
23	4305	38.574830869602	6.9022824762708
23	5042	45.477113345873	2.6396840020551
23	5344	48.116797347928	1.3438134009302
23	5469	49.460610748858	0.56422498577552
23	5530	50.024835734634	0.41313131418718
23	5577	50.437967048821	0.4784629692644
23	5641	50.916430018085	0.19499692970905
23	5653	51.111426947794	0.38502596049309
23	5704	51.496452908287	4.2403662647574
23	6198	55.736819173044	1.9524654428623
23	6379	57.689284615906	0.036877988317754
23	6381	57.726162604224	0.032482892600327
23	6382	57.758645496824	0.062134202692537
23	6383	57.820779699517	5.4678356409686
23	6982	63.288615340486	0.46398980475238
23	7016	63.752605145238	2.806319185498
23	7346	66.558924330736	3.7738377579891
23	7802	70.332762088725	1.1760287698041
23	7967	71.508790858529	0.016968509258035
23	7970	71.525759367787	0.36032891189518
23	8006	71.886088279682	5.6418946182346
23	8642	77.527982897917	1.0820070142072
23	8757	78.609989912124	2.2638304912623
23	9008	80.873820403386	3.3858472534381
23	9473	84.259667656824	0.46082399978017
23	9510	84.720491656604	1.0525542597689
23	9610	85.773045916373	0.088173462836073
23	9621	85.861219379209	0.62990856248766
23	9686	86.491127941697	1.1421552215011
23	9841	87.633283163198	2.4965969295231
23	10083	90.129880092721	1.9688391786607
23	10312	92.098719271382	0.39278374437637
23	10339	92.491503015758	3.043398367673
23	10666	95.534901383431	0.50489400649916
23	10698	96.03979538993	0.25575718203214
23	10744	96.295552571962	0.58878032799738
23	10811	96.884332899959	0.268849610301
23	10837	97.15318251026	0.99178949898014
23	10939	98.14497200924	0.70341105907372
23	10992	98.848383068314	0.44353673315952
23	11052	99.291919801474	2.5312341792648
23	11390	101.823153980739	1.4618020697894
23	11535	103.284956050528	1.4447485468314
23	11687	104.729704597359	0.78238662595799
23	11799	105.512091223317	1.2723809123831
23	11984	106.7844721357	1.5202195402045
23	12140	108.304691675904	6.052801629209
23	12677	114.357493305113	1.1477789478299
23	12816	115.505272252943	1.7087284672017
23	13033	117.214000720145	1.0655176145649
23	13181	118.27951833471	0.52414720657858
23	13218	118.803665541289	4.72727476004
23	13693	123.530940301329	0.79163884221441
23	13743	124.322579143543	0.018990622254802
23	13744	124.341569765798	2.7372139362936
23	14063	127.078783702092	0.14441161843169
23	14084	127.223195320524	0.38789052710095
23	14113	127.611085847625	1.8533935621945
23	14249	129.464479409819	4.5345279623234
23	14750	133.999007372142	2.1081987459075
23	14943	136.10720611805	1.5459356291571
23	15149	137.653141747207	1.9953671025707
23	15350	139.648508849778	0.34936622092758
23	15381	139.997875070706	2.9904149555249
23	15705	142.988290026231	0.55928271597019
23	15747	143.547572742201	0.43331508309471
23	15804	143.980887825296	0.12972875536348
23	15819	144.110616580659	0.45104150588879
23	15874	144.561658086548	3.3552377385218
23	16218	147.91689582507	3.2508893740642
23	16595	151.167785199134	0.97196992460968
23	16699	152.139755123744	0.63067568293131
23	16744	152.770430806675	1.3678278725537
23	16894	154.138258679229	0.29052269648729
23	16911	154.428781375716	0.72825136865637
23	16997	155.157032744372	0.33462815921733
23	17032	155.491660903589	2.7581213992101
23	17275	158.249782302799	4.8612637269095
23	17798	163.111046029709	2.6995538931646
23	18109	165.810599922874	1.5675387604531
23	18277	167.378138683327	1.5171573487414
23	18431	168.895296032068	5.5046070183616
23	19043	174.39990305043	7.2891603206948
23	19939	181.689063371125	0.13593824026026
23	19946	181.825001611385	0.76335074724486
23	20028	182.58835235863	0.21202475589188
23	20046	182.800377114522	1.1422931978135
23	20154	183.942670312335	0.10480552141096
23	20158	184.047475833746	1.7167718541126
23	20306	185.764247687859	0.26703342698387
23	20324	186.031281114843	2.8745906431541
23	20634	188.905871757997	0.577455521967
23	20712	189.483327279964	2.4688033751762
23	20990	191.95213065514	0.98086676138064
23	21089	192.932997416521	0.91034217074837
23	21229	193.843339587269	0.62010033189945
23	21283	194.463439919168	0.70253618653646
23	21361	195.165976105704	2.1810645023221
23	21599	197.347040608026	2.9672549446088
23	21946	200.314295552635	1.575625351714
23	22100	201.889920904349	5.9753488597394
23	22844	207.865269764088	0.55667597449967
23	22907	208.421945738588	0.0071596781372453
23	22908	208.429105416725	0.25757845063641
23	22948	208.686683867361	2.4092643487456
23	23216	211.095948216107	0.29456498640113
23	23275	211.390513202508	0.81262187609968
23	23354	212.203135078608	0.21403077763006
23	23377	212.417165856238	1.1179508404184
23	23526	213.535116696656	0.65753814425046
23	23583	214.192654840906	0.39963898926503
23	23641	214.592293830171	0.67090804524745
23	23729	215.263201875418	1.7109181080052
23	23879	216.974119983423	0.81187015643258
23	23992	217.785990139856	1.180106366472
23	24110	218.966096506328	0.77834253800311
23	24204	219.744439044331	1.5933571101794
23	24360	221.33779615451	0.17335776594573
23	24386	221.511153920456	1.3101005239499
23	24523	222.821254444406	2.2218934371512
23	24746	225.043147881557	1.7868739630011
23	24940	226.830021844558	6.8232222776438
23	25583	233.653244122202	1.29934828234
23	25718	234.952592404542	2.2516990776166
23	25944	237.204291482159	0.76583529053333
23	26018	237.970126772692	2.7445589212259
23	26336	240.714685693918	1.401376215436
23	26454	242.116061909354	1.0029112685528
23	26544	243.118973177907	0.078216258333925
23	26573	243.197189436241	1.1727404836625
23	26725	244.369929919903	1.2688986766883
23	26874	245.638828596591	1.1678146011649
23	27010	246.806643197756	2.0746522665053
23	27256	248.881295464261	2.4422579449471
23	27489	251.323553409208	2.7996233841522
23	27848	254.12317679336	7.0992788753375
23	28611	261.222455668698	3.6318582619784
23	28984	264.854313930676	2.7516322457306
23	29300	267.605946176407	1.387086470904
23	29441	268.993032647311	0.00093716124287715
23	29442	268.993969808554	0.024248803280448
23	29446	269.018218611834	0.46408266372505
23	29483	269.482301275559	1.3040421470192
23	29647	270.786343422578	4.6690898530367
23	30126	275.455433275615	6.300077029643
23	30773	281.755510305258	2.0126384609198
23	31005	283.768148766178	0.029940050626971
23	31006	283.798088816805	0.78872648008502
23	31138	284.58681529689	0.49351986567575
23	31198	285.080335162566	2.5518157585301
23	31450	287.632150921096	0.47894933620524
23	31483	288.111100257301	1.2697927322475
23	31611	289.380892989549	1.1319825671142
23	31738	290.512875556663	1.3738849515456
23	31860	291.886760508209	0.86961490917418
23	31937	292.756375417383	0.97538560662643
23	32029	293.731761024009	0.15700382929268
23	32058	293.888764853302	5.7035857222727
23	32684	299.592350575575	3.9842417244993
23	33090	303.576592300074	2.3070748411462
23	33387	305.88366714122	0.25539551555331
23	33407	306.139062656773	0.8752446243438
23	33511	307.014307281117	1.1506527050952
23	33621	308.164959986212	0.18648226431889
23	33651	308.351442250531	0.65271475142365
23	33762	309.004157001955	0.38466861159124
23	33809	309.388825613546	1.2840537138598
23	33964	310.672879327406	4.4657113787524
23	34476	315.138590706158	1.0597696600482
23	34600	316.198360366206	1.1366375389689
23	34732	317.334997905175	1.7666041937973
23	34935	319.101602098972	8.9792967001633
23	36024	328.080898799135	1.0021142983444
23	36161	329.083013097479	0.25006967146897
23	36202	329.333082768948	0.84375327233601
23	36256	330.176836041284	0.91895378252271
23	36349	331.095789823807	0.031694048159055
23	36357	331.127483871966	1.9467025437684
23	36559	333.074186415734	4.8524021785655
23	37084	337.926588594299	0.216440405294
23	37107	338.143028999593	2.6274140914431
23	37381	340.770443091036	0.50649724480807
23	37431	341.276940335844	1.3330366702845
23	37578	342.609977006128	5.22120365196
23	38108	347.831180658088	2.0650514574702
23	38360	349.896232115558	0.80848868383421
23	38456	350.704720799392	0.48096918525538
23	38497	351.185689984647	2.8457498894404
23	38833	354.031439874087	1.4262609296267
23	38977	355.457700803714	2.0044434574247
23	39152	357.462144261139	0.34350707179376
23	39196	357.805651332933	1.3841252581751
23	39320	359.189776591108	4.8775155667561
23	39945	364.067292157864	2.259350699992
23	40195	366.326642857856	0.16869846698754
23	40216	366.495341324844	1.9589950995315
23	40391	368.454336424376	0.55560900762528
23	40491	369.009945432001	1.7277403794276
23	40699	370.737685811429	0.71030684458678
23	40777	371.447992656016	2.5477746759897
23	41076	373.995767332006	0.43999284012272
23	41115	374.435760172129	0.14913749610228
23	41134	374.584897668231	0.92720418196023
23	41269	375.512101850191	0.44845314948711
23	41316	375.960554999678	0.83584021117957
23	41420	376.796395210858	0.11511721539568
23	41428	376.911512426254	0.81204060176827
23	41511	377.723553028022	1.5366707151561
23	41754	379.260223743178	8.1813305503691
23	42542	387.441554293547	0.274360623832
23	42585	387.715914917379	0.32172600561863
23	42615	388.037640922998	0.83271876442963
23	42711	388.870359687428	5.1348997164327
23	43352	394.005259403861	1.4783957368259
23	43533	395.483655140687	6.0912867207993
24	2101	19.157218708739	4.3839442278578
24	2582	23.541162936597	1.1103302582972
24	2720	24.651493194894	8.1672178227013
24	3619	32.818711017595	1.0611944014282
24	3755	33.879905419023	0.75159472910279
24	3859	34.631500148126	6.3328358283617
24	4590	40.964335976488	1.5676552134877
24	4763	42.531991189976	1.6172932818458
24	4942	44.149284471822	7.600372186709
24	5741	51.749656658531	1.5092843594483
24	5945	53.258941017979	8.9325052385208
24	6899	62.1914462565	1.1437035807693
24	6989	63.335149837269	1.1080484341739
24	7110	64.443198271443	0.78218735471738
24	7200	65.22538562616	0.28333856395359
24	7220	65.508724190114	0.020043916886749
24	7221	65.528768107001	3.006446731538
24	7591	68.535214838539	3.901597399278
24	8085	72.436812237817	0.21547768330454
24	8116	72.652289921122	2.1692281718886
24	8388	74.821518093011	4.9709644120662
24	8889	79.792482505077	5.6643676102719
24	9582	85.456850115349	2.8252790032845
24	9911	88.282129118633	0.082518736424354
24	9922	88.364647855057	0.8031863126365
24	9982	89.167834167693	1.0057613999263
24	10097	90.173595567619	1.0705073098798
24	10228	91.244102877499	0.0030838470345357
24	10229	91.247186724534	3.8636943405601
24	10621	95.110881065094	0.56539859096201
24	10676	95.676279656056	2.7746158545087
24	10940	98.450895510565	2.653677285127
24	11292	101.104572795692	1.0423527900242
24	11445	102.146925585716	0.18376474915951
24	11446	102.330690334876	0.35667326188759
24	11489	102.687363596764	1.6371976585134
24	11629	104.324561255277	0.90976785905515
24	11775	105.234329114332	1.7787967388516
24	11994	107.013125853184	2.6460367469817
24	12248	109.659162600166	0.46649287040051
24	12297	110.125655470567	0.045957162270828
24	12303	110.171612632838	0.87147927089492
24	12383	111.043091903733	0.10994785495312
24	12389	111.153039758686	0.36011693374631
24	12408	111.513156692432	4.4729615721159
24	12899	115.986118264548	0.92811046430501
24	12992	116.914228728853	0.31195243914705
24	13034	117.226181168	4.6722042672702
24	13513	121.89838543527	0.088927443362884
24	13529	121.987312878633	1.1899130729154
24	13669	123.177225951548	1.4369742787314
24	13772	124.614200230279	0.58484865381325
24	13875	125.199048884092	0.37431171550528
24	13933	125.573360599597	0.99978529032611
24	14027	126.573145889923	0.20619369976117
24	14049	126.779339589684	1.373247002408
24	14163	128.152586592092	1.2480347256187
24	14244	129.400621317711	0.47549326721203
24	14300	129.876114584923	3.5269874393432
24	14677	133.403102024266	0.78625348970948
24	14769	134.189355513975	0.21064312376745
24	14775	134.399998637742	3.770401397929
24	15229	138.170400035671	2.2690272328052
24	15424	140.439427268476	1.1191225575231
24	15590	141.558549825999	0.21098343179651
24	15612	141.769533257796	2.5474794210237
24	15856	144.31701267882	4.7515900979277
24	16336	149.068602776748	1.7010635086389
24	16502	150.769666285387	0.57199175815161
24	16621	151.341658043539	3.6784896511766
24	16968	155.020147694716	0.069753311440892
24	16979	155.089901006157	14.577784375094
24	18509	169.667685381251	0.33179611028359
24	18544	169.999481491535	0.94873985663859
24	18623	170.948221348174	2.2746606106965
24	18898	173.222881958871	0.42688685032984
24	18933	173.649768809201	0.12620713251697
24	18949	173.775975941718	4.2278109532856
24	19498	178.003786895004	3.8634226831709
24	19952	181.867209578175	0.93892006431866
24	20047	182.806129642494	0.68325521837817
24	20099	183.489384860872	1.6878315678711
24	20277	185.177216428743	0.026111098092842
24	20278	185.203327526836	1.1828718239782
24	20356	186.386199350814	2.0243008985026
24	20578	188.410500249317	1.4248006741863
24	20740	189.835300923503	0.76340122387088
24	20832	190.598702147374	1.1943108404189
24	20957	191.793012987793	1.1632239017044
24	21095	192.956236889497	0.29992328961226
24	21151	193.256160179109	1.6094090918737
24	21327	194.865569270983	3.6886456372951
24	21751	198.554214908278	1.1040117423465
24	21887	199.658226650625	3.7169795200772
24	22259	203.375206170702	0.61451719207303
24	22329	203.989723362775	0.13211957171486
24	22346	204.12184293449	1.7171935018585
24	22606	205.839036436349	3.8067060613623
24	23019	209.645742497711	2.7998685325513
24	23378	212.445611030262	3.6180439667051
24	23809	216.063654996967	3.2112007034283
24	24143	219.274855700395	0.48827769744425
24	24215	219.763133397839	2.8782216701007
24	24516	222.64135506794	1.8776394405333
24	24701	224.518994508473	1.2410488694648
24	24835	225.760043377938	0.98823631056273
24	24934	226.748279688501	0.71587064691961
24	24966	227.464150335421	1.7342904267747
24	25157	229.198440762196	1.456918939743
24	25287	230.655359701939	5.1599085288818
24	25835	235.815268230821	9.5760548194898
24	26854	245.391323050311	1.3218190334505
24	27004	246.713142083761	0.53745902894686
24	27105	247.250601112708	3.2060433098188
24	27384	250.456644422527	0.52103688676222
24	27449	250.977681309289	2.2469225801695
24	27692	253.224603889458	3.86954648309
24	28172	257.094150372548	1.4245788651638
24	28348	258.518729237712	0.99093683560383
24	28419	259.509666073316	1.3914561634973
24	28576	260.901122236813	2.1153964978391
24	28797	263.016518734652	1.24083054051
24	28921	264.257349275162	1.1268288338793
24	29071	265.384178109041	0.68128924045728
24	29153	266.065467349498	0.32297564454391
24	29179	266.388442994042	3.5650078191087
24	29547	269.953450813151	0.35421338798964
24	29574	270.307664201141	1.1156057405035
24	29700	271.423269941645	0.51774403657141
24	29737	271.941013978216	4.6317481536873
24	30262	276.572762131903	1.8295840832134
24	30445	278.402346215116	0.15167538982112
24	30465	278.554021604937	4.8682179129368
24	30962	283.422239517874	0.48559139551404
24	31025	283.907830913388	1.0683081024983
24	31178	284.976139015886	5.044229997303
24	31679	290.020369013189	6.1215365191254
24	32375	296.141905532314	0.68499679290709
24	32410	296.826902325221	0.91752074124615
24	32499	297.744423066467	1.5172870134111
24	32665	299.261710079878	0.91869959201365
24	32747	300.180409671892	3.6980880969511
24	33123	303.878497768843	1.6166802196077
24	33313	305.495177988451	1.8463551599642
24	33543	307.341533148415	2.9186160065138
24	33898	310.260149154929	1.1603661433922
24	34076	311.420515298321	2.9228440340692
24	34399	314.34335933239	10.505990162126
24	35597	324.849349494516	0.83579307732202
24	35732	325.685142571838	3.1181934663674
24	36122	328.803336038205	2.9634039670529
24	36426	331.766740005258	1.6471117961027
24	36584	333.413851801361	1.3139510217993
24	36730	334.72780282316	1.0231658344268
24	36863	335.750968657587	0.91373604798911
24	36947	336.664704705576	2.1339206610089
24	37151	338.798625366585	0.90744645147186
24	37269	339.706071818057	0.51058925138393
24	37324	340.216661069441	2.984868069099
24	37665	343.20152913854	5.178830005569
24	38169	348.380359144109	4.7900319283544
24	38755	353.170391072463	0.22043098645467
24	38787	353.390822058918	7.1534941936363
24	39482	360.544316252554	1.4736361898255
24	39706	362.017952442379	0.17628611665783
24	39749	362.194238559037	1.8364982686395
24	39937	364.030736827676	2.2103056545819
24	40184	366.241042482258	0.45401691889409
24	40247	366.695059401152	13.610814655659
24	41882	380.305874056811	8.1778892323085
24	42655	388.483763289119	0.42566884452991
24	42720	388.909432133649	1.2118466215092
24	42853	390.121278755158	0.35898185310681
24	42889	390.480260608265	7.6438395351774
24	43857	398.124100143442	5.3981850138071

