version 2
run Exponential-selection-capacity-exponential-interarrival-time-1-20201231-10:50:25-9608
attr configname Exponential-selection-capacity-exponential-interarrival-time
attr datetime 20201231-10:50:25
attr experiment Exponential-selection-capacity-exponential-interarrival-time
attr inifile aerocom.ini
attr iterationvars $0=1
attr iterationvarsf 1-
attr measurement $0=1
attr network Aerocom
attr processid 9608
attr repetition 0
attr replication #0
attr resultdir results
attr runnumber 1
attr seedset 0
param **.t 0.5s
param **.k 0.5s
param **.dataLink[*].s "70 byte"
param **.dataLink[*].X 1
param **.nDL 1
param **.dataLink[*].dimPoolMax 100
param **.dataLink[*].dimPoolMin 10
param **.tDistribution "\"exponential\""
param **.aircraft[*].m 1s
param **.aircraft[*].linkSelector.DLMaxCapacity 0
param **.aircraft[*].linkSelector.trasmitting false
param **.operationMode 0

vector 0 Aerocom.aircraft[0].dataLink[0] queueLength:vector ETV
attr "" ""
attr source computeQueueLength
vector 1 Aerocom.aircraft[0].dataLink[0] waitingTime:vector ETV
attr "" ""
attr source computeWaitingTime
vector 2 Aerocom.aircraft[0].dataLink[0] responseTime:vector ETV
attr "" ""
attr source computeResponseTime
0	148561	10000.335380543637	0
0	148567	10000.350007797999	0
0	148573	10000.910532644909	0
0	148580	10001.345078550119	0
0	148596	10003.136975116251	0
0	148600	10003.651005338807	1
0	148609	10004.956349512024	2
0	148637	10008.083893554735	0
0	148642	10008.557103249732	0
0	148648	10008.719418977318	0
0	148653	10008.743089940826	0
0	148666	10010.071747050249	0
0	148670	10010.465814139529	0
0	148681	10011.486674417187	0
0	148685	10011.745129989401	0
0	148692	10012.025006000663	0
0	148698	10012.418491832125	0
0	148710	10013.199310052749	0
0	148715	10013.219812920707	0
0	148722	10013.606152781937	0
0	148741	10016.338009453049	0
0	148745	10016.395793708217	0
0	148748	10016.425116136376	1
0	148751	10016.46048900533	2
0	148755	10016.619683326284	3
0	148758	10016.768484753509	4
0	148761	10016.805913357318	5
0	148764	10016.983012572289	6
0	148771	10017.379619118155	6
0	148775	10017.702236272822	7
0	148778	10017.919028378029	8
0	148784	10018.202135092698	9
0	148791	10018.437376837811	8
0	148795	10018.565758430108	9
0	148807	10019.344104127095	7
0	148812	10019.884900856577	8
0	148841	10021.056709175904	0
0	148860	10022.965324624397	0
0	148867	10023.055903931807	0
0	148870	10023.527048914831	1
0	148874	10023.690590995446	2
0	148877	10023.721124398588	3
0	148883	10024.04114435473	4
0	148897	10024.266920242066	0
0	148902	10024.326808691832	0
0	148907	10024.504648629187	0
0	148912	10024.748967175029	0
0	148917	10024.83521835821	0
0	148925	10025.015049519984	0
0	148928	10025.089525886106	1
0	148936	10026.364897473081	1
0	148940	10026.493240918855	2
0	148943	10026.603897358077	3
0	148953	10027.032119844905	2
0	148956	10027.670770589089	3
0	148960	10027.819376080443	4
0	148964	10027.940981107434	4
0	148982	10029.68629897302	1
0	148987	10030.177592209922	2
0	148990	10030.231166036916	3
0	148994	10030.667291873443	4
0	148997	10030.809855202539	5
0	149002	10031.116768456997	6
0	149005	10031.328998522567	7
0	149017	10032.177879888013	6
0	149020	10032.222551194523	7
0	149023	10032.348526705276	8
0	149032	10033.194868670316	7
0	149035	10033.519223553239	8
0	149038	10033.689029917897	9
0	149058	10035.709458343192	5
0	149075	10035.973469949791	0
0	149083	10036.07468827935	0
0	149102	10038.264962646802	0
0	149109	10038.659167026947	0
0	149119	10039.664637169177	0
0	149125	10039.838074293437	0
0	149130	10040.015928689858	1
0	149133	10040.082012601414	2
0	149136	10040.091536921994	3
0	149146	10041.045435252542	2
0	149149	10041.085035007554	3
0	149154	10041.516029618001	4
0	149162	10042.01236766496	5
0	149166	10042.444726148054	5
0	149171	10042.967165121356	5
0	149191	10043.361262031962	0
0	149196	10043.646852323787	0
0	149202	10043.748809697552	0
0	149208	10043.85162437286	0
0	149218	10044.27202258374	0
0	149223	10044.671748006917	0
0	149226	10044.719667121867	1
0	149238	10045.786851041624	1
0	149247	10046.360713238274	0
0	149256	10047.443934939081	1
0	149259	10047.470349108199	2
0	149263	10047.573408562247	3
0	149266	10047.678245352088	4
0	149269	10047.770568919416	5
0	149273	10047.944793214091	6
0	149281	10048.097474481759	5
0	149284	10048.260984857445	6
0	149287	10048.441170351849	7
0	149295	10049.277099140783	7
0	149298	10049.345498342156	8
0	149301	10049.515161943715	9
0	149306	10050.206277711323	10
0	149309	10050.244695502105	11
0	149312	10050.691037796612	12
0	149315	10050.72623974296	13
0	149322	10051.290184941447	14
0	149326	10051.37109953802	15
0	149329	10051.42619137509	16
0	149332	10051.67678738229	17
0	149335	10051.838316737382	18
0	149339	10051.947901362649	19
0	149348	10052.119225154176	18
0	149351	10052.253179494386	19
0	149354	10052.316875318086	20
0	149358	10052.418530864396	21
0	149363	10052.753142176355	22
0	149368	10052.930577174208	23
0	149381	10053.099931869119	20
0	149384	10053.451387950609	21
0	149435	10053.815010532347	0
0	149452	10055.591260429348	0
0	149456	10055.622685143652	0
0	149467	10056.407770772261	0
0	149474	10057.020455376093	1
0	149482	10057.115140971443	0
0	149493	10058.068334578148	0
0	149499	10058.880231527898	0
0	149506	10059.326241967866	0
0	149511	10059.945339575392	1
0	149520	10060.02161029202	0
0	149531	10061.20276940412	0
0	149537	10061.664147076553	0
0	149542	10061.949352389775	0
0	149550	10062.013240356758	0
0	149559	10063.022314570045	0
0	149564	10063.08938163842	0
0	149569	10063.688195211542	1
0	149578	10064.189690299549	1
0	149582	10064.349168378576	1
0	149585	10064.401596655099	2
0	149588	10064.648561368536	3
0	149591	10064.689648632971	4
0	149604	10065.601207435508	2
0	149608	10065.76606564451	3
0	149622	10066.590446903028	2
0	149626	10066.628678817902	3
0	149629	10066.76953277316	4
0	149646	10067.784645821977	0
0	149655	10068.689425971085	0
0	149667	10069.128219805141	0
0	149675	10070.585361157717	0
0	149679	10070.873084808621	1
0	149685	10071.924007970674	2
0	149692	10072.218195078563	3
0	149696	10072.458252787687	3
0	149712	10073.246347694878	0
0	149719	10073.635876510383	0
0	149725	10074.210439396255	0
0	149734	10075.145712959035	1
0	149739	10075.390512530002	1
0	149752	10076.020608526707	0
0	149758	10076.662948368379	0
0	149767	10077.280344704583	0
0	149784	10079.179188426658	0
0	149788	10079.347100675006	0
0	149791	10079.356229573114	1
0	149794	10079.82806296106	2
0	149812	10081.129526671668	0
0	149817	10081.157526805098	0
0	149821	10081.281865628795	1
0	149825	10081.458169665135	2
0	149834	10082.407711589725	2
0	149837	10082.521029447894	3
0	149846	10083.597271232435	4
0	149851	10083.841978288043	4
0	149864	10084.843254290273	3
0	149875	10085.513398005043	1
0	149889	10086.340014868116	0
0	149893	10086.490933178428	0
0	149899	10086.615322574644	0
0	149903	10086.713886951278	0
0	149906	10086.745182043387	1
0	149918	10087.66787508707	0
0	149923	10087.802939787006	0
0	149936	10089.036068398981	0
0	149941	10089.517644418989	0
0	149944	10089.813135234404	1
0	149955	10090.516863502247	1
0	149959	10090.657049777645	1
0	149964	10090.94656058544	2
0	149973	10091.091981377746	1
0	149986	10092.762390674705	0
0	149994	10093.031471859166	0
0	150010	10094.815690766774	0
0	150019	10095.626554661462	0
0	150026	10096.957734075922	1
0	150031	10097.36991091845	2
0	150037	10097.732295340435	3
0	150043	10098.162884149978	4
0	150047	10098.204686395097	4
0	150066	10100.11663095974	3
0	150072	10100.495721996625	2
0	150075	10100.536150914796	3
0	150089	10100.830332362237	0
0	150099	10101.152523626699	0
0	150105	10101.424678499761	0
0	150109	10101.751067344782	0
0	150121	10102.694318246157	0
0	150128	10103.098007235926	0
0	150133	10103.352430951048	0
0	150136	10103.444356458169	1
0	150140	10103.496272835238	2
0	150144	10103.588788733463	3
0	150165	10105.294338101729	0
0	150170	10105.562793348806	0
0	150183	10107.077828113045	0
0	150189	10107.54380607307	0
0	150200	10108.384368899104	0
0	150205	10108.564712190917	0
0	150213	10109.994782966311	0
0	150221	10110.338881896208	1
0	150230	10110.458566483244	0
0	150244	10112.620720001069	0
0	150249	10112.918095761753	0
0	150253	10112.933547590168	1
0	150256	10112.940998372053	2
0	150265	10113.254553843753	2
0	150268	10113.78380570361	3
0	150273	10114.104942148299	4
0	150277	10114.830837666194	5
0	150286	10115.419351200715	4
0	150300	10116.038213350592	2
0	150303	10116.193109108536	3
0	150306	10116.312755161533	4
0	150326	10117.117309324214	0
0	150330	10117.162014328358	0
0	150333	10117.418255671706	1
0	150346	10118.172836224822	0
0	150350	10118.222836121594	0
0	150353	10118.291515651993	1
0	150359	10118.788723552421	1
0	150370	10119.36892837094	0
0	150375	10119.382302217181	0
0	150386	10120.426354172064	0
0	150396	10121.057158999343	0
0	150407	10122.019994421308	0
0	150411	10122.026101720115	0
0	150415	10122.126955192044	1
0	150418	10122.580955538924	2
0	150427	10123.883013290586	2
0	150439	10124.906566217813	0
0	150449	10125.764379490951	0
0	150456	10126.363720280276	0
0	150460	10126.558874063007	1
0	150466	10127.048414461463	2
0	150470	10127.193630974758	2
0	150474	10127.476264067273	3
0	150490	10128.297840414797	0
0	150495	10128.502724227084	0
0	150500	10128.795328756156	0
0	150508	10129.026581080985	0
0	150515	10129.382954239692	0
0	150520	10129.617977190569	0
0	150525	10129.633167417254	0
0	150535	10130.010554922254	0
0	150541	10130.947371224213	0
0	150549	10131.024722518208	0
0	150555	10131.925237606702	0
0	150564	10132.993272908884	0
0	150572	10133.59179983661	0
0	150578	10134.083383222271	1
0	150582	10134.502426864827	1
0	150585	10134.736977862595	2
0	150596	10135.494295987523	1
0	150613	10137.508916291444	0
0	150617	10137.551376576787	0
0	150629	10138.581304039106	0
0	150636	10139.018976741361	0
0	150641	10139.485715771449	1
0	150646	10139.645163337099	1
0	150649	10139.877570943847	2
0	150659	10140.681087480594	3
0	150663	10140.91138656377	3
0	150676	10141.648236821745	1
0	150679	10141.682754717858	2
0	150682	10141.82870592066	3
0	150691	10142.038377127565	2
0	150694	10142.376420761893	3
0	150699	10142.517392862966	3
0	150715	10143.974366433536	0
0	150725	10144.443316611289	0
0	150729	10144.444475096776	0
0	150740	10145.081249950018	0
0	150747	10145.940390534495	0
0	150754	10146.113346224655	0
0	150758	10146.692153756067	1
0	150769	10147.087145269586	1
0	150772	10147.459234588972	2
0	150791	10148.232653133217	0
0	150796	10148.541194261095	0
0	150804	10149.054671085715	0
0	150809	10149.059259437972	0
0	150814	10149.739887290903	0
0	150824	10150.466558992244	0
0	150828	10150.589560218907	0
0	150831	10150.706841799505	1
0	150839	10151.210839107148	1
0	150845	10152.035441053958	2
0	150848	10152.195395163574	3
0	150851	10152.508278037103	4
0	150855	10152.639448048961	5
0	150863	10153.23142048128	6
0	150867	10153.389418238007	6
0	150870	10153.40905330999	7
0	150875	10153.637321088114	7
0	150878	10153.901882552504	8
0	150888	10154.220209660098	7
0	150896	10154.876913679116	7
0	150902	10155.007116704653	8
0	150918	10156.410864517946	5
0	150925	10156.626227898551	4
0	150928	10156.751100517469	5
0	150944	10157.885176500531	1
0	150950	10158.037092031226	2
0	150953	10158.109389301745	3
0	150957	10158.641741759261	4
0	150960	10158.763238940267	5
0	150963	10158.879191193033	6
0	150966	10158.910497486356	7
0	150973	10159.128180580319	8
0	150979	10159.745192384302	9
0	150989	10160.280623532882	9
0	150993	10160.657508317998	9
0	150996	10160.757479940908	10
0	151005	10161.079011574238	9
0	151012	10161.398787139555	8
0	151017	10161.416297802976	8
0	151028	10162.013656931196	6
0	151042	10163.640166273753	4
0	151046	10163.891218660106	5
0	151057	10164.820416334192	4
0	151060	10164.897120746077	5
0	151073	10165.755560219831	3
0	151090	10166.914810535724	0
0	151102	10167.955401979084	0
0	151106	10167.993052454148	0
0	151119	10168.743400621367	0
0	151131	10169.343139827059	0
0	151135	10169.418224384215	0
0	151140	10169.755378398475	0
0	151158	10171.534171224704	0
0	151167	10172.500220663703	0
0	151178	10173.85714268913	0
0	151182	10173.87219587607	0
0	151189	10174.467686515435	0
0	151193	10174.724842955394	1
0	151196	10174.897506089369	2
0	151202	10175.302730217896	3
0	151205	10175.303286080704	4
0	151208	10175.596554628366	5
0	151211	10175.929186184484	6
0	151218	10176.766899769325	7
0	151224	10177.218591307874	8
0	151229	10177.804922418865	9
0	151266	10180.36136610941	0
0	151277	10181.37883578222	0
0	151281	10181.450144939591	0
0	151285	10181.621283632792	1
0	151288	10181.667791091824	2
0	151296	10182.247324429718	2
0	151301	10182.525164835292	3
0	151305	10182.608371444112	3
0	151315	10183.303434721342	3
0	151332	10185.263838314032	1
0	151337	10185.471649317798	1
0	151355	10187.636234938794	0
0	151365	10188.179122840695	0
0	151372	10188.312206037488	0
0	151381	10189.413297195	0
0	151389	10189.708193860342	0
0	151400	10190.496103549811	0
0	151406	10190.736613915664	0
0	151409	10190.790181550375	1
0	151413	10190.972322135035	2
0	151421	10191.267685414544	2
0	151436	10192.569467675273	0
0	151440	10192.588834272397	0
0	151450	10193.297131971719	0
0	151455	10193.389477147403	0
0	151463	10194.102173332698	0
0	151469	10194.83855940771	0
0	151480	10196.125547766556	0
0	151484	10196.221184394892	0
0	151491	10196.6991737447	0
0	151498	10197.10831816448	0
0	151502	10197.146132685319	1
0	151508	10197.623360723898	0
0	151511	10197.726384869742	1
0	151514	10197.811563383667	2
0	151517	10197.971457634361	3
0	151535	10199.202964657896	0
0	151540	10199.303253751109	0
0	151544	10199.333395201314	0
0	151547	10199.357372272976	1
0	151559	10200.6154755191	0
0	151564	10200.842436600719	1
0	151567	10200.902842567928	2
0	151575	10201.009749823773	2
0	151592	10202.165411311702	0
0	151596	10202.410576277968	0
0	151600	10202.639922936829	1
0	151605	10202.868641027574	2
0	151614	10203.64858597717	2
0	151617	10203.819180393753	3
0	151623	10204.069814148455	4
0	151629	10204.663666926139	4
0	151648	10205.324213365441	0
0	151655	10205.59965780853	0
0	151667	10206.556251175848	0
0	151672	10206.963235369476	0
0	151683	10207.33591780003	0
0	151689	10207.668068776708	0
0	151695	10207.92526775103	0
0	151698	10207.939663613954	1
0	151703	10208.190623516197	2
0	151707	10208.409004049017	3
0	151711	10208.438132136978	3
0	151723	10209.340459748315	2
0	151726	10209.347923028466	3
0	151735	10210.428427706143	3
0	151741	10211.108877759178	4
0	151754	10211.12386049343	0
0	151760	10211.392273762755	0
0	151773	10212.430546689284	0
0	151777	10212.512449372535	0
0	151780	10212.563018365698	1
0	151790	10213.589075515207	1
0	151800	10214.069123133756	0
0	151805	10214.576863470325	0
0	151821	10216.775957840839	0
0	151829	10217.097664612926	0
0	151847	10219.173833040449	0
0	151851	10219.394626645887	0
0	151860	10220.03945573741	0
0	151863	10220.250822152548	1
0	151866	10220.79415587309	2
0	151872	10221.026302086065	3
0	151876	10221.149444438671	3
0	151889	10222.237660083427	1
0	151893	10222.853211691661	2
0	151902	10223.091105149365	2
0	151906	10223.877298247537	2
0	151909	10223.887050964335	3
0	151927	10224.222068017734	0
0	151931	10224.300356146532	0
0	151946	10225.11697325925	0
0	151951	10225.329456450336	0
0	151961	10226.261437804578	0
0	151966	10226.352409939597	0
0	151970	10226.636008108449	0
0	151980	10227.501758499733	0
0	151995	10229.148801650489	0
0	152015	10232.483804785186	0
0	152024	10233.049090394706	0
0	152028	10233.252445600171	1
0	152031	10233.544001738633	2
0	152035	10233.875976880666	3
0	152041	10234.057306783838	4
0	152044	10234.081701406659	5
0	152047	10234.199951741637	6
0	152050	10234.308075504584	7
0	152054	10234.702214542201	8
0	152057	10234.832287235392	9
0	152063	10235.327547741499	10
0	152068	10235.572636965567	11
0	152095	10235.808316908516	0
0	152108	10236.683865487823	0
0	152116	10237.355023858732	0
0	152119	10237.609778992707	1
0	152125	10238.220206602708	2
0	152128	10238.896498329962	3
0	152133	10239.191757562582	4
0	152136	10239.567770977992	5
0	152143	10240.059187111164	6
0	152147	10240.603987427484	7
0	152152	10240.898950407163	8
0	152157	10241.008790049061	9
0	152160	10241.049226567972	10
0	152163	10241.069019095705	11
0	152171	10241.765453534862	12
0	152175	10241.907079788159	12
0	152184	10242.93733592975	11
0	152187	10242.990701469641	12
0	152192	10243.143554440699	13
0	152197	10243.750007714031	14
0	152233	10244.31256193776	0
0	152239	10244.733647231435	0
0	152245	10244.830831388324	0
0	152253	10245.620015325931	0
0	152257	10245.700991445224	0
0	152261	10245.958572616928	1
0	152268	10246.09478900505	1
0	152272	10246.24567420717	2
0	152277	10246.706485546241	3
0	152293	10247.693273212305	0
0	152300	10247.89979588928	0
0	152311	10248.316610685637	0
0	152315	10248.403671277642	0
0	152318	10248.723852634179	1
0	152321	10248.793489578236	2
0	152331	10249.903272577683	2
0	152342	10250.906794347596	0
0	152348	10251.120505989567	1
0	152351	10251.133796908712	2
0	152354	10251.396683806752	3
0	152357	10251.661416064363	4
0	152361	10251.810244951355	5
0	152370	10252.062224954409	5
0	152373	10252.133414460322	6
0	152378	10252.834264443284	7
0	152401	10253.257292515838	0
0	152407	10253.674986293213	0
0	152416	10254.946310074198	0
0	152426	10255.504408714591	0
0	152435	10256.027611707953	0
0	152440	10256.899376745758	0
0	152449	10257.444491145949	0
0	152456	10258.14509898338	0
0	152466	10259.122557791735	1
0	152469	10259.214356475287	2
0	152474	10259.816544662344	3
0	152480	10260.206474997159	3
0	152483	10260.442229725339	4
0	152488	10260.710491780303	4
0	152494	10261.523593376014	5
0	152514	10262.690362867621	0
0	152519	10262.756555960114	0
0	152528	10263.042511842145	0
0	152538	10264.068304172843	0
0	152549	10265.377521194637	0
0	152553	10265.733321260229	0
0	152556	10265.764708445868	1
0	152565	10266.159340885512	1
0	152568	10266.226561386582	2
0	152583	10267.506434263367	0
0	152588	10267.524922082581	0
0	152597	10268.098844181892	0
0	152603	10268.691781212679	0
0	152607	10268.732477618217	0
0	152614	10269.012316691159	0
0	152618	10269.158098842251	1
0	152628	10270.676792759659	1
0	152637	10271.2970532504	0
0	152642	10271.562302336081	1
0	152645	10271.611175484625	2
0	152650	10271.780151612581	3
0	152654	10271.93158111791	3
0	152661	10272.371554021669	3
0	152664	10272.524604068143	4
0	152673	10273.425319210099	4
0	152679	10274.040321163286	5
0	152683	10274.687065215171	5
0	152689	10274.713566954418	5
0	152700	10275.322294333519	4
0	152703	10275.533839962712	5
0	152706	10275.561692572019	6
0	152710	10275.839580464905	7
0	152723	10276.205533387266	5
0	152738	10276.243592193448	0
0	152746	10276.782877235011	0
0	152756	10277.089492428167	0
0	152769	10279.011959971611	0
0	152775	10279.390971089847	0
0	152781	10279.870865810798	0
0	152796	10281.637976910967	0
0	152800	10281.975935681993	0
0	152810	10283.0097640408	0
0	152813	10283.466022414608	1
0	152825	10284.79961946735	0
0	152834	10285.528561477746	0
0	152838	10285.686417081169	1
0	152842	10285.829168690827	1
0	152845	10285.910526540941	2
0	152854	10286.60125022843	2
0	152867	10287.109986282423	0
0	152873	10287.402471869703	0
0	152878	10287.514997608184	0
0	152884	10287.532714042555	0
0	152889	10287.97424126384	0
0	152897	10288.044833613798	0
0	152901	10288.153740524546	0
0	152906	10288.643473108803	1
0	152909	10288.677154510926	2
0	152912	10288.80581374294	3
0	152922	10289.103755196363	2
0	152940	10290.34937372312	0
0	152945	10290.855292675188	0
0	152957	10291.585284516381	0
0	152961	10291.634716826602	0
0	152976	10293.287605637609	0
0	152979	10293.686546300155	1
0	152982	10293.691836594535	2
0	152988	10293.978927804187	3
0	152995	10294.964345452561	3
0	153005	10295.111693349767	1
0	153018	10296.304174718419	1
0	153021	10296.398472043669	2
0	153041	10298.070164403678	0
0	153046	10298.203663765762	0
0	153052	10298.633097774381	0
0	153066	10299.767728768478	0
0	153076	10300.056160712607	0
0	153080	10300.072355395718	0
0	153084	10300.342404998296	1
0	153088	10300.422186946729	2
0	153091	10300.744030120618	3
0	153100	10301.109111947492	3
0	153105	10301.662903636431	3
0	153124	10302.23676432616	0
0	153136	10303.0338638471	0
0	153141	10303.297951213824	0
0	153145	10303.339263702368	0
0	153149	10303.47671759786	1
0	153155	10303.633734559291	2
0	153158	10303.794076523481	3
0	153169	10304.458149630318	2
0	153172	10304.982202310545	3
0	153181	10305.293014211429	2
0	153187	10305.916979724091	2
0	153195	10306.045840210351	2
0	153215	10307.80390264009	0
0	153223	10308.110792349461	0
0	153226	10308.718659546524	1
0	153232	10309.580361555289	2
0	153238	10309.854379138658	1
0	153242	10309.965525873191	2
0	153250	10310.106402056499	2
0	153259	10311.35118465086	3
0	153263	10311.733655312409	4
0	153269	10312.123205188947	5
0	153276	10312.771553036602	4
0	153288	10313.055299636833	2
0	153291	10313.117283711853	3
0	153294	10313.2212279882	4
0	153297	10313.252064210501	5
0	153300	10313.41002234357	6
0	153303	10313.536925697092	7
0	153306	10313.7527000657	8
0	153314	10314.024415207733	8
0	153338	10314.797054824376	0
0	153350	10315.347123171815	0
0	153357	10315.677270202625	0
0	153361	10315.681863046372	0
0	153370	10316.618057331675	0
0	153377	10317.004754908196	1
0	153381	10317.912215383579	2
0	153387	10318.084076884062	3
0	153399	10320.164152671082	4
0	153402	10320.368148444139	5
0	153410	10321.212885857468	6
0	153413	10321.496786664024	7
0	153416	10321.514629864067	8
0	153420	10321.822745891804	9
0	153425	10321.971801526203	10
0	153431	10322.22870033548	11
0	153434	10322.372841331856	12
0	153437	10322.418566351044	13
0	153440	10322.465726597564	14
0	153444	10322.55239385504	15
0	153447	10322.660528472067	16
0	153455	10323.000505141339	16
0	153459	10323.583659336911	17
0	153464	10323.82799312931	17
0	153467	10323.902671408948	18
0	153494	10326.759841525563	14
0	153502	10327.35800214749	13
0	153516	10328.09201366033	11
0	153543	10328.218020473545	0
0	153548	10328.655176691366	0
0	153564	10330.333080841251	0
0	153569	10330.729934967248	0
0	153577	10331.596382936552	0
0	153581	10331.622027475187	0
0	153584	10331.85804454952	1
0	153595	10332.422680614835	0
0	153607	10333.277355804349	0
0	153613	10333.694055128895	0
0	153616	10333.980939358068	1
0	153626	10334.343671410205	0
0	153637	10335.565648240201	0
0	153648	10336.292816399021	0
0	153655	10336.787989808849	0
0	153666	10337.551896647371	0
0	153670	10337.694947124151	0
0	153675	10337.817060918785	1
0	153678	10337.844602525239	2
0	153681	10337.946670951793	3
0	153688	10338.112525498761	3
0	153692	10338.651440184482	4
0	153703	10339.422221037821	3
0	153710	10339.623058947075	2
0	153720	10340.284205988647	2
0	153732	10340.58748815735	0
0	153741	10341.152454193543	0
0	153745	10341.175150261229	0
0	153756	10342.840335983637	0
0	153764	10343.115239577329	0
0	153768	10343.859494886061	1
0	153780	10345.281850677849	2
0	153794	10346.538999716815	0
0	153804	10347.120844946506	0
0	153809	10347.569220458894	0
0	153819	10348.424970996339	0
0	153823	10348.544383030882	1
0	153837	10349.038175331637	0
0	153842	10349.30748009833	0
0	153848	10349.747349111874	0
0	153857	10350.059810887796	0
0	153873	10351.827546073992	0
0	153878	10351.95660734473	0
0	153885	10352.292999193181	0
0	153888	10352.354041526067	1
0	153896	10353.135084874319	2
0	153909	10354.329653927544	0
0	153915	10354.461253357998	0
0	153920	10354.748028778457	0
0	153925	10354.801799741491	0
0	153933	10355.692737987072	0
0	153938	10355.792773249685	0
0	153949	10356.957975308982	0
0	153956	10357.167481624848	0
0	153965	10358.121457275064	1
0	153970	10358.430183020394	1
0	153973	10358.540631521629	2
0	153983	10359.641490513356	1
0	153989	10359.969514332455	0
0	153998	10360.418525552981	0
0	154001	10360.641400118196	1
0	154014	10361.15586407411	0
0	154020	10361.666506021306	0
0	154026	10361.909531101421	0
0	154035	10362.215268271157	0
0	154040	10362.769024058158	0
0	154051	10363.538430633188	0
0	154056	10363.797285220724	0
0	154060	10363.844513977525	0
0	154067	10364.312848863375	0
0	154070	10364.36197704102	1
0	154074	10364.745707706965	2
0	154082	10365.073639129136	2
0	154085	10365.257656265715	3
0	154092	10365.615257915883	4
0	154105	10365.658910432259	0
0	154119	10366.572474867449	0
0	154124	10366.63787324781	0
0	154132	10367.299688389904	0
0	154137	10367.727410451491	0
0	154145	10368.184708583722	0
0	154148	10368.222669544286	1
0	154154	10368.934740096264	2
0	154159	10369.236444133984	3
0	154162	10369.272610368579	4
0	154170	10370.419229506093	4
0	154173	10370.650591531957	5
0	154183	10371.087493477103	4
0	154188	10371.785446610102	5
0	154209	10373.66430335356	2
0	154218	10373.940285200354	0
0	154227	10374.110040197152	0
0	154243	10376.060337488475	0
0	154250	10376.585124895891	0
0	154256	10376.873398369622	0
0	154271	10378.238200490215	0
0	154275	10378.433754364468	0
0	154278	10378.648687764269	1
0	154294	10380.098263179766	0
0	154300	10380.479598148968	1
0	154311	10381.276647080493	0
0	154320	10382.215889336895	0
0	154324	10382.682059106936	1
0	154332	10382.883294916156	0
0	154342	10383.370635024154	0
0	154346	10383.375131953537	0
0	154349	10383.648548984049	1
0	154369	10385.962539061817	0
0	154377	10386.136036997475	0
0	154382	10386.396578169502	0
0	154388	10386.763009486842	0
0	154393	10386.820981537751	0
0	154402	10387.080529314426	0
0	154410	10387.746484432621	0
0	154419	10388.017949811422	0
0	154424	10388.214515175499	0
0	154441	10390.645836639694	0
0	154446	10390.738072611143	0
0	154454	10391.325055343525	0
0	154457	10391.388115102249	1
0	154465	10392.540993040762	1
0	154475	10393.138951728631	0
0	154480	10393.744911467638	1
0	154501	10396.244923493025	0
0	154506	10396.982294408806	0
0	154514	10397.231014449214	0
0	154518	10397.353523004236	1
0	154527	10398.074931253506	0
0	154536	10398.843775136482	0
0	154546	10399.374780797351	0
0	154550	10399.56534100155	0
0	154554	10399.838534165756	1
0	154563	10400.063574504575	0
0	154566	10400.088660382632	1
0	154570	10400.288939873042	2
0	154574	10400.552272545873	3
0	154578	10400.569204993313	3
0	154581	10400.584056224734	4
0	154594	10401.052979718453	3
0	154605	10402.573780283883	2
0	154620	10404.170904453686	1
0	154623	10404.434202625804	2
0	154626	10404.518032696317	3
0	154631	10404.950879256514	4
0	154655	10406.152595210423	0
0	154667	10407.565462426807	0
0	154671	10407.711222068665	0
0	154676	10408.140262011219	1
0	154681	10408.180099626291	1
0	154684	10408.274669359038	2
0	154687	10408.365753246976	3
0	154700	10409.880021311332	1
0	154712	10410.216148724997	0
0	154716	10410.320239172602	0
0	154722	10410.579231562564	0
0	154726	10410.647798297881	0
0	154729	10410.781843980195	1
0	154735	10411.006906392112	2
0	154739	10411.339358327495	3
0	154747	10411.624691119156	1
0	154750	10411.755538917853	2
0	154768	10413.649833801025	0
0	154772	10413.748676545751	0
0	154778	10414.152456274806	1
0	154787	10414.66724663019	0
0	154795	10415.486784539614	1
0	154805	10416.04054218254	1
0	154815	10416.773175749793	0
0	154819	10416.914787436736	0
0	154824	10417.172058905663	1
0	154827	10417.207834502532	2
0	154832	10417.246625703737	2
0	154845	10418.626487597677	2
0	154855	10418.690251594515	0
0	154863	10419.209729045669	0
0	154881	10421.67085372807	0
0	154889	10422.222055955403	0
0	154896	10423.204916940876	1
0	154900	10423.476195901899	1
0	154906	10423.688304512475	1
0	154909	10423.967219080011	2
0	154921	10424.861442405293	1
0	154930	10425.27843882046	0
0	154940	10426.429068769241	0
0	154944	10426.446134892825	0
0	154954	10427.730681979042	0
0	154962	10428.278189031759	0
0	154974	10429.318734441964	0
0	154985	10430.144613252313	0
0	154989	10430.247645800423	0
0	155001	10431.390286852963	0
0	155010	10432.178929649401	0
0	155016	10432.900974546813	0
0	155019	10432.929595897349	1
0	155027	10433.224752064992	1
0	155037	10434.046060840696	0
0	155043	10434.671558532877	0
0	155050	10435.101642171765	0
0	155054	10435.758286715163	1
0	155065	10436.422179177326	0
0	155069	10436.660230202829	1
0	155076	10437.059157002979	1
0	155080	10437.465339993154	2
0	155091	10437.920393674028	0
0	155101	10438.491009274254	0
0	155106	10438.509871305873	0
0	155114	10439.115149278994	0
0	155119	10439.131129849503	0
0	155125	10439.279909471245	0
0	155134	10440.115913600932	0
0	155141	10440.455888311802	0
0	155146	10440.627877943858	0
0	155152	10440.842890877235	0
0	155162	10441.665978799538	0
0	155171	10442.456601647456	0
0	155181	10443.064462639634	0
0	155185	10443.087534569362	0
0	155188	10443.503679040918	1
0	155211	10446.404536123333	0
0	155216	10446.459980082848	0
0	155219	10446.543617807581	1
0	155222	10446.57777993089	2
0	155225	10446.856681432311	3
0	155232	10447.09892057048	3
0	155235	10447.134284983046	4
0	155252	10448.431100727054	3
0	155255	10448.541242303604	4
0	155259	10448.669504138348	5
0	155262	10448.714090370703	6
0	155267	10448.98838937499	7
0	155281	10449.953072312284	6
0	155292	10450.466247610118	5
0	155295	10450.483442481685	6
0	155298	10450.826728764276	7
0	155301	10450.850118906842	8
0	155304	10450.862827020472	9
0	155319	10452.189410402227	8
0	155342	10452.783602047097	0
0	155354	10454.711579379658	0
0	155364	10455.964589429234	0
0	155373	10456.264265098249	0
0	155376	10456.722028482776	1
0	155379	10456.83155947877	2
0	155386	10457.265801289362	3
0	155390	10457.772120360508	3
0	155402	10458.67392984531	2
0	155406	10458.783020068465	2
0	155419	10459.677417221565	0
0	155424	10459.875236218551	0
0	155429	10459.978598588897	0
0	155440	10460.915066704983	0
0	155449	10461.18941625753	0
0	155453	10461.223767758613	0
0	155464	10462.079142684654	0
0	155470	10462.795536284288	0
0	155480	10463.459235837204	0
0	155483	10463.795025070526	1
0	155491	10464.725219960329	2
0	155505	10465.124903571362	0
0	155510	10465.194214768138	0
0	155521	10466.07378867328	0
0	155527	10466.363222310939	0
0	155531	10466.6709095801	0
0	155539	10467.288045210741	0
0	155542	10467.34391773133	1
0	155547	10467.998883094417	2
0	155558	10468.510781149901	0
0	155561	10468.548037821634	1
0	155573	10469.653576861109	0
0	155583	10470.275870722754	0
0	155587	10470.341072230333	0
0	155594	10470.833127491774	0
0	155599	10470.834800510375	0
0	155607	10471.049356569961	0
0	155614	10471.64622173514	0
0	155618	10471.827502569226	0
0	155622	10471.968921146867	1
0	155625	10471.983640369674	2
0	155628	10471.987063562289	3
0	155635	10472.235845383362	3
0	155638	10472.428652704121	4
0	155641	10472.612011813458	5
0	155650	10473.575211051413	6
0	155668	10473.85758924183	0
0	155679	10474.407507130439	0
0	155688	10475.024286239806	0
0	155693	10475.254419689838	1
0	155696	10475.333028494578	2
0	155700	10475.414762800903	3
0	155704	10475.741689916472	3
0	155707	10475.810438278386	4
0	155718	10476.597602262377	3
0	155729	10478.936772340104	3
0	155735	10479.079703930945	4
0	155745	10480.097452231738	4
0	155755	10481.09384341007	5
0	155778	10482.460938840198	0
0	155787	10483.812167725572	0
0	155796	10484.237481735394	0
0	155799	10484.297346475858	1
0	155808	10485.901780741569	1
0	155811	10485.963260475658	2
0	155817	10486.300017623057	3
0	155831	10486.818120952115	0
0	155836	10486.839348353958	0
0	155844	10487.203414384776	0
0	155849	10487.329906909629	0
0	155862	10488.499415161642	0
0	155866	10488.529337497296	0
0	155874	10489.338960184791	0
0	155879	10489.922869491972	0
0	155884	10490.271339234898	1
0	155887	10490.485308980098	2
0	155891	10490.520890794198	3
0	155896	10490.539503149393	3
0	155899	10490.591556287208	4
0	155915	10492.479278650979	2
0	155922	10492.776827220797	1
0	155931	10493.127217476136	2
0	155942	10493.308831097187	0
0	155952	10493.935709719069	0
0	155963	10495.369198407958	0
0	155966	10495.511227281401	1
0	155971	10496.059303668204	2
0	155976	10496.370722761834	3
0	155980	10496.528441674206	4
0	155988	10497.122720962178	5
0	155992	10497.34349406584	5
0	155996	10497.508531081398	6
0	155999	10497.550647460071	7
0	156002	10497.619332513188	8
0	156005	10497.762965625372	9
0	156008	10497.783923319886	10
0	156034	10497.975851994441	0
0	156042	10498.036635779077	0
0	156048	10498.55017478493	0
0	156053	10498.727297620269	0
0	156058	10498.822003175941	0
0	156063	10498.95132131366	0
0	156073	10499.516657239965	0
0	156077	10499.945209327888	0
0	156084	10500.00779220408	0
0	156087	10500.139759268198	1
0	156096	10501.262512583213	1
0	156099	10501.328139211811	2
0	156104	10501.820472928229	2
0	156111	10502.153888126197	2
0	156116	10502.584638644765	3
0	156120	10502.610590039444	3
0	156123	10502.714269240384	4
0	156130	10503.350056216542	4
0	156143	10504.025270181893	3
0	156146	10504.350322139228	4
0	156149	10504.484950020764	5
0	156163	10505.458222544211	4
0	156174	10506.25807332221	3
0	156189	10507.944917650499	0
0	156199	10508.699611190572	0
0	156211	10509.869119878438	0
0	156226	10511.270815004211	0
0	156232	10511.775337199617	0
0	156242	10512.538559821578	0
0	156246	10512.687241892369	0
0	156251	10512.914263870401	0
0	156258	10513.399250462142	0
0	156266	10513.756591411532	0
0	156272	10513.940029588525	0
0	156280	10514.43294249982	0
0	156287	10514.743458304239	0
0	156292	10514.899116604135	0
0	156305	10515.992140909108	0
0	156313	10516.796988931393	0
0	156321	10517.130073874276	1
0	156326	10517.329640004723	1
0	156330	10517.710015239693	2
0	156333	10517.779724486021	3
0	156352	10518.442998386685	0
0	156356	10518.473681593665	0
0	156366	10519.50217918695	0
0	156374	10520.041597814288	0
0	156380	10520.468254361007	0
0	156385	10520.62200044249	0
0	156393	10521.017592360478	0
0	156398	10521.971432458916	0
0	156406	10522.280964860337	0
0	156416	10523.021117612029	0
0	156421	10523.712912844057	0
0	156424	10523.774114159476	1
0	156434	10524.115789054176	0
0	156437	10524.520945636021	1
0	156446	10525.387668231669	1
0	156463	10527.098989525065	0
0	156467	10527.397915140121	0
0	156476	10528.281636666965	0
0	156482	10528.996487233105	0
0	156494	10530.02528640461	0
0	156500	10530.461749773469	0
0	156505	10530.614168432051	0
0	156509	10530.744364530463	0
0	156520	10531.390727209506	0
0	156529	10532.174303990765	1
0	156534	10532.381972062529	1
0	156539	10532.62290267063	1
0	156550	10533.503215271137	0
0	156556	10533.63211010423	0
0	156561	10533.686265990137	0
0	156566	10533.8419335969	0
0	156577	10534.419706050721	0
0	156587	10535.013102079968	0
0	156592	10535.530786079217	0
0	156596	10535.937222731892	1
0	156604	10536.088666710249	1
0	156613	10536.442984677183	0
0	156618	10536.943040285448	0
0	156631	10538.742259852389	0
0	156642	10539.951150977081	0
0	156650	10540.324264157575	0
0	156656	10540.801735545257	0
0	156661	10540.816170310902	0
0	156666	10540.917867127629	0
0	156675	10541.526350812295	0
0	156681	10541.709109497961	0
0	156689	10542.100192338912	0
0	156693	10542.316784034328	0
0	156696	10542.457680583544	1
0	156699	10542.644060496653	2
0	156718	10544.407620750448	0
0	156723	10544.984272457569	0
0	156732	10545.105823390686	0
0	156745	10546.603717288166	0
0	156754	10547.349778968996	0
0	156759	10547.7002780946	1
0	156763	10547.836595295204	1
0	156771	10548.617531574584	1
0	156774	10548.658266938396	2
0	156788	10550.102918725406	2
0	156793	10550.912560639471	2
0	156798	10551.147118181929	3
0	156814	10551.776098405907	0
0	156819	10551.799790296779	0
0	156828	10552.349699453067	0
0	156836	10553.049493822179	0
0	156841	10554.067355833167	1
0	156845	10554.73135032384	2
0	156854	10554.732129163166	0
0	156859	10554.912794602551	0
0	156870	10555.656902419745	0
0	156875	10555.81366217606	0
0	156882	10556.206798059007	0
0	156888	10556.814362387125	1
0	156892	10556.99604519757	1
0	156900	10557.081086652442	1
0	156903	10557.419782134065	2
0	156913	10558.346966371482	1
0	156920	10558.668902387144	2
0	156932	10559.654210404083	1
0	156947	10560.724124047093	0
0	156955	10561.14188099754	0
0	156959	10561.379873665874	1
0	156963	10561.50333889219	2
0	156972	10562.981689305492	2
0	156985	10564.469684094129	1
0	156988	10564.492075494713	2
0	156991	10564.626199285902	3
0	157003	10565.835468112855	2
0	157011	10566.02027659144	1
0	157014	10566.461645080485	2
0	157019	10566.75319276587	2
0	157032	10567.638159794541	1
0	157038	10568.005905322176	2
0	157042	10568.441143070036	2
0	157052	10568.745102647549	0
0	157057	10568.766011005426	0
0	157062	10568.766114493291	0
0	157068	10568.850368624356	0
0	157081	10569.84133173459	0
0	157092	10571.044202945333	0
0	157096	10571.056215404001	0
0	157102	10571.946243323901	0
0	157117	10573.012878046762	0
0	157132	10574.924072537056	0
0	157140	10575.789360742112	0
0	157145	10575.966290889945	0
0	157157	10577.34621885946	0
0	157162	10577.386378014202	0
0	157167	10577.574790197393	0
0	157183	10579.166541770092	0
0	157187	10579.265588615261	0
0	157190	10579.381079801855	1
0	157193	10579.408987622436	2
0	157196	10579.5287906838	3
0	157206	10580.110754555263	2
0	157210	10580.241363025855	3
0	157213	10580.326495600029	4
0	157216	10580.542791508068	5
0	157220	10580.634651663667	6
0	157230	10581.052637825342	6
0	157234	10581.183575414837	6
0	157240	10581.546105890927	7
0	157245	10581.70939985634	8
0	157249	10581.742426830297	9
0	157252	10581.862569514517	10
0	157261	10582.000858922592	9
0	157266	10582.468362871361	10
0	157271	10582.619904950366	10
0	157274	10582.977719909908	11
0	157288	10583.52189399687	8
0	157300	10584.047786865624	7
0	157329	10585.551497561281	0
0	157339	10586.065176046002	0
0	157344	10586.752196249299	1
0	157359	10587.718244396706	0
0	157368	10588.289796213904	0
0	157371	10588.308505244186	1
0	157375	10588.385386672073	2
0	157379	10588.793283293741	3
0	157388	10589.91233361521	2
0	157393	10590.156166227702	3
0	157396	10590.358431462833	4
0	157404	10591.137007600229	5
0	157408	10591.216682238399	5
0	157411	10591.346427026134	6
0	157414	10591.359849003287	7
0	157420	10591.82931112918	7
0	157424	10591.929323545748	8
0	157432	10592.086400517494	8
0	157462	10593.05573180709	0
0	157466	10593.189456663333	0
0	157469	10593.336652405866	1
0	157472	10593.535279600442	2
0	157476	10593.706230894429	3
0	157479	10593.739074211777	4
0	157489	10594.200215940078	4
0	157495	10594.886187317201	4
0	157506	10595.514584072104	2
0	157520	10596.580204412489	0
0	157538	10598.533922915171	0
0	157542	10598.542488418053	0
0	157549	10599.366308702302	0
0	157553	10599.894721154028	1
0	157562	10600.366881754627	0
0	157569	10600.780679156524	0
0	157572	10600.815487037275	1
0	157585	10601.994503728912	0
0	157592	10602.126666406524	0
0	157597	10602.704829838634	1
0	157603	10603.045397286741	2
0	157607	10603.316542511897	3
0	157610	10603.518148797172	4
0	157613	10603.949756115815	5
0	157619	10604.179139794335	6
0	157623	10604.247172517489	6
0	157626	10604.274985345321	7
0	157630	10604.363443512661	8
0	157640	10605.023485884535	7
0	157644	10605.150182216397	8
0	157648	10605.388383122082	9
0	157652	10605.718326458766	10
0	157665	10606.692934076426	10
0	157670	10606.848118899158	10
0	157690	10608.069908093328	6
0	157693	10608.122890880148	7
0	157699	10608.378844307008	7
0	157704	10608.744277599708	8
0	157713	10609.186658385773	9
0	157718	10609.785040758491	10
0	157724	10610.038789106052	10
0	157727	10610.089494980046	11
0	157731	10610.462275746289	12
0	157747	10611.115006940003	8
0	157753	10611.257404155532	8
0	157756	10611.269380534388	9
0	157761	10611.8650923139	9
0	157769	10612.465316200703	9
0	157777	10612.794416626564	8
0	157806	10614.324128228274	0
0	157812	10614.671859774406	0
0	157822	10614.976968124088	0
0	157830	10615.127964907275	0
0	157835	10615.162045847886	0
0	157841	10615.854946696107	0
0	157848	10616.021064745412	0
0	157853	10616.563299790321	1
0	157856	10616.643098925735	2
0	157864	10617.661469957984	3
0	157876	10618.008980999202	1
0	157881	10618.744571047946	2
0	157884	10618.844286660647	3
0	157901	10620.03070851808	1
0	157919	10622.841583657896	0
0	157927	10623.538248070437	0
0	157930	10623.81023748895	1
0	157946	10625.528273872841	0
0	157951	10625.773247417216	0
0	157954	10625.808116299807	1
0	157957	10625.841273858915	2
0	157973	10627.136584499089	0
0	157980	10627.59297074381	0
0	157983	10627.638312465967	1
0	157986	10627.704680218863	2
0	157996	10628.102036274684	1
0	158000	10628.253766873463	2
0	158010	10629.035505862382	0
0	158016	10629.213228891499	0
0	158021	10629.382954219028	0
0	158025	10629.43458889821	1
0	158028	10629.782106154882	2
0	158036	10630.668125271726	3
0	158053	10631.182525072529	0
0	158058	10631.241089263656	0
0	158066	10631.801589411036	0
0	158074	10632.131450478203	0
0	158085	10633.276328401441	1
0	158090	10633.446913834835	1
0	158099	10634.038463259195	0
0	158102	10634.173413523604	1
0	158106	10634.277028434049	2
0	158111	10634.403376318759	2
0	158114	10634.428449296099	3
0	158117	10634.982575163306	4
0	158125	10635.455542322099	4
0	158134	10636.244990617064	4
0	158139	10636.727964334151	5
0	158146	10636.990860668042	4
0	158166	10638.174679037092	0
0	158170	10638.366429320388	1
0	158178	10638.46786574074	0
0	158186	10639.124453875676	0
0	158196	10640.021147175098	0
0	158200	10640.177930430855	0
0	158204	10640.613721103251	1
0	158220	10641.635606732471	0
0	158229	10642.227533548812	0
0	158234	10642.401516845186	0
0	158241	10642.508218783067	0
0	158245	10642.534525107344	0
0	158252	10643.034332126346	0
0	158255	10643.352094597057	1
0	158260	10643.839018439354	2
0	158266	10644.017288311055	3
0	158271	10644.563840004227	3
0	158277	10644.877476433579	3
0	158289	10645.120723630795	1
0	158293	10645.293397903443	2
0	158296	10645.469529472926	3
0	158321	10647.641495626428	0
0	158325	10647.672411037756	0
0	158337	10649.507657113382	0
0	158342	10649.578037747935	0
0	158352	10650.058597086596	0
0	158357	10650.21177311418	0
0	158372	10651.396991640917	0
0	158377	10651.532022310908	0
0	158382	10651.719686201077	0
0	158387	10651.933365116003	1
0	158397	10652.708697083621	0
0	158401	10652.728748932469	0
0	158410	10653.452945590826	0
0	158416	10653.920538518996	0
0	158424	10654.140034866069	0
0	158431	10654.821229530707	0
0	158441	10655.460347392671	0
0	158445	10655.786053262015	0
0	158451	10655.835200159495	0
0	158460	10656.074061403855	0
0	158465	10656.206422698813	0
0	158469	10656.441877856314	1
0	158474	10656.559676849935	1
0	158483	10657.193818877322	1
0	158488	10657.685263014129	1
0	158491	10657.818954150517	2
0	158494	10657.931628499714	3
0	158501	10658.203801093938	3
0	158504	10658.370529528047	4
0	158508	10658.458802416815	5
0	158514	10658.617776428416	5
0	158522	10659.041979504172	5
0	158548	10660.477406683047	0
0	158552	10660.62995658668	0
0	158566	10662.108209824537	0
0	158569	10662.387757909504	1
0	158581	10663.278602856273	0
0	158588	10663.742656298432	0
0	158596	10664.042960312532	0
0	158607	10665.215289438279	0
0	158611	10665.552026393959	0
0	158621	10666.154308191316	0
0	158628	10666.38897195869	0
0	158632	10666.88548157997	0
0	158642	10667.19434333299	0
0	158647	10667.545962058944	0
0	158653	10667.622248602723	0
0	158657	10667.715388008548	0
0	158660	10667.873418122846	1
0	158675	10668.964824900221	0
0	158682	10669.067170638344	0
0	158693	10669.852352514244	0
0	158706	10670.916274250408	0
0	158714	10671.625196708755	0
0	158722	10672.210744917698	0
0	158725	10672.520382788109	1
0	158728	10672.591934032789	2
0	158732	10672.74433448448	3
0	158745	10673.025753296383	0
0	158750	10673.04088931734	0
0	158756	10673.237886851548	0
0	158761	10673.425638256564	0
0	158766	10673.433166088606	0
0	158772	10673.587685131128	0
0	158781	10674.260122222559	0
0	158789	10675.438616063707	1
0	158797	10675.728712680675	0
0	158802	10675.956861745799	0
0	158810	10676.181303648594	0
0	158818	10677.040209603526	0
0	158823	10677.140748447581	0
0	158828	10677.150722651141	0
0	158835	10677.485720544165	0
0	158853	10679.452226878752	0
0	158858	10679.610706129093	0
0	158862	10679.795733067884	1
0	158869	10680.150144112075	1
0	158873	10680.349832664851	2
0	158876	10680.493936002364	3
0	158880	10680.871661875185	4
0	158886	10681.044773371975	5
0	158892	10681.404260703017	5
0	158897	10681.68109511911	5
0	158900	10681.707718722926	6
0	158910	10682.179692898197	5
0	158914	10682.401728826479	5
0	158932	10683.326093546276	1
0	158935	10683.375059673442	2
0	158940	10683.538378305026	2
0	158943	10683.700206186968	3
0	158948	10683.898489286716	4
0	158951	10683.995847343083	5
0	158961	10684.513208440826	4
0	158965	10684.528159680157	4
0	158989	10687.162089294501	0
0	158995	10687.863736480837	1
0	158999	10687.994916521848	1
0	159014	10688.528258929024	0
0	159018	10688.652985740261	0
0	159029	10689.241879158442	0
0	159040	10690.100127482194	0
0	159046	10690.957651926482	0
0	159055	10691.757568068617	0
0	159065	10692.64408821576	0
0	159070	10692.843590088711	0
0	159078	10693.461801809179	0
0	159081	10693.469231777425	1
0	159084	10693.484815166343	2
0	159088	10693.765452036035	3
0	159100	10694.176899098116	1
0	159104	10694.568964486376	2
0	159115	10695.278157952177	1
0	159123	10695.992037963805	0
0	159131	10696.465698025212	0
0	159141	10697.006497531393	0
0	159145	10697.23078232871	0
0	159151	10697.788346049965	0
0	159154	10697.888972686415	1
0	159164	10698.702215451304	0
0	159177	10699.791355838285	0
0	159185	10700.53689864908	0
0	159190	10700.794523291666	0
0	159198	10701.115041622642	0
0	159201	10701.241473164916	1
0	159205	10701.296834249549	2
0	159214	10702.631822403241	2
0	159221	10703.473729604198	2
0	159224	10703.531575235703	3
0	159232	10703.991943042133	4
0	159237	10704.019547655773	5
0	159240	10704.03633301279	6
0	159254	10705.038632167623	5
0	159261	10705.81537617693	4
0	159268	10706.265909478223	4
0	159271	10706.515802398475	5
0	159275	10706.621429599002	6
0	159294	10706.809950716001	0
0	159299	10706.976612943091	0
0	159308	10707.338465984213	0
0	159317	10708.220824406228	0
0	159322	10708.777525461447	0
0	159334	10710.109251475655	0
0	159348	10711.403361972581	0
0	159351	10711.834441118405	1
0	159354	10711.847622230096	2
0	159362	10712.095513400126	3
0	159366	10712.27719885638	4
0	159370	10712.781406681557	4
0	159373	10712.802049452031	5
0	159385	10713.428152256652	4
0	159394	10714.354325449127	4
0	159407	10715.491399497925	4
0	159414	10716.099317298516	5
0	159421	10716.279864026643	5
0	159425	10716.43761010835	6
0	159443	10718.123813284751	5
0	159459	10718.857314288806	0
0	159463	10718.865627781485	0
0	159471	10719.367342224225	0
0	159477	10719.926557082481	0
0	159483	10720.466153906782	1
0	159488	10720.872104208751	1
0	159498	10721.566111561171	0
0	159501	10721.640137214895	1
0	159504	10721.727895966125	2
0	159512	10722.381219605056	3
0	159516	10722.839940071816	3
0	159519	10722.841462936947	4
0	159527	10723.205998255273	4
0	159530	10723.291160502916	5
0	159534	10723.499280873931	6
0	159539	10723.76238753427	7
0	159550	10724.418210756289	6
0	159553	10724.462273947783	7
0	159556	10724.747066698092	8
0	159576	10726.032975664202	4
0	159580	10726.350479034806	5
0	159595	10726.359912436026	0
0	159603	10726.477289318274	0
0	159615	10727.684997284405	0
0	159624	10728.356526642744	0
0	159631	10728.622000683049	0
0	159634	10728.627329197957	1
0	159637	10728.869798863319	2
0	159646	10729.213612732236	2
0	159649	10729.294124704377	3
0	159652	10729.679835691661	4
0	159658	10730.74924821569	5
0	159662	10730.904951887523	6
0	159668	10731.138464864602	7
0	159672	10731.230740899943	7
0	159679	10731.551466761995	7
0	159683	10731.765292400323	8
0	159709	10733.410765189298	2
0	159712	10733.466716141369	3
0	159715	10733.493280871558	4
0	159725	10734.13188064572	3
0	159731	10734.753580715259	3
0	159742	10735.188681793337	1
0	159747	10735.442432502082	1
0	159750	10735.463765686561	2
0	159766	10736.758070263674	0
0	159779	10738.295780609041	0
0	159789	10739.814233964372	0
0	159799	10740.552917495306	0
0	159808	10741.685426639641	0
0	159821	10743.517808685415	0
0	159826	10743.569676824268	0
0	159836	10744.084364821531	0
0	159840	10744.459199269136	0
0	159851	10745.883836737639	0
0	159855	10745.943170759345	0
0	159865	10746.755837352942	0
0	159868	10746.77264540949	1
0	159873	10746.957210370114	1
0	159880	10747.23173227782	1
0	159886	10747.933244838685	2
0	159889	10747.937104468706	3
0	159894	10748.001934782353	4
0	159898	10748.268835370377	5
0	159901	10748.621798979477	6
0	159904	10748.722157118045	7
0	159912	10749.919354444577	8
0	159921	10750.717697971233	7
0	159933	10751.089518770282	5
0	159943	10752.053465852445	4
0	159955	10753.51948723273	2
0	159958	10753.653255646632	3
0	159963	10753.89370383385	4
0	159973	10754.048833300848	2
0	159977	10754.420163359804	3
0	159980	10754.427471467482	4
0	159986	10754.848870180263	5
0	160007	10755.076998585663	0
0	160019	10756.692696533337	0
0	160028	10757.592866623429	0
0	160037	10758.207822305597	0
0	160046	10759.074046036436	1
0	160053	10759.525751947666	0
0	160058	10759.750011590941	0
0	160061	10759.783995299096	1
0	160064	10759.798274321323	2
0	160067	10759.924468362054	3
0	160074	10760.138199816823	3
0	160077	10760.204031462662	4
0	160088	10761.194590833314	4
0	160102	10761.552449153416	0
0	160109	10761.62587313848	0
0	160122	10763.971099788656	0
0	160131	10764.640974973981	0
0	160140	10765.549681047714	1
0	160147	10765.677617963668	0
0	160157	10766.013149491846	0
0	160168	10767.088172064148	0
0	160173	10767.449350268132	0
0	160176	10767.641828471963	1
0	160179	10767.662921711723	2
0	160189	10768.745625668755	1
0	160196	10769.647407587435	2
0	160202	10770.046630231054	3
0	160209	10770.287126938232	2
0	160213	10770.925870277108	3
0	160216	10770.939890884204	4
0	160225	10771.888236745787	4
0	160240	10773.178699599472	2
0	160257	10774.662393914569	1
0	160260	10774.95219314514	2
0	160268	10775.09674915316	2
0	160272	10775.658055577592	3
0	160275	10775.678587141959	4
0	160283	10776.066902986364	4
0	160289	10776.268543833635	4
0	160299	10777.048044765907	3
0	160318	10778.210676993453	0
0	160331	10779.850776628921	0
0	160343	10781.440059197885	0
0	160350	10781.925123323306	0
0	160359	10782.900187817215	0
0	160364	10782.962357063293	0
0	160369	10782.978184919985	0
0	160378	10783.421820420183	0
0	160388	10784.219508733013	0
0	160391	10784.23561939267	1
0	160396	10784.738890540979	2
0	160405	10784.950329318778	0
0	160415	10785.5048757298	0
0	160419	10785.543309768091	0
0	160422	10785.879608583942	1
0	160429	10786.047841986151	1
0	160432	10786.116496047342	2
0	160443	10787.26147285579	2
0	160447	10787.400286384193	3
0	160453	10787.519317887795	3
0	160460	10788.296802658299	3
0	160472	10789.059603850965	3
0	160478	10789.565756479086	3
0	160482	10789.818171150657	4
0	160488	10790.238133773175	5
0	160491	10790.468522253057	6
0	160503	10792.163552161448	7
0	160527	10793.093765918267	0
0	160532	10793.293912325562	0
0	160537	10793.559991915814	0
0	160541	10793.56921500724	0
0	160556	10795.589339846689	0
0	160564	10796.037863709514	0
0	160567	10796.148716571545	1
0	160570	10796.463658739768	2
0	160579	10797.521670635602	2
0	160584	10797.617111662238	2
0	160587	10797.77521221382	3
0	160595	10798.69752634754	3
0	160606	10799.102720575577	2
0	160609	10799.391777006198	3
0	160612	10799.455595684023	4
0	160615	10799.585524491399	5
0	160620	10799.609527957146	5
0	160625	10799.787835731318	5
0	160630	10800.021054620789	6
0	160637	10800.956785021943	7
0	160643	10801.055573804843	8
0	160672	10802.711407309981	0
0	160680	10803.046321170069	0
0	160685	10803.095525891785	0
0	160690	10803.234716643915	0
0	160701	10804.27689287776	0
0	160705	10804.296717610925	0
0	160710	10804.516559615905	1
0	160719	10805.150003985747	1
0	160729	10805.378917381316	0
0	160734	10805.582000277511	0
0	160742	10806.04054082977	0
0	160747	10806.135094286853	0
0	160752	10806.767691411823	0
0	160765	10808.24569269543	0
0	160774	10808.997724108891	0
0	160781	10809.332985793641	0
0	160785	10809.445406099016	1
0	160788	10809.859269659176	2
0	160794	10810.047454318217	3
0	160807	10811.685489015443	1
0	160817	10812.011996688727	0
0	160822	10812.074865836502	0
0	160825	10812.174392778071	1
0	160829	10812.275003917401	2
0	160833	10812.396117365266	3
0	160849	10813.015407747971	1
0	160853	10813.236462081146	1
0	160857	10813.647848880907	2
0	160860	10813.825812884223	3
0	160879	10814.094117017331	0
0	160886	10814.608997113903	0
0	160891	10814.66847618185	0
0	160901	10815.330404629985	0
0	160905	10815.768891666539	0
0	160916	10816.544554284948	0
0	160925	10816.835755718516	0
0	160932	10817.105228924449	0
0	160937	10817.661178357034	0
0	160940	10817.724018096549	1
0	160945	10817.902656874984	1
0	160961	10819.288438053964	0
0	160964	10819.545946969252	1
0	160967	10819.756092768612	2
0	160978	10819.940189294339	0
0	160983	10819.958208363995	0
0	160992	10820.070362975766	0
0	160998	10820.331668223149	0
0	161004	10820.686320659143	0
0	161014	10821.918934200576	0
0	161027	10822.802385958848	0
0	161031	10822.941897745386	0
0	161034	10822.959417273396	1
0	161048	10824.440962408335	0
0	161054	10824.773124746566	0
0	161064	10825.274963058206	0
0	161069	10825.972330877851	1
0	161085	10827.279785773861	0
0	161090	10827.782420939676	0
0	161099	10828.464697619968	0
0	161112	10830.947453408655	0
0	161119	10831.354780995676	0
0	161122	10831.384252108287	1
0	161125	10831.444742411803	2
0	161128	10831.532957235759	3
0	161132	10831.686963773898	4
0	161135	10831.879559594628	5
0	161142	10832.334759374741	6
0	161145	10832.337882711867	7
0	161149	10832.521021568972	8
0	161152	10832.887450430733	9
0	161164	10834.425449538961	10
0	161170	10834.937157444479	10
0	161179	10835.178018775467	9
0	161183	10835.449294228778	10
0	161187	10835.786325610102	10
0	161192	10836.056401583166	11
0	161195	10836.345047404358	12
0	161208	10837.393967535712	12
0	161240	10837.489074845002	0
0	161246	10837.962323426075	0
0	161257	10838.852141082324	0
0	161265	10839.005065672905	0
0	161277	10840.049382063192	0
0	161281	10840.241953012308	0
0	161284	10840.397368405733	1
0	161287	10840.509455841379	2
0	161304	10841.315832650634	0
0	161309	10841.469532242318	0
0	161318	10842.407797685047	0
0	161323	10842.962374831177	0
0	161332	10843.155763899087	0
0	161336	10843.663493467714	1
0	161349	10844.780599347232	0
0	161355	10844.93226575222	0
0	161367	10846.077469394658	0
0	161373	10846.465442423792	0
0	161382	10847.082439498869	0
0	161390	10848.067756450996	0
0	161396	10848.760954387021	0
0	161400	10848.917201008509	1
0	161408	10849.221428077943	1
0	161412	10849.23403375271	1
0	161416	10849.622250463021	2
0	161419	10849.783791993178	3
0	161422	10849.895603225515	4
0	161440	10851.308370605762	3
0	161455	10852.491740393604	0
0	161458	10852.502103269737	1
0	161461	10852.873911787745	2
0	161464	10852.938711444877	3
0	161478	10853.45746578274	0
0	161481	10853.552879140879	1
0	161502	10856.000230987582	0
0	161508	10856.612843821274	0
0	161522	10858.490873986125	0
0	161533	10860.415080968504	0
0	161543	10861.554398213549	0
0	161548	10861.998139488176	1
0	161555	10862.139800497311	1
0	161558	10862.186131212668	2
0	161563	10862.744214746303	3
0	161571	10863.050456299526	2
0	161574	10863.454063753335	3
0	161582	10864.218155115101	3
0	161585	10864.378995866643	4
0	161588	10864.477666013014	5
0	161591	10864.74755073169	6
0	161594	10864.922925825929	7
0	161599	10865.741561214814	8
0	161609	10866.292230964383	8
0	161616	10866.947135510956	8
0	161623	10867.13837713794	8
0	161627	10867.183167085445	9
0	161636	10867.835723216851	8
0	161639	10867.909233185726	9
0	161647	10868.701965539382	9
0	161650	10868.702015216268	10
0	161661	10869.590298877396	10
0	161665	10869.620344888447	10
0	161672	10870.021008781807	10
0	161681	10870.787838850973	9
0	161688	10871.02588585443	9
0	161697	10871.689340641089	9
0	161707	10872.171114467669	8
0	161730	10872.279581181907	0
0	161734	10872.38264510225	0
0	161738	10872.393848864003	1
0	161743	10872.508282053912	1
0	161754	10873.294543683584	0
0	161764	10874.148356831443	0
0	161771	10874.325090964116	0
0	161782	10875.174985106414	0
0	161786	10875.469766128395	1
0	161794	10875.730930755138	0
0	161797	10875.808005139904	1
0	161803	10876.123003211887	2
0	161807	10876.183913268222	3
0	161813	10876.464756204257	3
0	161828	10876.782397485553	0
0	161836	10877.083487776482	0
0	161840	10877.233928969867	1
0	161849	10877.363179168116	0
0	161853	10877.745750684816	0
0	161858	10877.868885445386	0
0	161863	10878.166164250327	1
0	161879	10879.060384224897	0
0	161883	10879.095534200966	0
0	161888	10879.645463841191	0
0	161897	10880.173443260151	0
0	161917	10882.0337058829	0
0	161927	10883.423488506139	0
0	161931	10883.510799064987	1
0	161940	10884.12224014304	1
0	161953	10885.407115855125	0
0	161963	10886.189554348766	0
0	161969	10886.914869389332	0
0	161976	10887.044783160762	0
0	161981	10887.419721025331	1
0	161986	10888.023315158262	2
0	161991	10888.552893306264	3
0	162012	10890.896661917218	1
0	162029	10891.805590651001	0
0	162037	10891.975385751206	0
0	162044	10892.350379601977	0
0	162047	10892.41159431401	1
0	162052	10892.932779850126	2
0	162058	10893.559670933478	2
0	162080	10895.440827904669	0
0	162089	10896.240746584617	0
0	162095	10896.877758769059	1
0	162102	10897.119189253078	1
0	162105	10897.160051556259	2
0	162116	10897.877952008432	1
0	162123	10898.50876087001	2
0	162127	10898.601774518855	2
0	162138	10900.424223608305	1
0	162144	10900.737538593103	2
0	162154	10900.985285008189	0
0	162160	10901.437738000278	0
0	162165	10901.459937696453	0
0	162168	10901.511094796453	1
0	162175	10902.16083322077	1
0	162179	10902.593342337867	2
0	162184	10902.77825572439	2
0	162187	10902.917109477649	3
0	162207	10904.167173824826	0
0	162221	10905.608455323181	0
0	162225	10905.709231236862	0
0	162234	10906.263905590568	0
0	162237	10906.500244115016	1
0	162240	10906.570903221735	2
0	162243	10906.582884134138	3
0	162250	10907.198276329953	4
0	162263	10907.487028405546	0
0	162272	10908.316692383039	0
0	162277	10908.422055200385	0
0	162282	10908.480695476377	0
0	162288	10908.935219385754	0
0	162292	10908.938208314821	0
0	162301	10909.623786133823	0
0	162304	10909.669516006315	1
0	162308	10909.833656861483	2
0	162318	10910.019914128702	1
0	162322	10910.091694143508	2
0	162325	10910.278023611894	3
0	162329	10910.341794617489	4
0	162342	10911.00895136096	2
0	162345	10911.155960215197	3
0	162349	10911.454755639258	4
0	162360	10912.336112595459	3
0	162363	10912.340473515186	4
0	162367	10912.624232584927	5
0	162371	10912.93314772507	6
0	162378	10913.040341375923	6
0	162382	10913.675689180583	7
0	162385	10913.842473461004	8
0	162389	10913.874802937811	9
0	162394	10914.090136344232	10
0	162397	10914.472714138782	11
0	162400	10914.586764997937	12
0	162403	10914.806595405972	13
0	162413	10915.194347332184	12
0	162416	10915.363056876996	13
0	162421	10915.784434016722	14
0	162424	10915.851382065715	15
0	162463	10916.607494188622	0
0	162468	10916.783329845202	0
0	162480	10917.377895789292	0
0	162484	10917.565562487918	0
0	162489	10917.706614123391	0
0	162497	10918.46881237925	0
0	162500	10918.554506921206	1
0	162503	10918.685159930422	2
0	162512	10919.856237380212	3
0	162518	10920.080740238144	4
0	162526	10920.954042299455	2
0	162540	10921.868965784261	0
0	162545	10921.872699605398	0
0	162563	10923.008430330637	0
0	162568	10923.020283256259	0
0	162573	10923.192411594021	0
0	162578	10923.527935508509	0
0	162581	10923.57774312694	1
0	162590	10924.488872975591	1
0	162609	10927.069239047757	0
0	162622	10928.366639734224	0
0	162626	10928.435077668744	0
0	162629	10928.542889003732	1
0	162632	10928.916555221346	2
0	162641	10929.745202837187	2
0	162651	10930.976969188935	2
0	162660	10931.245903103671	1
0	162664	10931.673706997868	2
0	162679	10932.201442528669	0
0	162683	10932.241171779814	0
0	162689	10932.430735925776	0
0	162698	10933.388035340752	0
0	162703	10933.455356709338	0
0	162706	10933.742981084097	1
0	162716	10934.357703862822	0
0	162722	10934.497934638304	0
0	162726	10934.68206937855	0
0	162733	10935.181852969618	0
0	162736	10935.196939917029	1
0	162739	10935.298229728102	2
0	162761	10937.000727520373	0
0	162771	10938.792725088608	0
0	162779	10939.072728781857	0
0	162783	10939.177727121207	0
0	162786	10939.230022923175	1
0	162800	10940.633052802295	0
0	162808	10941.469845308905	0
0	162812	10941.851459611951	1
0	162823	10942.795388830574	0
0	162828	10943.481011839739	1
0	162832	10943.660314589678	2
0	162839	10944.056507097617	2
0	162844	10944.630563187839	3
0	162864	10945.630606740335	0
0	162869	10945.694657928678	0
0	162874	10945.75601529164	0
0	162883	10946.000776434637	0
0	162889	10946.553960504747	0
0	162892	10946.67916454674	1
0	162911	10948.810116382211	0
0	162915	10948.951021643173	0
0	162923	10949.266451091816	0
0	162934	10950.939603362817	1
0	162942	10951.25255675589	0
0	162945	10951.27020235277	1
0	162948	10951.286501184575	2
0	162952	10951.68656955171	3
0	162964	10952.240753743946	1
0	162969	10952.74660895908	2
0	162980	10954.437136871343	3
0	162984	10954.640256002131	3
0	162987	10954.732710752135	4
0	162992	10954.871915868003	4
0	162995	10954.873391586142	5
0	163008	10955.669183020625	3
0	163014	10955.836675831151	2
0	163017	10955.930452027175	3
0	163028	10956.238142087614	1
0	163036	10956.763824801465	0
0	163042	10956.870767562369	0
0	163077	10961.115038905465	0
0	163083	10961.85892063921	0
0	163090	10962.768389015319	0
0	163093	10962.910692376266	1
0	163098	10963.186271114727	2
0	163101	10963.269253751269	3
0	163105	10963.84163607731	4
0	163124	10964.874029091632	0
0	163133	10965.317964718717	0
0	163138	10965.4689482002	0
0	163144	10965.996882108116	0
0	163154	10967.503202643557	0
0	163160	10967.689775704838	0
0	163165	10967.852386337311	0
0	163173	10968.203971817885	0
0	163176	10968.259899294669	1
0	163179	10968.299663740385	2
0	163183	10968.690865016883	3
0	163188	10968.822839240673	3
0	163194	10969.145894442612	4
0	163198	10969.401090078942	5
0	163201	10969.623981964103	6
0	163208	10969.709213561563	5
0	163212	10969.989587100828	6
0	163219	10970.076458996098	6
0	163226	10970.795362698558	6
0	163229	10970.893537285951	7
0	163239	10971.757696324049	6
0	163246	10972.158641567043	6
0	163250	10972.217212460658	7
0	163254	10972.518335586724	8
0	163259	10972.746400497599	9
0	163264	10973.232912199323	10
0	163268	10973.76345447585	11
0	163279	10975.7447846849	11
0	163282	10975.752991196376	12
0	163290	10976.219939828077	13
0	163293	10976.654414720166	14
0	163300	10976.782032252793	14
0	163303	10976.898628049339	15
0	163310	10977.052847402643	15
0	163313	10977.395056879656	16
0	163316	10977.505026717834	17
0	163359	10978.248128655076	0
0	163367	10978.998042179691	0
0	163375	10979.628364825434	0
0	163378	10979.971748403866	1
0	163386	10980.430943452308	2
0	163390	10980.49123525563	2
0	163393	10980.537021715338	3
0	163405	10981.57163879919	2
0	163409	10981.652778294895	2
0	163413	10981.904618335359	3
0	163422	10982.161153585951	2
0	163427	10982.631458304521	2
0	163436	10984.221840975615	3
0	163459	10986.058681472833	0
0	163465	10986.586564920427	0
0	163473	10987.024621537311	0
0	163478	10987.813550318667	0
0	163486	10988.168270718175	0
0	163502	10990.51592454324	0
0	163515	10991.708005378508	0
0	163519	10991.744222296962	0
0	163528	10992.873374398113	0
0	163533	10993.195570016194	1
0	163536	10993.499823784845	2
0	163544	10994.116395187603	3
0	163551	10994.690135091237	2
0	163567	10995.499925758163	0
0	163578	10996.066228488433	0
0	163583	10996.442339972619	0
0	163588	10996.618151029417	0
0	163592	10996.847576140768	1
0	163595	10996.936712040078	2
0	163604	10997.117175493153	2
0	163610	10997.537759947113	1
0	163624	10998.59992310863	0
0	163628	10998.618294280737	0
0	163631	10998.984716316798	1
0	163639	10999.850220593809	1
0	163643	10999.942023838342	2
0	163651	11000.656889966454	2
0	163658	11001.451656171153	2
0	163668	11002.068584438441	2
0	163672	11002.244957920088	3
0	163683	11003.561578905878	1
0	163686	11003.750658422192	2
0	163708	11005.335586353932	0
0	163712	11005.349272919907	0
0	163715	11005.66409285367	1
0	163719	11005.849212926702	2
0	163727	11006.410897052161	2
0	163736	11007.088099207404	3
0	163754	11008.92411807062	0
0	163762	11009.831643863347	0
0	163770	11010.7918464715	1
0	163780	11012.140139770239	2
0	163785	11012.670996541121	2
0	163795	11013.343933283307	1
0	163799	11013.633388830332	1
0	163816	11015.375647955103	0
0	163824	11016.054106283896	0
0	163827	11016.12581660129	1
0	163830	11016.155950760584	2
0	163833	11016.170173099901	3
0	163836	11016.181900208471	4
0	163840	11016.85570761186	5
0	163849	11017.556142177447	4
0	163858	11017.896218556112	4
0	163861	11017.965575970435	5
0	163866	11018.129892943007	6
0	163869	11018.965245615851	7
0	163875	11019.266691784774	8
0	163879	11019.517514711751	9
0	163883	11019.711549513118	9
0	163902	11021.224846190503	7
0	163908	11021.780784773166	7
0	163911	11021.813846359878	8
0	163917	11021.994192584468	8
0	163922	11022.343660959659	9
0	163925	11022.371316721357	10
0	163953	11022.528539427746	0
0	163962	11023.271651012591	0
0	163966	11023.324935096776	0
0	163969	11023.327793432269	1
0	163973	11023.717301759991	2
0	163976	11023.783547668334	3
0	163979	11023.786700392449	4
0	163986	11024.075578384519	4
0	163989	11024.193579223024	5
0	163996	11024.624019759338	6
0	164000	11024.924581756194	6
0	164010	11025.365359199248	5
0	164014	11025.577812086384	6
0	164021	11026.184804688549	6
0	164028	11027.179315709648	7
0	164032	11027.326056685091	7
0	164035	11027.494423110662	8
0	164038	11027.779537219413	9
0	164041	11027.973939643592	10
0	164073	11028.848726598926	0
0	164087	11030.056860639687	0
0	164091	11030.172708399498	0
0	164094	11030.266756633743	1
0	164103	11030.514714931306	0
0	164112	11031.004569857926	0
0	164117	11031.232489628276	0
0	164122	11031.484475891356	0
0	164132	11032.195817612121	0
0	164138	11032.229496691063	0
0	164144	11032.440191797425	0
0	164153	11033.237254668029	0
0	164164	11034.376460762315	0
0	164188	11037.511680501447	0
0	164203	11039.566204339752	0
0	164207	11039.840689694494	0
0	164211	11039.959949078128	1
0	164220	11040.415972934876	1
0	164223	11040.634447889974	2
0	164231	11041.541776485574	3
0	164237	11041.637816949181	2
0	164248	11042.408096644566	1
0	164251	11042.543834814077	2
0	164255	11042.895486475032	3
0	164263	11043.362173244635	3
0	164267	11043.529343396406	4
0	164270	11043.968571627545	5
0	164277	11044.113653489814	5
0	164280	11044.315155229329	6
0	164306	11045.332407227333	0
0	164311	11045.738671152717	0
0	164314	11045.778599058764	1
0	164317	11045.957669573517	2
0	164324	11046.403864472242	2
0	164328	11046.921700959687	3
0	164336	11047.257523594902	4
0	164353	11047.854118106591	0
0	164362	11048.192475981459	0
0	164365	11048.47959888997	1
0	164372	11049.296671402299	2
0	164386	11050.480965489209	0
0	164390	11050.563427806404	0
0	164393	11050.62461005256	1
0	164413	11052.858291883607	0
0	164420	11053.02922320565	0
0	164425	11053.218086060557	1
0	164429	11053.385911568717	2
0	164435	11054.260317344392	3
0	164438	11054.35622195104	4
0	164441	11054.447388523787	5
0	164447	11055.190048441027	6
0	164453	11055.90235913166	7
0	164459	11056.046312602492	8
0	164464	11056.609276120152	8
0	164467	11056.716919953129	9
0	164478	11057.509465550985	8
0	164485	11058.00655012739	8
0	164523	11061.5373975249	0
0	164527	11061.873535004009	0
0	164535	11062.448553432009	0
0	164543	11063.44257933333	1
0	164549	11063.805182397487	0
0	164552	11063.922040649061	1
0	164561	11064.521807612351	0
0	164565	11064.952782752774	1
0	164578	11065.663087142112	0
0	164587	11066.192324022102	0
0	164593	11066.50080895677	0
0	164596	11066.655424878572	1
0	164599	11066.785373769906	2
0	164602	11066.881480613859	3
0	164609	11067.004482725935	3
0	164615	11067.369528574402	4
0	164619	11067.380587927325	4
0	164622	11067.854827621788	5
0	164631	11068.565260238826	4
0	164635	11068.988296578732	5
0	164643	11069.203347029941	5
0	164652	11069.628453342788	4
0	164665	11070.339085777828	2
0	164670	11070.683022640603	2
0	164673	11070.752785672347	3
0	164676	11070.867979485721	4
0	164689	11071.425680875895	2
0	164692	11071.994473869286	3
0	164699	11072.016463560134	3
0	164708	11072.369044300869	2
0	164719	11072.819446843293	0
0	164728	11073.732037314101	0
0	164733	11073.74509639038	0
0	164743	11074.558190438016	0
0	164753	11075.155803493552	0
0	164758	11075.542962135594	0
0	164768	11076.328003727354	0
0	164772	11076.568721027088	0
0	164775	11076.83456991555	1
0	164782	11077.201158621254	1
0	164785	11077.421273949155	2
0	164792	11078.69986615155	3
0	164796	11078.831924316397	3
0	164803	11079.204081532695	3
0	164813	11080.165747108647	3
0	164817	11080.550163142089	4
0	164821	11080.865197638995	5
0	164830	11081.231518467952	4
0	164839	11081.937208196763	3
0	164862	11083.743347599174	0
0	164870	11084.226949594423	0
0	164876	11085.362156750743	1
0	164880	11085.440944665274	1
0	164884	11085.70189501574	2
0	164889	11085.795145402345	2
0	164896	11086.119684654954	2
0	164899	11086.271752320065	3
0	164903	11086.456447196602	4
0	164921	11087.433006448566	0
0	164926	11087.45606313135	0
0	164932	11087.651799859041	0
0	164945	11089.202348171451	0
0	164953	11090.301190803281	0
0	164957	11090.40860843273	0
0	164960	11090.905423031635	1
0	164970	11091.391770431937	0
0	164975	11092.007805729087	1
0	164985	11093.042347082891	1
0	164990	11093.206932810978	1
0	164993	11093.377238497147	2
0	164996	11093.401934850508	3
0	165002	11094.319040748033	4
0	165007	11094.621509848684	4
0	165010	11094.844349588382	5
0	165021	11095.356024546011	3
0	165026	11096.017711074398	4
0	165031	11096.22186814501	5
0	165035	11096.283087880554	5
0	165047	11097.808967559022	3
0	165053	11098.018334544627	4
0	165059	11098.52749195656	5
0	165074	11098.944143770505	0
0	165099	11101.474896402924	0
0	165104	11101.826787437125	0
0	165115	11102.63474633208	0
0	165128	11103.859936591111	0
0	165134	11104.216898165675	0
0	165143	11104.845647786757	0
0	165149	11104.935405503739	0
0	165156	11105.232332998997	0
0	165161	11105.757149732689	0
0	165166	11105.863227129705	0
0	165172	11105.945207894958	0
0	165181	11106.510717121773	0
0	165185	11106.770906761548	0
0	165189	11106.897693156104	1
0	165197	11107.237892067039	1
0	165202	11107.529498981613	2
0	165207	11107.870775581003	2
0	165217	11108.643022646906	1
0	165220	11108.785414563195	2
0	165232	11109.996253158192	2
0	165240	11110.007885948994	1
0	165244	11110.12129282498	2
0	165256	11110.524210987653	0
0	165264	11111.066691427911	0
0	165269	11111.367202204406	0
0	165275	11111.590408346232	0
0	165279	11111.623379753164	0
0	165290	11112.515966827722	0
0	165295	11112.880461207588	0
0	165303	11113.103517365998	0
0	165307	11113.164601365824	0
0	165317	11114.155020148608	0
0	165335	11116.558342016767	0
0	165340	11116.776235512255	0
0	165347	11117.449887562158	0
0	165351	11117.787506276781	1
0	165357	11118.013655055928	1
0	165360	11118.013898264767	2
0	165369	11118.929345337821	2
0	165384	11120.683492006703	2
0	165388	11120.737386756932	2
0	165406	11121.841494173912	0
0	165414	11122.892463532576	0
0	165418	11122.998049569516	0
0	165423	11123.535800569793	1
0	165430	11123.966899376625	0
0	165436	11124.009465595471	1
0	165444	11125.265250427526	2
0	165447	11125.552884624011	3
0	165474	11128.723473903202	0
0	165482	11129.177584099235	0
0	165485	11129.40737167674	1
0	165491	11129.896099660349	2
0	165499	11130.572485058048	2
0	165510	11131.240298333188	1
0	165514	11131.442818295376	2
0	165521	11131.980921334778	2
0	165529	11132.886651018489	2
0	165534	11133.40262598244	3
0	165538	11133.880616327926	4
0	165548	11134.739256249547	4
0	165565	11135.287258947606	0
0	165570	11135.297645576421	0
0	165576	11135.773260467463	0
0	165589	11137.379125834257	0
0	165594	11137.795847442621	0
0	165603	11138.077136141027	0
0	165609	11138.688346347851	1
0	165613	11138.8556608918	2
0	165617	11138.901335517657	2
0	165622	11139.237632945325	3
0	165625	11139.31948183184	4
0	165640	11140.728665925028	3
0	165649	11141.20591582687	3
0	165659	11142.461976565261	2
0	165663	11142.612415859929	3
0	165678	11143.463519018239	0
0	165684	11143.814434460318	0
0	165688	11143.940757958789	1
0	165699	11144.516891167231	1
0	165703	11144.685307486483	1
0	165707	11144.933627239993	2
0	165721	11145.816726946297	0
0	165728	11146.814521412182	0
0	165737	11147.342600324532	1
0	165740	11147.420427054063	2
0	165752	11147.561568056427	0
0	165769	11149.345257094557	0
0	165778	11150.361999749905	0
0	165785	11151.26951458325	0
0	165797	11152.441918765388	0
0	165809	11153.978406657258	0
0	165817	11154.482219450338	0
0	165822	11154.48730188013	0
0	165833	11156.574993171101	0
0	165837	11156.684893852325	0
0	165844	11157.085855615612	0
0	165852	11158.086300751376	1
0	165862	11159.062771397341	0
0	165870	11160.068148719613	0
0	165874	11160.248793051422	1
0	165882	11161.029613443957	0
0	165896	11162.548594132062	0
0	165902	11162.929074946139	0
0	165909	11163.153898216698	0
0	165913	11163.921475196439	1
0	165917	11163.973905294464	2
0	165923	11164.337508940579	2
0	165927	11164.421797667686	3
0	165931	11164.893730626553	4
0	165940	11165.395543541051	3
0	165946	11166.258821984928	4
0	165951	11166.9665491313	5
0	165959	11167.643061002237	4
0	165962	11167.671201239336	5
0	165965	11167.910521782508	6
0	165987	11168.227501298061	0
0	165992	11168.319041086051	0
0	166002	11169.085759059838	0
0	166007	11169.132045717963	0
0	166014	11169.506358948907	0
0	166018	11169.567666584641	0
0	166022	11169.839057406981	1
0	166031	11170.042012894555	1
0	166038	11170.139377651293	0
0	166047	11171.064113596257	0
0	166050	11171.124429319847	1
0	166054	11171.174589426866	2
0	166058	11171.377106883588	2
0	166062	11171.574046788784	3
0	166065	11171.741747424341	4
0	166085	11172.780397487919	0
0	166092	11173.009615293602	0
0	166097	11173.425560048616	1
0	166100	11173.46518056665	2
0	166103	11173.493241677063	3
0	166106	11173.621345786132	4
0	166113	11174.114282816226	5
0	166118	11174.476412593825	5
0	166123	11174.72919531874	5
0	166153	11177.119736590496	0
0	166161	11177.704941063286	0
0	166165	11177.973665348363	0
0	166174	11178.889329602096	0
0	166183	11179.155773243194	0
0	166188	11179.790476822231	0
0	166191	11179.957599636473	1
0	166199	11180.129216176999	1
0	166203	11180.537123331707	2
0	166208	11180.634437145129	2
0	166222	11181.617029099433	0
0	166231	11182.251300162752	0
0	166237	11182.80470156369	0
0	166245	11183.794679763119	0
0	166268	11187.111139043362	0
0	166272	11187.19932774163	0
0	166285	11188.652058002529	0
0	166298	11190.05762339886	0
0	166305	11190.984521757495	0
0	166313	11191.476253730536	0
0	166318	11191.497578325151	0
0	166323	11191.611405980845	0
0	166334	11192.314182552358	0
0	166338	11192.420612615301	0
0	166341	11192.899017414676	1
0	166352	11193.385827043569	0
0	166359	11194.070672816454	0
0	166362	11194.160294745734	1
0	166381	11196.056398088836	0
0	166388	11196.859301901654	1
0	166393	11196.983836998363	1
0	166403	11197.564330473351	1
0	166407	11197.788554041689	2
0	166413	11197.992908416324	2
0	166419	11198.395047492628	3
0	166424	11198.678808938195	3
0	166427	11198.883610813674	4
0	166434	11199.01700326665	5
0	166455	11200.016855516984	0
0	166460	11200.024050489018	0
0	166465	11200.41508062834	0
0	166474	11201.232297426564	0
0	166478	11201.234930971476	0
0	166481	11201.487852240232	1
0	166491	11202.697426486812	1
0	166500	11203.213749790004	0
0	166507	11203.583022681121	0
0	166512	11203.744912494765	0
0	166522	11204.324148930493	0
0	166530	11205.009681353825	0
0	166537	11205.365053174065	0
0	166541	11205.396250986201	0
0	166547	11205.87235325104	1
0	166559	11206.487102484522	0
0	166575	11208.468626723423	0
0	166583	11209.282759948404	0
0	166587	11209.574275650254	1
0	166591	11209.576197088962	1
0	166598	11210.174808881248	2
0	166601	11210.285981068784	3
0	166612	11211.267003199059	2
0	166623	11212.54447189944	2
0	166628	11212.599663047709	2
0	166631	11212.6018582966	3
0	166639	11213.03720633821	3
0	166642	11213.09134644576	4
0	166646	11213.398119419912	5
0	166650	11213.416955107566	6
0	166676	11215.842152417741	0
0	166695	11217.206044928338	0
0	166705	11218.588144913443	0
0	166711	11218.765005331677	0
0	166714	11218.868027985056	1
0	166717	11218.969182025776	2
0	166725	11219.020533452085	2
0	166729	11219.40214061806	3
0	166734	11219.704377687667	4
0	166746	11220.634194918616	2
0	166749	11220.643863662722	3
0	166762	11222.239501913752	2
0	166767	11222.58304805279	3
0	166770	11222.675382231923	4
0	166778	11223.345932952451	5
0	166782	11223.381185831526	5
0	166800	11224.455117687674	2
0	166816	11225.132373947412	0
0	166827	11226.784021400628	0
0	166831	11226.860606319287	0
0	166845	11228.104329326965	0
0	166850	11228.249200367644	0
0	166860	11229.475583726058	0
0	166866	11229.807403598327	0
0	166874	11230.011292221203	0
0	166879	11230.156409366224	0
0	166884	11230.40076744397	0
0	166889	11230.824954978226	0
0	166898	11231.66653510648	0
0	166902	11231.897352215966	0
0	166910	11232.212106385899	0
0	166916	11232.946159933836	0
0	166921	11233.027749741469	1
0	166925	11233.107383697569	2
0	166928	11233.410197905875	3
0	166931	11233.431386095656	4
0	166934	11233.662340102009	5
0	166941	11234.171567877037	6
0	166958	11234.216159616537	0
0	166964	11234.556632116616	0
0	166970	11234.772341404126	0
0	166980	11235.137342935469	0
0	166993	11236.737132258386	0
0	166997	11236.92782062445	0
0	167009	11238.23287955008	0
0	167017	11239.038478107654	0
0	167033	11240.777593292589	0
0	167038	11240.915331804293	0
0	167048	11241.339277384799	0
0	167058	11242.329797461139	0
0	167063	11242.385763525277	0
0	167068	11242.499324526821	0
0	167073	11242.628055105773	0
0	167082	11243.22676881014	0
0	167089	11243.329890743577	0
0	167096	11243.955158484603	0
0	167103	11244.0596885712	0
0	167107	11244.448289597766	1
0	167121	11245.544450879169	0
0	167133	11246.88419317936	0
0	167137	11246.998282345415	0
0	167156	11248.215125239534	0
0	167162	11248.453309548528	0
0	167167	11248.54246593056	0
0	167171	11248.591309233514	1
0	167175	11248.824671127678	2
0	167178	11248.843266669589	3
0	167183	11248.993978072779	3
0	167205	11250.470800766097	0
0	167212	11250.892931631151	0
0	167222	11251.611546937516	0
0	167231	11252.529637771534	0
0	167235	11252.815008612518	1
0	167241	11253.035256444322	1
0	167244	11253.127708923392	2
0	167250	11253.491467439016	3
0	167274	11255.457679561192	0
0	167278	11255.482943701273	0
0	167282	11255.767668553964	1
0	167285	11255.779914486762	2
0	167294	11256.173153447531	2
0	167298	11256.402272048614	3
0	167302	11256.44148195137	4
0	167310	11257.139868757823	5
0	167315	11257.303803778935	5
0	167318	11257.424637151945	6
0	167323	11257.576769173175	6
0	167327	11257.807256280039	7
0	167330	11257.882100588789	8
0	167333	11257.960892240101	9
0	167349	11259.083920887452	8
0	167353	11259.121998344157	8
0	167358	11259.229721942866	8
0	167363	11259.740186921946	8
0	167366	11259.755830402559	9
0	167376	11260.38377561199	8
0	167408	11262.513142452558	0
0	167412	11262.560816847101	0
0	167424	11263.963981174527	0
0	167437	11265.363101892921	0
0	167449	11266.00487415805	0
0	167452	11266.10555482605	1
0	167460	11267.026368963588	2
0	167467	11267.382042479161	1
0	167471	11267.466985992979	2
0	167474	11267.774994934872	3
0	167477	11267.816673510482	4
0	167481	11267.893080990979	5
0	167491	11268.891431483943	4
0	167510	11269.535995777964	0
0	167515	11269.757956901008	0
0	167524	11270.307896405853	0
0	167529	11270.502773201812	0
0	167542	11272.077886370829	0
0	167547	11272.66137759455	0
0	167552	11272.720451632234	0
0	167562	11273.427882098168	0
0	167567	11273.9202117727	0
0	167574	11274.395763820441	0
0	167585	11275.507879908564	1
0	167589	11275.557949146431	1
0	167602	11276.427953727861	0
0	167609	11276.655233574678	1
0	167621	11277.738871720693	0
0	167625	11277.745494254372	0
0	167628	11277.755134313618	1
0	167631	11277.806405137921	2
0	167634	11277.841773713002	3
0	167643	11278.49343166856	2
0	167650	11279.334017342408	3
0	167653	11279.493159841291	4
0	167666	11280.48702520836	3
0	167670	11280.573975991618	4
0	167706	11284.522164448215	0
0	167718	11286.489697531573	0
0	167734	11288.436320312513	0
0	167740	11289.294706256174	1
0	167743	11289.353900541356	2
0	167749	11289.926983055244	3
0	167755	11290.207115555574	3
0	167759	11290.404078086519	4
0	167774	11290.636197929953	0
0	167778	11290.728028992519	0
0	167781	11290.893088099558	1
0	167791	11291.739777448084	1
0	167801	11292.598387955187	0
0	167812	11293.90389094555	0
0	167819	11294.403550629822	0
0	167827	11295.399977288532	1
0	167847	11297.558203992225	0
0	167851	11297.703796073143	1
0	167858	11298.313648037839	2
0	167867	11298.360355592461	0
0	167874	11298.887142179703	0
0	167883	11299.23793124199	0
0	167894	11300.34989235606	0
0	167901	11301.091562766661	0
0	167905	11301.174285137592	0
0	167924	11303.173159584021	0
0	167934	11304.013604416739	0
0	167943	11305.251311326881	0
0	167947	11305.368027406699	0
0	167950	11305.38428796474	1
0	167953	11305.507443556289	2
0	167956	11305.518602396828	3
0	167960	11305.805977703585	4
0	167968	11306.305439031585	4
0	167972	11306.563902846019	4
0	167975	11306.632272355724	5
0	167981	11307.201671920325	6
0	167988	11307.669127686523	5
[...]
2	195101	13128.249811359036	0.394475724324
2	195108	13128.348646038517	1e-012
2	195113	13128.372579571448	0
2	195118	13128.740425940984	1
2	195131	13129.740425940984	2.140284227758
2	195167	13132.074570072498	3.44106756632
2	195173	13132.740425940984	2.879232046092
2	195174	13132.740425940984	2.575240880716
2	195176	13132.740425940984	2.568451645672
2	195178	13132.740425940984	2.51232395502
2	195180	13132.740425940984	2.462100183248
2	195182	13132.740425940984	1.571204328886
2	195184	13132.740425940984	0.665855868486
2	195186	13132.740425940984	0.492804725048
2	195199	13133.089796556791	0.999999999999
2	195206	13134	1.651718312416
2	195218	13134.272407142357	1.258935092037
2	195228	13135	0.95648530704
2	195232	13135.089796556791	0.817389414435
2	195233	13135.089796556791	0.543150912471
2	195235	13135.089796556791	0.396540208857
2	195242	13135.210888001736	2e-012
2	195253	13136.24574318614	1
2	195266	13137	1.410767651916
2	195273	13137.546708582692	1.866553977564
2	195282	13138	1.453291417308
2	195288	13138.24574318614	1.42125139843
2	195291	13138.546708582692	1.468853048956
2	195299	13139.123564598616	2
2	195313	13140.61436454286	1
2	195319	13141	1.070542932068
2	195328	13141.809448101338	1
2	195336	13142.030261036711	0.999999999999
2	195342	13142.809448101338	0.005650673086
2	195353	13143.161486212916	1
2	195360	13144	2.755237342588
2	195369	13144.236075614455	1.137518856959
2	195381	13145.161486212916	1.92541059846
2	195386	13145.236075614455	1.674148901183
2	195405	13146	2.222938930212
2	195410	13146.236075614455	2.031594394685
2	195416	13147	2.69596994032
2	195423	13147.161486212916	2.60836884389
2	195425	13147.236075614455	2.644121709863
2	195441	13148	3.02372143236
2	195446	13148.236075614455	3.246704465025
2	195451	13149	3.189009423726
2	195455	13149.161486212916	3.084523959488
2	195457	13149.236075614455	2.762265067027
2	195463	13150	2.506904078412
2	195465	13150	2.164063462768
2	195470	13150.161486212916	2.229415605542
2	195471	13150.161486212916	1.911008072956
2	195473	13150.161486212916	0.640418998344
2	195480	13150.270166371481	1e-012
2	195485	13150.615287295796	0
2	195490	13150.744784726578	0
2	195495	13150.799327402116	0
2	195503	13151.075698359874	0
2	195514	13152.163772540501	1.000000000001
2	195530	13153	1.652426126114
2	195537	13153.338785697983	0.888512183327
2	195538	13153.338785697983	0.825770351949
2	195540	13153.338785697983	0.484156923707
2	195542	13153.338785697983	-1e-012
2	195554	13154.26412169779	1
2	195560	13155	1.193343475576
2	195576	13157.018400555139	0.999999999999
2	195590	13158	1.930483478492
2	195596	13158.434151338223	2.297016520579
2	195600	13159	1.565848661776
2	195608	13159.434151338223	1.400709201771
2	195621	13160	0.519144477844
2	195627	13160.120330981602	0.599376588678
2	195628	13160.120330981602	0.43456118097
2	195630	13160.120330981602	0
2	195636	13160.130707615312	0
2	195642	13160.867931771971	0.999999999999
2	195662	13162.132090077078	5.874856672022
2	195669	13162.867931771971	4.404816840279
2	195672	13163	3.33465454547
2	195694	13165.867931771971	3.735841694893
2	195695	13165.867931771971	1.797809876007
2	195697	13165.867931771971	1.602366153167
2	195704	13165.963501488683	-1e-012
2	195713	13166.149493310596	0
2	195718	13166.476866653982	1
2	195724	13167	2.32106014889
2	195730	13167.256733742814	3
2	195737	13167.779643983727	-1e-012
2	195745	13168.213272685262	1
2	195754	13169	1.305661463276
2	195756	13169	1.251807259572
2	195764	13169.968010612011	-1e-012
2	195774	13170.128331555702	0
2	195783	13170.984055260802	2
2	195820	13173.449886824884	2.36961778438
2	195821	13173.449886824884	1.934891488094
2	195823	13173.449886824884	1.740182513268
2	195825	13173.449886824884	1.261525905624
2	195827	13173.449886824884	1.104788280102
2	195829	13173.449886824884	0.702693504944
2	195831	13173.449886824884	0.566088377848
2	195833	13173.449886824884	2e-012
2	195844	13174.152331530347	0.999999999999
2	195851	13175	1.57142863629
2	195857	13175.375371013585	1.000000000001
2	195873	13177.051574194455	0.999999999999
2	195883	13178	1.642991488906
2	195889	13178.11225367688	0.749030792772
2	195890	13178.11225367688	0
2	195896	13178.195410996536	0
2	195902	13178.250631893037	1e-012
2	195907	13178.353996416068	1
2	195916	13179.176196757095	3.999999999999
2	195922	13179.353996416068	3.097973793728
2	195929	13180	0.2608108068
2	195937	13180.186586909679	0.999999999999
2	195953	13181	2.194486802316
2	195962	13182.153706987816	2.338808138372
2	195964	13182.186586909679	2.273748812987
2	195969	13182.353996416068	2.387378495082
2	195974	13183	1.846293012184
2	195976	13183	1.777522696118
2	195981	13183.176196757095	1.694827687563
2	195986	13183.301515428492	1
2	195991	13183.375254398094	1
2	196001	13184.299721941726	1
2	196011	13185.023599292539	1.999999999999
2	196018	13185.56433609206	0
2	196029	13186.339363097687	0.999999999999
2	196039	13187	1.411536388658
2	196044	13187.339363097687	0.404158209397
2	196051	13187.6125400827	1
2	196060	13188	2.227511180888
2	196068	13188.722355339905	1.000000000001
2	196085	13189.766764377063	1.998718234047
2	196087	13190	0.999318897536
2	196089	13190	0.793918562522
2	196096	13190.21904702024	0.452282643176
2	196097	13190.21904702024	0
2	196107	13190.810557494443	-1e-012
2	196117	13191.499152144014	1
2	196124	13192	1.26196696968
2	196131	13192.835329098671	0.999999999999
2	196138	13193	0.146550702204
2	196146	13193.275394756624	1
2	196157	13193.835329098671	1.230483135735
2	196163	13194	1.339004951468
2	196170	13194.476709374242	2.57451339797
2	196172	13194.835329098671	3.358619724429
2	196181	13195.683991589451	2.999999999999
2	196191	13196	0.301901914738
2	196197	13196.45723212168	0.720992974368
2	196198	13196.45723212168	0
2	196215	13198.562760745955	0.999999999999
2	196222	13198.882514149056	0
2	196231	13199.468018766135	0.999999999999
2	196242	13200.049223812099	-1e-012
2	196251	13201.269312971891	-1e-012
2	196260	13202.176097287912	1
2	196269	13203	0.70369231898
2	196275	13203.012026665559	0.539297667705
2	196276	13203.012026665559	-1e-012
2	196284	13203.415434869113	1.000000000001
2	196294	13204	1.478252745212
2	196304	13205	2.31906367486
2	196316	13205.415434869113	2.022501112349
2	196330	13206	1.983249145304
2	196338	13207	2.96854713841
2	196345	13207.415434869113	3.114725775053
2	196356	13208	3.426808861902
2	196361	13209	4.24425188052
2	196374	13209.415434869113	3.480361880375
2	196375	13209.415434869113	2.280462596987
2	196377	13209.415434869113	1.537884860917
2	196379	13209.415434869113	1.468952731097
2	196381	13209.415434869113	0.220167423221
2	196383	13209.415434869113	0.145568753673
2	196385	13209.415434869113	0.133916272511
2	196391	13209.610846473928	0
2	196400	13210.52568444506	0
2	196408	13211.236363377314	2e-012
2	196413	13211.320050898401	1e-012
2	196419	13211.360900881382	0
2	196424	13211.899566157991	-1e-012
2	196435	13212.917880656793	1.000000000001
2	196454	13214.034779933788	0.583557959052
2	196455	13214.034779933788	0.561755913152
2	196457	13214.034779933788	2e-012
2	196463	13214.085154433066	0
2	196470	13214.675376996364	1
2	196477	13215	1.002395046552
2	196488	13216.271632385505	2.000000000001
2	196493	13216.675376996364	1.101988000004
2	196503	13217	1.23964428562
2	196512	13218	2.070685275532
2	196519	13218.604377119417	2.387729799581
2	196521	13218.675376996364	1.070999876948
2	196529	13219.077329784838	0
2	196536	13219.512710649659	1.999999999999
2	196542	13219.85727658503	1
2	196548	13220	1.12508248566
2	196560	13221	1.83941322088
2	196565	13221.85727658503	2.020138957874
2	196571	13222	1.03795892763
2	196577	13222.512710649659	0.447450014727
2	196583	13222.87811884959	0
2	196592	13223.569735574805	1e-012
2	196598	13223.925639447759	1.999999999999
2	196629	13226.083267639978	3.751509820762
2	196632	13226.925639447759	4.403821555295
2	196635	13227	3.47444312254
2	196654	13228.083267639978	3.893084685666
2	196660	13228.925639447759	3.842371807783
2	196663	13229	2.976024410138
2	196664	13229	2.618827488538
2	196671	13229.63694582612	3.071712703292
2	196673	13229.925639447759	2.581999579643
2	196679	13230	1.36305417388
2	196680	13230	1.068265775258
2	196690	13230.63694582612	3.429850335698
2	196700	13231.152809886242	2
2	196710	13232	1.65351960048
2	196724	13233.152809886242	0.850280908626
2	196725	13233.152809886242	0.37445224929
2	196731	13233.159143051524	0
2	196736	13233.235180934728	0
2	196743	13233.824780791326	1.000000000002
2	196756	13235.035693759353	1.000000000001
2	196762	13235.824780791326	1.565220980102
2	196770	13236.043068338702	1
2	196776	13236.92496960549	2
2	196783	13237.035693759353	2.046247681681
2	196788	13237.122990264628	2
2	196800	13239.035693759353	1.668848729685
2	196806	13239.786577500625	2.000000000001
2	196818	13240.832652012941	1.000000000001
2	196825	13241.035693759353	1.002886832569
2	196830	13241.786577500625	2.258422318895
2	196839	13242.129275834351	0.999999999999
2	196848	13243.491158965046	1
2	196854	13243.786577500625	2.183177953131
2	196868	13244.491158965046	3.14522070249
2	196885	13246.154655681155	8.764684260661
2	196887	13246.786577500625	8.811725766745
2	196892	13247	2.907527642216
2	196898	13248	2.845344318844
2	196909	13249.449558825228	1
2	196918	13250	2.375153982488
2	196931	13251.486541531577	1.000000000001
2	196942	13252	0.338101358264
2	196944	13252	0.32243791327
2	196945	13252	0.280004931488
2	196954	13252.0490582328	0
2	196963	13252.781583320888	1
2	196973	13253.319006622526	2
2	196984	13254.403119003696	2e-012
2	196989	13254.467943796087	-1e-012
2	196998	13255.060644460748	1
2	197003	13255.319006622526	1.024869122018
2	197012	13256.290984901721	1.000000000001
2	197017	13256.45152993561	1
2	197029	13257.466520096828	2
2	197058	13259.635055010696	3.804903807818
2	197071	13260.466520096828	3.33284370014
2	197081	13261.635055010696	4.330363788272
2	197089	13262.466520096828	4.528832824058
2	197091	13262.635055010696	4.411857384974
2	197103	13263.628453746064	5.168690666218
2	197105	13263.635055010696	5
2	197112	13264.466520096828	5.66445140836
2	197117	13264.628453746064	5.818485874576
2	197119	13264.635055010696	4.188195510858
2	197126	13265.628453746064	3.252454444716
2	197127	13265.628453746064	2.978349148744
2	197129	13265.628453746064	2
2	197131	13265.628453746064	1.02074307326
2	197142	13266.289786392574	1
2	197150	13267	1.24862736872
2	197157	13267.412398314742	2
2	197163	13268	6.374110055132
2	197183	13269.650555196761	3.188443515013
2	197189	13270.412398314742	2.712748802618
2	197203	13271.56023805687	5.828173965194
2	197205	13271.650555196761	5.000000000001
2	197222	13272.412398314742	2.1458930249
2	197246	13274	4.622282206732
2	197250	13274.412398314742	4.852160257874
2	197253	13274.56023805687	4.694282131582
2	197255	13274.650555196761	4.760384950631
2	197273	13276.037919439101	5.114173400225
2	197275	13276.412398314742	5.041399412658
2	197277	13276.56023805687	5.040059381178
2	197279	13276.650555196761	5.104086663553
2	197284	13277	5.380204773696
2	197286	13277	5.274182904794
2	197293	13277.111173583241	5.175531255829
2	197299	13277.412398314742	2.696492019404
2	197300	13277.412398314742	2.067746398438
2	197302	13277.412398314742	1.610983281306
2	197304	13277.412398314742	1.374478875644
2	197306	13277.412398314742	0.608362480668
2	197308	13277.412398314742	0.301224731502
2	197310	13277.412398314742	0.294094955908
2	197316	13277.43914123615	0
2	197324	13277.727919151831	1.999999999999
2	197335	13278.19140169766	1.000000000002
2	197348	13279	0.53448538008
2	197352	13279.19140169766	0.637396498546
2	197357	13279.322441813235	-1e-012
2	197362	13279.365624872936	2e-012
2	197369	13279.500157362017	1.000000000001
2	197380	13280.968054875479	0.999999999999
2	197402	13282.130173151897	1.910226259813
2	197417	13282.968054875479	2.578076407713
2	197420	13283	2.586812866136
2	197426	13283.393460880204	2.263287728308
2	197428	13283.968054875479	2.617147029227
2	197431	13284	2.267401312636
2	197434	13284.130173151897	2.313454174445
2	197436	13284.393460880204	3.000000000002
2	197444	13284.968054875479	2.449808963867
2	197447	13285	2.458200780366
2	197454	13285.750321268133	3.000000000001
2	197462	13286.393460880204	3.07187424866
2	197474	13288.453275909983	0.999999999999
2	197483	13289.381767966349	1.000000000001
2	197490	13289.574307617193	1.000000000001
2	197502	13290.527140585208	1.232618091192
2	197504	13290.574307617193	1.047167031985
2	197512	13291.381767966349	2.458623422465
2	197517	13291.554367133343	1.999999999999
2	197522	13291.574307617193	2.001048914335
2	197549	13293.450315425104	1.27363592778
2	197550	13293.450315425104	0.93360393595
2	197552	13293.450315425104	0.547656359592
2	197554	13293.450315425104	0.389569882652
2	197556	13293.450315425104	0
2	197567	13293.86284443065	3
2	197574	13294.381767966349	3.393889054295
2	197613	13296.934102144857	3.514069628683
2	197620	13297.427284884952	2.877740394674
2	197621	13297.427284884952	2.625828937306
2	197623	13297.427284884952	2.325693279964
2	197625	13297.427284884952	1.626192257476
2	197627	13297.427284884952	1.607379979644
2	197629	13297.427284884952	1.39285409226
2	197631	13297.427284884952	1.075737360104
2	197633	13297.427284884952	0.945301416168
2	197635	13297.427284884952	0.493182740096
2	197637	13297.427284884952	0
2	197644	13297.73047491692	3
2	197650	13297.86284443065	3.082879473496
2	197655	13297.934102144857	3.000602624459
2	197662	13298.381767966349	1.261210307797
2	197683	13299.865410078596	1.116082439684
2	197684	13299.865410078596	0.860132771652
2	197686	13299.865410078596	0.830661978
2	197688	13299.865410078596	0.7913357343
2	197690	13299.865410078596	0
2	197697	13299.913533053235	-1e-012
2	197704	13300.147883046736	1.000000000002
2	197712	13300.73047491692	0.189045969712
2	197717	13300.740272671938	0
2	197729	13301.36316094795	1.000000000002
2	197739	13302.423333140499	-1e-012
2	197749	13303.575948889453	3.000000000003
2	197783	13306.768446845323	3.615708943983
2	197793	13307.575948889453	3.324184838915
2	197796	13307.768446845323	3.237872291171
2	197813	13308.768446845323	2.989384528417
2	197814	13308.768446845323	2.480700954387
2	197816	13308.768446845323	1.999999999999
2	197818	13308.768446845323	1.919082735241
2	197820	13308.768446845323	1.859510749175
2	197822	13308.768446845323	0.949632647505
2	197824	13308.768446845323	0.903057264775
2	197826	13308.768446845323	0.580757813179
2	197828	13308.768446845323	0.429507540663
2	197837	13309.254289164113	1.000000000001
2	197849	13310	1.195030151562
2	197862	13310.381733955483	0.439695698067
2	197863	13310.381733955483	0.376719584471
2	197865	13310.381733955483	0.198113892149
2	197867	13310.381733955483	-1e-012
2	197874	13310.708901603418	2e-012
2	197892	13313.461863109275	-1e-012
2	197901	13314.483942298433	1.000000000001
2	197911	13315	2.373358237076
2	197919	13315.623449648115	0.710915072081
2	197920	13315.623449648115	-1e-012
2	197930	13316.410770587531	1.999999999999
2	197935	13316.483942298433	2.042500803969
2	197945	13317.102732577749	1.000000000001
2	197954	13318	1.273675874392
2	197960	13318.258769205595	1.271065401393
2	197965	13318.410770587531	1.152001381937
2	197967	13318.483942298433	1.138766630959
2	197976	13319	0.118996960392
2	197982	13319.004411599144	0.010394089528
2	197983	13319.004411599144	0
2	197990	13319.173376425678	2e-012
2	198000	13319.895891415195	0.999999999999
2	198022	13322.313429849258	7.000000000002
2	198038	13323	1.596803200694
2	198052	13324.463378158571	3.029549467879
2	198059	13325	3.421784849784
2	198060	13325	3.152380501976
2	198080	13326	3.525611266092
2	198081	13326	2.536621841428
2	198088	13326.463378158571	2.532191858227
2	198092	13327	2.887578611636
2	198093	13327	2.740801898444
2	198101	13327.515252342046	4.11484845528
2	198111	13328	1.671561344756
2	198112	13328	0.484747657954
2	198116	13328	0.45564102128
2	198124	13328.682493443371	-1e-012
2	198129	13328.798916089132	0
2	198134	13328.842272285451	-1e-012
2	198139	13328.94096199961	0
2	198147	13329.011943768419	1e-012
2	198152	13329.034153434038	2e-012
2	198170	13331.212165445626	3
2	198177	13332	2.331398248616
2	198197	13334.212165445626	3.187384565986
2	198200	13335	1.098352975292
2	198202	13335	1.080300976974
2	198210	13335.034314009729	1e-012
2	198216	13335.260496721607	-1e-012
2	198221	13335.801477334024	1
2	198241	13337.25491654863	1.926590638774
2	198247	13337.801477334024	1.335031705936
2	198248	13337.801477334024	1.254386650984
2	198250	13337.801477334024	0.546560785396
2	198252	13337.801477334024	0.542659671848
2	198268	13338.569509234515	0.999999999999
2	198278	13339	2.19644358746
2	198288	13339.578341454405	1.215005329751
2	198297	13340.569509234515	1.991167780111
2	198299	13340.578341454405	1.295968836985
2	198312	13342.317201317884	2
2	198332	13344.631186888665	2.526896469201
2	198339	13345.317201317884	2.183422006924
2	198344	13345.631186888665	2.000000000001
2	198354	13346.631186888665	2.344627820119
2	198365	13347.317201317884	2.7111519227
2	198368	13347.631186888665	1.897419346257
2	198379	13348.631186888665	2.527039609271
2	198389	13349.317201317884	2.475777849876
2	198392	13349.631186888665	1.472285713217
2	198402	13350.631186888665	1.766738250509
2	198411	13351.779302524529	2.000000000001
2	198445	13354.057011396252	1.978796758316
2	198446	13354.057011396252	1.056651124538
2	198448	13354.057011396252	0.97367206094
2	198450	13354.057011396252	0.752841411568
2	198452	13354.057011396252	0.395237318562
2	198454	13354.057011396252	0
2	198462	13354.98731817961	2
2	198489	13357.533760324845	2.510575048757
2	198490	13357.533760324845	1.169596375543
2	198492	13357.533760324845	1.033843549845
2	198494	13357.533760324845	0.971851500373
2	198496	13357.533760324845	1e-012
2	198504	13357.684865755036	1
2	198512	13357.98731817961	3.277124822146
2	198525	13358.970869659855	1.475956806887
2	198535	13359.684865755036	0.71399609518
2	198536	13359.684865755036	0.153359679268
2	198542	13359.963412850245	1.000000000001
2	198550	13360.213540345962	1
2	198561	13360.963412850245	2.737271924953
2	198563	13360.98731817961	2.135854275946
2	198566	13361	2.075324396608
2	198576	13361.488173871668	0.446119427724
2	198577	13361.488173871668	0
2	198583	13361.522817374054	0
2	198590	13361.908254920189	1e-012
2	198597	13362.11593284872	0
2	198602	13362.13135570841	0
2	198616	13363.301947505735	0.999999999999
2	198622	13364	0.335171455888
2	198630	13364.489667937133	1e-012
2	198635	13364.500660618886	0
2	198644	13365.31676908767	2.000000000002
2	198653	13366	1.511235572316
2	198663	13367.2670037829	0
2	198669	13367.407664970428	0
2	198683	13368.755998047028	1.000000000002
2	198691	13369	1.204866139836
2	198706	13370	1.947199562706
2	198721	13370.755998047028	2.143219183562
2	198727	13371	2.256331847394
2	198738	13372	1.976178909972
2	198746	13372.56192606819	2.537456149286
2	198747	13372.56192606819	2.395376956902
2	198749	13372.56192606819	1.89524492183
2	198751	13372.56192606819	1.738696401436
2	198753	13372.56192606819	1.2063324464
2	198755	13372.56192606819	0
2	198768	13373.919071644262	1.000000000002
2	198790	13375.189868942838	1.871347845802
2	198793	13375.919071644262	1.28822623323
2	198794	13375.919071644262	1.141910615226
2	198796	13375.919071644262	1.088886891426
2	198798	13375.919071644262	0.729202701424
2	198808	13376.064170512651	1.000000000001
2	198814	13376.302153724278	0
2	198820	13376.532437413488	0
2	198830	13377.66098888778	1
2	198841	13378	0.240648233582
2	198847	13378.188692996326	0.300480589546
2	198848	13378.188692996326	0
2	198854	13378.278930874673	1e-012
2	198861	13378.685224308064	1.000000000002
2	198871	13379.823603964086	3
2	198888	13380.685224308064	1.364592237168
2	198906	13382.116323853868	1.678479368268
2	198907	13382.116323853868	1.542197569236
2	198909	13382.116323853868	1.54106418506
2	198911	13382.116323853868	1.160839533868
2	198913	13382.116323853868	0.815478060064
2	198915	13382.116323853868	0
2	198928	13383.263444792041	1.000000000001
2	198941	13384	1.59017368382
2	198947	13384.493584439057	1.985426661885
2	198950	13385	1.404695805798
2	198956	13385.212385552649	0.718801113593
2	198957	13385.212385552649	1e-012

