version 2
run Exponential-capacity-46-20210216-13:46:27-4304
attr configname Exponential-capacity
attr datetime 20210216-13:46:27
attr experiment Exponential-capacity
attr inifile aerocom.ini
attr iterationvars "$0=2, $1=50, $2=4, $3=4"
attr iterationvarsf 2,50,4,4-
attr measurement "$0=2, $1=50, $2=4, $3=4"
attr network Aerocom
attr processid 4304
attr repetition 1
attr replication #1
attr resultdir results
attr runnumber 46
attr seedset 1
param **.t 2s
param **.k 50ms
param **.X 4s
param **.m 4s
param **.tDistribution "\"exponential\""
param **.operationMode 0
param **.s "70 byte"
param **.dimPoolMax 10000
param **.dimPoolMin 8000
param **.nDL 10
param **.nA 1
param **.DLMaxCapacity 0
param **.trasmitting false

vector 0 Aerocom.aircraft[0].linkSelector responseTime:vector ETV
attr "" ""
attr source computeResponseTime
vector 1 Aerocom.aircraft[0].dataLink[4] tDistribution:vector ETV
attr "" ""
attr source computeTDistribution
vector 2 Aerocom.aircraft[0].packetGenerator arrivalTime:vector ETV
attr "" ""
attr source computeArrivalTime
vector 3 Aerocom.aircraft[0].linkSelector waitingTime:vector ETV
attr "" ""
attr source computeWaitingTime
vector 4 Aerocom.aircraft[0].linkSelector queueLength:vector ETV
attr "" ""
attr source computeQueueLength
vector 5 Aerocom.aircraft[0].dataLink[9] actualCapacity:vector ETV
attr "" ""
attr source computeActualCapacity
vector 6 Aerocom.aircraft[0].linkSelector serviceTime:vector ETV
attr "" ""
attr source computeServiceTime
vector 7 Aerocom.aircraft[0].dataLink[5] tDistribution:vector ETV
attr "" ""
attr source computeTDistribution
vector 8 Aerocom.aircraft[0].dataLink[0] tDistribution:vector ETV
attr "" ""
attr source computeTDistribution
vector 9 Aerocom.aircraft[0].dataLink[3] tDistribution:vector ETV
attr "" ""
attr source computeTDistribution
vector 10 Aerocom.aircraft[0].dataLink[7] tDistribution:vector ETV
attr "" ""
attr source computeTDistribution
vector 11 Aerocom.aircraft[0].dataLink[0] actualCapacity:vector ETV
attr "" ""
attr source computeActualCapacity
vector 12 Aerocom.aircraft[0].dataLink[1] actualCapacity:vector ETV
attr "" ""
attr source computeActualCapacity
vector 13 Aerocom.aircraft[0].dataLink[2] actualCapacity:vector ETV
attr "" ""
attr source computeActualCapacity
vector 14 Aerocom.aircraft[0].dataLink[3] actualCapacity:vector ETV
attr "" ""
attr source computeActualCapacity
vector 15 Aerocom.aircraft[0].dataLink[4] actualCapacity:vector ETV
attr "" ""
attr source computeActualCapacity
vector 16 Aerocom.aircraft[0].dataLink[5] actualCapacity:vector ETV
attr "" ""
attr source computeActualCapacity
vector 17 Aerocom.aircraft[0].dataLink[6] actualCapacity:vector ETV
attr "" ""
attr source computeActualCapacity
vector 18 Aerocom.aircraft[0].dataLink[7] actualCapacity:vector ETV
attr "" ""
attr source computeActualCapacity
vector 19 Aerocom.aircraft[0].dataLink[8] actualCapacity:vector ETV
attr "" ""
attr source computeActualCapacity
vector 20 Aerocom.aircraft[0].dataLink[8] tDistribution:vector ETV
attr "" ""
attr source computeTDistribution
vector 21 Aerocom.aircraft[0].dataLink[6] tDistribution:vector ETV
attr "" ""
attr source computeTDistribution
vector 22 Aerocom.aircraft[0].dataLink[1] tDistribution:vector ETV
attr "" ""
attr source computeTDistribution
vector 23 Aerocom.aircraft[0].dataLink[2] tDistribution:vector ETV
attr "" ""
attr source computeTDistribution
vector 24 Aerocom.aircraft[0].dataLink[9] tDistribution:vector ETV
attr "" ""
attr source computeTDistribution
0	1144	10.001162723415	0.008244023083
0	1150	10.078629266149	0.008242081714
0	1155	10.09428318024	0.008242081714
0	1160	10.127470777555	0.008241111373
0	1166	10.236442154499	0.008239171375
0	1171	10.266815294778	0.008238201718
0	1176	10.301798277713	0.00823723229
0	1181	10.31409239475	0.00823723229
0	1186	10.356550796762	0.00823626309
0	1191	10.366302747224	0.008235294118
0	1198	10.387262158275	0.008235294118
0	1201	10.395497452393	0.012646852373
0	1206	10.438119951818	0.008234325373
0	1213	10.549580615175	0.008231420508
0	1216	10.557812035683	0.010036082428
0	1224	10.607113505316	0.008230452675
0	1229	10.615342990385	0.014475155366
0	1232	10.623572475454	0.014969380415
0	1239	11.147588154678	0.008216926869
0	1244	11.174320759776	0.008216926869
0	1251	11.189914965067	0.008215962441
0	1254	11.198130927508	0.013914136863
0	1259	11.207299604887	0.008215962441
0	1264	11.219046075865	0.008215962441
0	1269	11.23523763135	0.00821499824
0	1274	11.300834640121	0.008214034264
0	1280	11.315334015703	0.008213070515
0	1286	11.367984811277	0.008212106992
0	1291	11.481992304	0.008209217779
0	1296	11.514589520595	0.008208255159
0	1301	11.604752781621	0.008206330598
0	1308	11.620816827989	0.008206330598
0	1311	11.629023158587	0.008502939317
0	1316	11.681534334622	0.008204406939
0	1321	11.951085025882	0.008198641368
0	1329	12.107005946477	0.007427843803
0	1335	12.12898616922	0.00742626777
0	1340	12.157576371608	0.007423904974
0	1348	12.197180815342	0.007420756917
0	1351	12.204600785662	0.011205068005
0	1358	12.234658869342	0.007417611529
0	1365	12.242075694941	0.011861187117
0	1368	12.249491734776	0.012333752834
0	1371	12.256906989013	0.015423649244
0	1378	12.347216271473	0.007408191343
0	1386	12.507782860914	0.007395668251
0	1391	12.520101773196	0.007394105841
0	1397	12.559007857799	0.007390983001
0	1403	12.645959419103	0.007384745226
0	1411	12.736793941265	0.007376962799
0	1424	13.05513160869	0.00735216889
0	1429	13.064449336018	0.007351396765
0	1440	13.301703156873	0.007408191343
0	1445	13.316789581245	0.007416039835
0	1450	13.325372668087	0.00741997032
0	1456	13.384282593262	0.007450771687
0	1461	13.416105269795	0.007466666667
0	1467	13.529126747727	0.007526072465
0	1472	13.590612077961	0.007558578987
0	1478	13.611451478968	0.00757002271
0	1485	13.632238357429	0.007580680095
0	1488	13.639823144513	0.011822502937
0	1494	13.695275015404	0.007614489285
0	1503	13.795129113225	0.007669551879
0	1511	13.864164386592	0.007707553402
0	1516	13.881359726256	0.007716900011
0	1521	13.966329920105	0.007763975155
0	1528	14.033930266702	0.007802050825
0	1537	14.128074591008	0.007844016136
0	1544	14.136677990975	0.007846653963
0	1547	14.144526404474	0.011440531283
0	1553	14.200315456453	0.007863401483
0	1558	14.218705494962	0.007867820614
0	1566	14.310804127934	0.007891770011
0	1573	14.351976940419	0.00790335328
0	1582	14.416935965096	0.007920343969
0	1588	14.543168530761	0.007953641632
0	1597	14.565419541246	0.007959972709
0	1601	14.573381324685	0.010937295094
0	1610	14.635279531691	0.007978117164
0	1617	14.661322108334	0.007985398129
0	1620	14.669309328781	0.008462445488
0	1625	14.70750478282	0.007998171846
0	1630	14.726340054818	0.008002743798
0	1635	14.778784900552	0.008017409231
0	1640	14.805992656299	0.008024762123
0	1645	14.824547662761	0.008029364533
0	1652	14.9294411297	0.008058017728
0	1657	15.021520179611	0.008083140878
0	1662	15.029869424845	0.008085942012
0	1667	15.064203737816	0.008095293165
0	1675	15.170298063601	0.008124419684
0	1685	15.23114091314	0.008141428239
0	1692	15.311377344967	0.008164217401
0	1699	15.368191057873	0.008180437069
0	1708	15.546349269629	0.008227550541
0	1713	15.595169638411	0.008218856405
0	1719	15.618085581816	0.00821499824
0	1728	15.924277551154	0.008159459144
0	1733	15.935742519673	0.008157557394
0	1738	15.944438240419	0.008156606852
0	1744	15.958194767193	0.008153756552
0	1751	16.04297836879	0.007324474207
0	1757	16.130913421815	0.0072863537
0	1762	16.148929731791	0.007290147886
0	1769	16.316907582684	0.007320644217
0	1772	16.324229758416	0.009044722374
0	1778	16.382518649941	0.00733291431
0	1783	16.399386641766	0.007335988262
0	1788	16.432329798973	0.007342143906
0	1793	16.494860454199	0.007353713625
0	1798	16.511780728485	0.007356805045
0	1803	16.525402895329	0.007359899064
0	1808	16.615113633761	0.007376185458
0	1813	16.674936401216	0.007387862797
0	1822	16.777812368556	0.007407407407
0	1825	16.785220559899	0.013522630618
0	1828	16.792630319611	0.016099598615
0	1833	16.915866170999	0.007433365191
0	1838	16.928032630202	0.007435734013
0	1843	16.950591850539	0.007439685408
0	1848	17.03972779796	0.007457121551
0	1853	17.120229949535	0.007473043664
0	1858	17.214541346306	0.007490636704
0	1863	17.278123218467	0.00750348376
0	1868	17.297017936684	0.007506702413
0	1873	17.343153628428	0.007515567962
0	1878	17.359533098758	0.007518796992
0	1883	17.372699531014	0.007522028799
0	1888	17.400881873873	0.00752688172
0	1893	17.430199827283	0.007532551383
0	1898	17.468974254397	0.007540665733
0	1905	17.520495491925	0.00755042606
0	1908	17.528047547163	0.010080138964
0	1915	17.601785314795	0.007566749541
0	1922	17.692476660737	0.007584787084
0	1927	17.771428595656	0.007600434311
0	1932	17.80969342333	0.00760786871
0	1937	17.833675142867	0.007612833061
0	1942	17.908265667678	0.007627765065
0	1947	17.934476080452	0.007632755425
0	1954	17.947601981809	0.007636085961
0	1957	17.955238900858	0.009689586337
0	1962	18.121261748704	0.007671232877
0	1967	18.150169597373	0.007677122176
0	1972	18.219703695499	0.007690617447
0	1977	18.316010510494	0.007710949548
0	1982	18.337025466389	0.007715198942
0	1988	18.511446795956	0.007751079615
0	1993	18.65981334111	0.007782101167
0	1998	18.723501637274	0.007795100223
0	2004	18.783798689722	0.007808142777
0	2009	18.810193296907	0.007813372028
0	2017	18.902017253398	0.00783260602
0	2027	18.909851612659	0.00817367502
0	2030	18.917687725947	0.013681547569
0	2035	18.925525594047	0.020402236498
0	2038	18.933365217745	0.025379386866
0	2041	18.941206597828	0.020645138295
0	2046	18.996297146891	0.007852815795
0	2051	19.018363192426	0.007858105074
0	2056	19.036536340197	0.00786163522
0	2061	19.112889324087	0.007877560207
0	2066	19.14926192483	0.007885546919
0	2071	19.179105590599	0.007891770011
0	2076	19.187603948899	0.007894440059
0	2081	19.220012353721	0.007900677201
0	2089	19.41078209362	0.007942811755
0	2094	19.447102357442	0.007950028393
0	2099	19.482043715264	0.007958162801
0	2104	19.505029545923	0.007962689114
0	2109	19.593354424121	0.007982666211
0	2116	19.608576690257	0.007985398129
0	2119	19.616563910704	0.012126525541
0	2125	19.693625893365	0.008004574042
0	2130	19.726225370652	0.008011903399
0	2138	19.841767279659	0.008037662189
0	2141	19.8498067881	0.012862004317
0	2146	19.867387084105	0.008043203493
0	2152	19.975223611808	0.008067304368
0	2159	20.082123848943	0.007231404959
0	2164	20.111606490719	0.007201646091
0	2172	20.129862090642	0.007183908046
0	2175	20.137041577821	0.010812761026
0	2182	20.150097011151	0.007186120522
0	2185	20.157286822162	0.010396908934
0	2190	20.166053796699	0.007194244604
0	2195	20.204769938322	0.007215007215
0	2202	20.232043433448	0.007229164515
0	2207	20.239276332807	0.010533361014
0	2212	20.246512970872	0.011046490864
0	2215	20.253754100488	0.00813452356
0	2221	20.500543403551	0.007374631268
0	2226	20.529225693013	0.007390202703
0	2231	20.557658266958	0.007405840034
0	2236	20.592114039338	0.007425480004
0	2242	20.640088472448	0.007452358139
0	2249	20.683884015158	0.007477034822
0	2255	20.877340977661	0.007588075881
0	2260	20.925816581773	0.007616974973
0	2265	20.943187849414	0.007626933973
0	2271	20.966527410196	0.007641087218
0	2276	20.996830340982	0.007658643326
0	2281	21.045073019171	0.007688083471
0	2286	21.070474512464	0.007703312424
0	2291	21.07903353122	0.007708402158
0	2296	21.156778093284	0.007755373366
0	2301	21.17290181699	0.007764836384
0	2308	21.220977423209	0.007795100223
0	2313	21.301179704168	0.007844895215
0	2318	21.345973404983	0.007872244714
0	2325	21.354286721656	0.007877560207
0	2328	21.362169604539	0.009105483069
0	2335	21.373590646845	0.007889990983
0	2340	21.381485977321	0.014214441408
0	2343	21.389385762898	0.008196066683
0	2348	21.40230219692	0.007907817442
0	2357	21.434972667172	0.007929315813
0	2360	21.442906476534	0.015221248122
0	2367	21.450845684882	0.023123166557
0	2371	21.458789398	0.015012694319
0	2374	21.466721409331	0.021405693334
0	2382	21.595057538038	0.007449978714
0	2387	21.626012777885	0.007452358139
0	2392	21.642214826731	0.007453151618
0	2399	21.651083556474	0.007453945267
0	2402	21.658538295558	0.01096798345
0	2407	21.71192216031	0.007457916045
0	2412	21.727958272746	0.007459505541
0	2418	21.807251030056	0.007465074118
0	2423	22.020795282337	0.007480230819
0	2428	22.063955338817	0.007483429549
0	2433	22.091420854735	0.007485830392
0	2438	22.150758520566	0.007489835224
0	2443	22.21625955089	0.007494646681
0	2449	22.241054559883	0.007496251874
0	2456	22.288806373749	0.007497857755
0	2462	22.296304231504	0.01262560832
0	2465	22.303802089259	0.010155756738
0	2470	22.33008509894	0.007499464324
0	2475	22.398182290898	0.007501071582
0	2480	22.421442282738	0.007501875469
0	2485	22.444187542131	0.007502679528
0	2491	22.489630488739	0.007504288165
0	2498	22.564609556363	0.007507507508
0	2501	22.572117063871	0.007808898564
0	2507	22.650647915825	0.007509923828
0	2512	22.66356866683	0.007510729614
0	2517	22.713867851002	0.007512341704
0	2523	22.79818227739	0.007515567962
0	2528	22.869674267012	0.007517989475
0	2533	22.885022644444	0.007517989475
0	2538	22.935837117614	0.007519604684
0	2543	22.962247514175	0.007521220587
0	2548	23.01547908502	0.007522837184
0	2556	23.152905818557	0.00752769115
0	2559	23.160433509707	0.015031435791
0	2564	23.169047061582	0.00752769115
0	2569	23.206955705124	0.00752931053
0	2574	23.214805355137	0.00752931053
0	2579	23.224639695822	0.007530120482
0	2584	23.285177782742	0.007531740908
0	2589	23.35847685003	0.007534983854
0	2596	23.400336224155	0.007535795026
0	2599	23.407872830529	0.013805214444
0	2608	23.448890217662	0.007537417896
0	2611	23.456428447255	0.011668670498
0	2614	23.463966676848	0.017059914685
0	2619	23.474190838966	0.007538229593
0	2624	23.501193762696	0.007539853511
0	2633	23.545039674232	0.007540665733
0	2636	23.552581152362	0.01486836547
0	2641	23.560122630492	0.017109712359
0	2644	23.567664108622	0.010497523874
0	2651	23.59955975244	0.007543103448
0	2656	23.660779709724	0.007544729468
0	2665	23.741504540342	0.00754798361
0	2668	23.749052523952	0.011920176653
0	2671	23.756601321536	0.015820556108
0	2676	23.765785703447	0.007548797584
0	2681	23.857076518146	0.007552055238
0	2689	24.078448081312	0.00730917824
0	2694	24.137059433426	0.007316818229
0	2703	24.314490063694	0.007339834329
0	2706	24.321830667721	0.008051983635
0	2711	24.353998086352	0.007345225603
0	2716	24.39213775296	0.007349853003
0	2721	24.458678523616	0.007358351729
0	2726	24.551729352489	0.007370748657
0	2732	24.601809139786	0.007377740304
0	2737	24.649846390839	0.007383966245
0	2742	24.681189528805	0.007387862797
0	2748	24.941590745975	0.007456327226
0	2753	25.038889815331	0.007486631016
0	2758	25.059233245408	0.007493042175
0	2763	25.068704063634	0.007495449192
0	2768	25.161716454215	0.007524454477
0	2773	25.249882812605	0.007552055238
0	2780	25.275958104556	0.007560211686
0	2783	25.283519949646	0.012973053196
0	2788	25.375250463345	0.007591367531
0	2793	25.476134778035	0.007622781226
0	2798	25.555722332169	0.007648601399
0	2805	25.612089984638	0.007666192093
0	2808	25.619758696294	0.00974688402
0	2814	25.647211554961	0.007677964243
0	2819	25.710061672758	0.007698229407
0	2824	25.76575110827	0.007716049383
0	2829	25.854339767393	0.007745076344
0	2834	25.885193503585	0.007755373366
0	2839	25.935571703342	0.007771733096
0	2844	26.011303925959	0.007796836712
0	2851	26.032111845705	0.007803790412
0	2854	26.039918246954	0.00958963753
0	2859	26.048753824397	0.007809885083
0	2864	26.084244998173	0.00782122905
0	2870	26.126038510651	0.007835236176
0	2877	26.228660999885	0.007870474477
0	2880	26.236534130017	0.01437340678
0	2889	26.361304324358	0.007914970602
0	2894	26.369221980732	0.013111136551
0	2897	26.377142324701	0.008586848223
0	2902	26.461219699938	0.007950028393
0	2907	26.475737173249	0.007954545455
0	2912	26.562413412696	0.007984487282
0	2919	26.679631459148	0.008025682183
0	2922	26.687659902777	0.014889518702
0	2927	26.701999865559	0.008033972225
0	2934	26.71235175027	0.008037662189
0	2937	26.720392182156	0.013150400308
0	2942	26.771393391186	0.008058017728
0	2947	26.834159141124	0.008080341683
0	2953	26.953695567188	0.008123476848
0	2958	26.980462531615	0.008132915069
0	2963	27.043410436002	0.008156606852
0	2968	27.109896742919	0.008180437069
0	2973	27.187730869284	0.008209217779
0	2980	27.220159890771	0.008220786847
0	2983	27.228383574982	0.011807015866
0	2990	27.259525799393	0.008235294118
0	2995	27.287775771819	0.008245965367
0	3001	27.314813089713	0.008256664308
0	3006	27.437751193047	0.008302692445
0	3011	27.454915780329	0.008308605341
0	3016	27.527172348569	0.008336310587
0	3021	27.642702221213	0.008380222674
0	3026	27.654218138305	0.008385241974
0	3031	27.709489052973	0.008406388856
0	3036	27.722678315432	0.008411439558
0	3041	27.80046389112	0.008441871684
0	3046	27.913873131288	0.008485877076
0	3055	28.025791075535	0.007360672976
0	3060	28.093738229678	0.007353713625
0	3065	28.108133386151	0.00735216889
0	3070	28.135213685378	0.007349081365
0	3077	28.261375030949	0.007335988262
0	3083	28.445687912331	0.007317583107
0	3090	28.544922776689	0.007307652156
0	3096	28.725658884079	0.007289388733
0	3103	28.760924709504	0.007285595337
0	3106	28.768209546636	0.011651879505
0	3111	28.805793878842	0.007281048471
0	3118	28.844602638173	0.007277263749
0	3121	28.85187914545	0.008449217864
0	3129	28.950177245213	0.007266687429
0	3134	29.021969035301	0.007259904584
0	3139	29.066847042933	0.007255389718
0	3144	29.076357425804	0.007254637786
0	3150	29.190028367157	0.007243377483
0	3156	29.228185514394	0.007239631813
0	3163	29.267920977884	0.007235142119
0	3166	29.275155372262	0.007710767927
0	3174	29.367004446276	0.007225433526
0	3177	29.374229134066	0.010664507421
0	3182	29.420899138146	0.007220216606
0	3187	29.467850567752	0.007215750954
0	3194	29.546159843131	0.007208320461
0	3201	29.579941454693	0.007204610951
0	3204	29.5871453242	0.012184437418
0	3210	29.638326843246	0.007198683669
0	3215	29.654234725939	0.007197203372
0	3220	29.732463512315	0.007189811011
0	3225	29.78201473868	0.007184645386
0	3230	29.98481191966	0.007165523595
0	3237	30.030236623916	0.00716112532
0	3240	30.037397016715	0.009930168455
0	3246	30.237763684134	0.007140671223
0	3252	30.287635997721	0.007136303395
0	3257	30.335605921675	0.007131214344
0	3262	30.378618478681	0.007127583749
0	3267	30.42094485462	0.007123231912
0	3272	30.47352271353	0.007118161481
0	3277	30.535403182586	0.007112375533
0	3282	30.574572803199	0.007108764091
0	3287	30.59396157702	0.007106598985
0	3292	30.634708730101	0.007102993404
0	3297	30.661564260691	0.007100111573
0	3303	30.763013109156	0.00709076175
0	3308	30.80533523075	0.007086454748
0	3313	30.835407422295	0.007083586319
0	3318	30.845268341379	0.007082869574
0	3324	30.883550176201	0.00708143652
0	3329	30.943630118039	0.007087172218
0	3335	31.002350690294	0.007092917216
0	3342	31.0322307753	0.007095793208
0	3345	31.039327287871	0.00950451162
0	3350	31.063509533087	0.007098671534
0	3355	31.09178753301	0.007101552196
0	3363	31.26195870163	0.007117437722
0	3368	31.269076863111	0.008848864496
0	3373	31.276195748497	0.013191745141
0	3376	31.283315357936	0.012897380043
0	3383	31.34162968947	0.007125407166
0	3386	31.348755822016	0.014145148563
0	3391	31.391187658165	0.007130487929
0	3396	31.402955924937	0.007131214344
0	3401	31.429221107033	0.007134121484
0	3406	31.441429805766	0.007134848639
0	3411	31.450422737369	0.007135575943
0	3416	31.486735157393	0.007139214686
0	3421	31.509351466656	0.007141399714
0	3427	31.551578564502	0.007145773785
0	3433	31.56643585207	0.007147233
0	3438	31.653296424277	0.007155269345
0	3443	31.700041849944	0.007159660428
0	3449	31.733391343159	0.007163323782
0	3454	31.889611373292	0.007178750897
0	3463	32.000651030355	0.00718907261
0	3468	32.107699952882	0.007200164575
0	3473	32.132833540632	0.007202387077
0	3478	32.181947284212	0.007206836199
0	3483	32.250202425565	0.007213520198
0	3489	32.305712180748	0.007219471947
0	3494	32.345948594568	0.007223196781
0	3500	32.459689248221	0.007234394378
0	3505	32.50857953767	0.007239631813
0	3511	32.565833315148	0.007244876837
0	3516	32.58159720889	0.007246376812
0	3521	32.615372347742	0.007250129467
0	3526	32.754091389276	0.007263671267
0	3531	32.823376999522	0.007270461155
0	3536	32.896793352178	0.007278020378
0	3541	32.910505114741	0.00727953411
0	3548	32.918373371558	0.007280291212
0	3551	32.925654420029	0.014066053464
0	3558	32.957420787801	0.007284079084
0	3561	32.964705624933	0.010232592202
0	3567	33.235256077065	0.00731223232
0	3574	33.270438410764	0.007316053512
0	3577	33.277755228993	0.012117849261
0	3582	33.306904811807	0.007319878699
0	3587	33.324941913716	0.007321409894
0	3592	33.375839971164	0.007326774126
0	3599	33.443357224853	0.007333682556
0	3608	33.486133557967	0.007337526205
0	3611	33.493471853386	0.012667968745
0	3614	33.500810918179	0.01612382408
0	3619	33.560685650308	0.007345225603
0	3624	33.585919496639	0.007348309889
0	3629	33.628521273532	0.00735216889
0	3634	33.652933787078	0.007354486237
0	3639	33.71872428185	0.00736144705
0	3644	33.73939988407	0.00736377025
0	3649	33.779421740823	0.007367645511
0	3654	33.816848456454	0.007371524853
0	3659	33.957039125498	0.007386303683
0	3664	33.995101354592	0.007390202703
0	3669	34.016366812734	0.007392544091
0	3674	34.055045792078	0.007396449704
0	3679	34.097770629689	0.007400359446
0	3686	34.161074973502	0.007407407407
0	3689	34.168483164845	0.012209865509
0	3694	34.190029326728	0.007410544146
0	3699	34.230341524614	0.007414468806
0	3704	34.276260698815	0.00741918389
0	3711	34.303447899691	0.007422330612
0	3714	34.3108710174	0.013029976637
0	3720	34.509489904251	0.007443641004
0	3725	34.536181555236	0.007446016381
0	3730	34.681773712579	0.007461891056
0	3738	34.804736558087	0.007474639616
0	3741	34.812211995934	0.007508867055
0	3748	34.923205655008	0.007487431811
0	3751	34.930693887785	0.012850346079
0	3758	35.022081869567	0.007497857755
0	3761	35.02958053052	0.008566479177
0	3766	35.048406755006	0.007500267867
0	3773	35.059114268639	0.007501875469
0	3776	35.066616948167	0.010494990843
0	3781	35.128393099936	0.007509118215
0	3786	35.149374677267	0.007511535572
0	3793	35.188639416013	0.007515567962
0	3796	35.196155790973	0.014728169888
0	3803	35.227225091773	0.007519604684
0	3806	35.234745504321	0.01242451505
0	3811	35.2610758072	0.007523645744
0	3820	35.416637987061	0.007534983854
0	3823	35.424173782087	0.014734942575
0	3828	35.49311945362	0.007539853511
0	3833	35.518038921891	0.00754147813
0	3838	35.556840713964	0.00754391637
0	3846	35.89926348941	0.00756593169
0	3859	36.203370474438	0.007108042242
0	3866	36.2891870224	0.007103714228
0	3873	36.398991030742	0.007098671534
0	3880	36.441521846968	0.007097232079
0	3883	36.448618359539	0.009872692967
0	3889	36.456778779346	0.007096512571
0	3895	36.469244329525	0.007095793208
0	3904	36.595819263456	0.007090043553
0	3913	36.691098271735	0.007140671223
0	3918	36.718709497428	0.00715673244
0	3925	36.826515407072	0.007219471947
0	3930	36.874835325557	0.007248627938
0	3936	36.907663241109	0.007268196449
0	3943	36.919021823931	0.007274994804
0	3949	36.931916429536	0.007282563462
0	3955	36.95180831092	0.007294706128
0	3962	37.024849612119	0.007339064793
0	3969	37.04601516624	0.00735216889
0	3972	37.053371971285	0.011571905317
0	3977	37.074275101699	0.007369196758
0	3984	37.083543703292	0.007375408282
0	3987	37.090923777093	0.01363134499
0	3993	37.102717934655	0.007387083157
0	4000	37.156743155247	0.007420756917
0	4005	37.164168635251	0.012954032255
0	4008	37.171598844358	0.011068363802
0	4023	37.48842545395	0.007634420329
0	4030	37.534685166912	0.007665352606
0	4036	37.585201916496	0.007699076111
0	4043	37.633558243812	0.007731389441
0	4049	37.661277169222	0.007750221435
0	4055	37.721169222627	0.007791629564
0	4061	37.748993906857	0.007810756528
0	4066	37.76626682703	0.007822977202
0	4072	37.803355018334	0.007848413499
0	4078	37.820635175283	0.007860752386
0	4083	37.888035483549	0.00790871088
0	4090	37.958474769731	0.007914970602
0	4097	38.046166179628	0.007904245709
0	4103	38.070732972937	0.007901569026
0	4109	38.10003898886	0.007898002934
0	4114	38.108309152368	0.007897111913
0	4119	38.14190071229	0.007893549842
0	4128	38.259720918786	0.007880220646
0	4138	38.276700347266	0.007877560207
0	4141	38.284137372608	0.014656128361
0	4144	38.284577021059	0.013694441193
0	4153	38.387538503614	0.007865168539
0	4156	38.395402788526	0.010295323624
0	4161	38.410253679853	0.007862518252
0	4166	38.441142304011	0.007858987313
0	4172	38.465188845617	0.00785634119
0	4177	38.488874694807	0.007853696847
0	4187	38.680617746166	0.007831729693
0	4193	38.728741316885	0.00782647585
0	4198	38.757432811261	0.007822977202
0	4205	38.867248142927	0.007810756528
0	4211	38.930159453979	0.007803790412
0	4217	38.99083305684	0.007796836712
0	4224	39.017413560503	0.007793364507
0	4228	39.025206057442	0.013336188937
0	4239	39.142050623143	0.007779506557
0	4245	39.150529864163	0.007778642071
0	4254	39.214080340456	0.007771733096
0	4257	39.221851210793	0.009060096402
0	4264	39.253321421006	0.007767421216
0	4272	39.315563722841	0.007760532151
0	4275	39.323323394718	0.011121158003
0	4280	39.343464479881	0.007757092199
0	4285	39.366060961858	0.007754514235
0	4290	39.407541883449	0.007750221435
0	4297	39.441265195916	0.007746790615
0	4305	39.574658716614	0.007731389441
0	4310	39.591351281038	0.007729681979
0	4315	39.663417035746	0.007722007722
0	4320	39.701660032177	0.007717750827
0	4325	39.733501381295	0.007714348689
0	4332	39.745263718957	0.007712648744
0	4335	39.75297551801	0.013168552952
0	4340	39.781608874687	0.007708402158
0	4345	39.817520894099	0.007705008255
0	4350	39.855056021068	0.007700770077
0	4356	39.909908330192	0.007694844454
0	4363	39.965847190771	0.007688927944
0	4367	39.973535274242	0.010728409921
0	4375	40.038456370865	0.00725313439
0	4380	40.053260814994	0.007291666667
0	4388	40.11880713847	0.007376185458
0	4393	40.127189246019	0.007376962799
0	4398	40.154783243898	0.007378517972
0	4403	40.194203616725	0.007381630286
0	4408	40.224641873008	0.007383966245
0	4413	40.38253222354	0.007395668251
0	4419	40.485918501248	0.007403490217
0	4424	40.525973171786	0.007405840034
0	4429	40.548508160404	0.007408191343
0	4434	40.610973799314	0.007412898443
0	4440	40.677955316411	0.007417611529
0	4445	40.749429663185	0.007423117709
0	4452	41.005811850085	0.007442058261
0	4457	41.02485323754	0.007443641004
0	4465	41.154248526674	0.007453151618
0	4468	41.161702471941	0.011080122644
0	4473	41.197919340349	0.007456327226
0	4478	41.235560591988	0.007459505541
0	4485	41.253762367865	0.007461095715
0	4488	41.26122346358	0.007772379727
0	4495	41.309600583757	0.007465074118
0	4498	41.317066454064	0.010237797653
0	4503	41.371946919017	0.007469853804
0	4508	41.381663583555	0.007470651014
0	4513	41.419094981166	0.007473043664
0	4518	41.464493007764	0.007477034822
0	4523	41.485382369081	0.007478632479
0	4529	41.525780267973	0.007481829842
0	4534	41.55616949217	0.007483429549
0	4541	41.612525422337	0.007488232777
0	4544	41.620013655114	0.010709967471
0	4549	41.676817252736	0.007493042175
0	4555	41.694032948103	0.007493844342
0	4560	41.765767910486	0.007499464324
0	4565	41.773595367353	0.007500267867
0	4571	41.787893013018	0.007501071582
0	4576	41.842800570365	0.007505897491
0	4581	41.872389434596	0.007507507508
0	4588	42.032397863115	0.007520412548
0	4593	42.039918275663	0.009922299114
0	4596	42.04743949625	0.008890182273
0	4605	42.174843735441	0.007530930608
0	4608	42.182375476349	0.013627568364
0	4611	42.189908027732	0.019129740066
0	4616	42.245930253607	0.007536606374
0	4621	42.355723808862	0.007544729468
0	4626	42.377585957695	0.007546356188
0	4631	42.386001783465	0.007547169811
0	4638	42.421262614694	0.00755042606
0	4643	42.428813040754	0.010138661899
0	4646	42.436364281315	0.014540352856
0	4651	42.578415991831	0.007562662057
0	4656	42.588202440688	0.007562662057
0	4661	42.603886953191	0.00756429652
0	4668	42.663347103315	0.007569204152
0	4673	42.682191872063	0.00757002271
0	4678	42.728666111641	0.007574118156
0	4683	42.748430638355	0.007575757576
0	4688	42.844444226695	0.007583143755
0	4693	42.863932892293	0.007584787084
0	4700	43.028683441029	0.007597134795
0	4705	43.189100003647	0.007610350076
0	4710	43.211385952346	0.00761200522
0	4715	43.252030875693	0.007615317668
0	4720	43.300446101754	0.007618633
0	4725	43.322715996542	0.007620291748
0	4730	43.352399636206	0.007622781226
0	4735	43.360185388782	0.007623611414
0	4740	43.395408091884	0.007626103061
0	4746	43.443429755323	0.007630259429
0	4751	43.46826948196	0.007631923245
0	4756	43.507746405083	0.007635253054
0	4763	43.697238921714	0.007650273224
0	4770	43.732035062988	0.007652782333
0	4775	43.780899415064	0.007656967841
0	4782	43.935028016561	0.007668711656
0	4785	43.94269756844	0.007687380873
0	4792	44.005338335204	0.007674597084
0	4798	44.064575973878	0.00709076175
0	4803	44.073929259923	0.00709076175
0	4808	44.242634649322	0.007083586319
0	4813	44.296754556901	0.00708143652
0	4819	44.409431140282	0.00713994288
0	4824	44.452688347567	0.007169192954
0	4829	44.49353835004	0.007196463452
0	4836	44.51027847169	0.007208320461
0	4839	44.517491248609	0.01367989134
0	4844	44.603578782915	0.007271971743
0	4849	44.685513955353	0.007329075489
0	4854	44.715304330172	0.007349853003
0	4859	44.849710224497	0.00744522442
0	4864	44.950275305247	0.007518796992
0	4870	45.016524495451	0.007568385771
0	4876	45.049533036973	0.007593014427
0	4881	45.077567883084	0.007613661083
0	4886	45.086507043671	0.007621121394
0	4891	45.110495009394	0.007639419404
0	4896	45.128099524709	0.007652782333
0	4901	45.196398899297	0.007705008255
0	4908	45.246934881828	0.007744219493
0	4911	45.254685103263	0.009788329537
0	4916	45.265191724112	0.007758811793
0	4922	45.342037572667	0.00781948168
0	4928	45.420632244522	0.007805530776
0	4935	45.455148569306	0.007783831869
0	4940	45.462927211377	0.008856906291
0	4943	45.4707015339	0.012996295235
0	4949	45.515366394978	0.007746790615
0	4954	45.601906654558	0.007693998681
0	4959	45.659098433204	0.007659481344
0	4964	45.683938346544	0.00764442503
0	4971	45.735903030419	0.007613661083
0	4976	45.743511726071	0.009577081491
0	4981	45.751116288809	0.012076834233
0	4984	45.758715897972	0.010130617221
0	4989	45.774841406162	0.00759054435
0	4997	45.872886830053	0.007532551383
0	5002	45.880415330806	0.011948083766
0	5005	45.88793897655	0.009989808666
0	5010	45.983379368137	0.007469056765
0	5016	46.060017646804	0.007425480004
0	5021	46.114627608955	0.007394886964
0	5031	46.196102731978	0.007358351729
0	5034	46.203459537023	0.013051352243
0	5037	46.210814796033	0.015882023173
0	5042	46.341481706709	0.007325240686
0	5047	46.370056278916	0.007319113342
0	5052	46.387714456771	0.007315288954
0	5057	46.465057402279	0.007297748123
0	5062	46.678095068823	0.007250129467
0	5069	46.711760764118	0.007242628039
0	5072	46.719001893734	0.011536485285
0	5078	46.815187302017	0.007220216606
0	5083	46.861227075831	0.007209805335
0	5088	46.88510119702	0.007204610951
0	5093	46.915147090694	0.007197943445
0	5098	46.964622093196	0.007187596262
0	5103	47.036761219985	0.007171396373
0	5108	47.048768432499	0.007169192954
0	5113	47.143174740215	0.00714869281
0	5118	47.235494295681	0.007129035543
0	5123	47.251175484858	0.007125407166
0	5128	47.342584580622	0.007105877576
0	5133	47.504586029426	0.007071421356
0	5138	47.546293922367	0.007062859449
0	5144	47.628975628407	0.007045797685
0	5149	47.648482109039	0.007041545116
0	5155	47.662736675405	0.007038712921
0	5160	47.684092648498	0.007042253521
0	5165	47.804234376809	0.007062859449
0	5170	47.849396483008	0.007070707071
0	5177	47.885802245468	0.007077140835
0	5180	47.892880817619	0.007283958495
0	5185	47.929440431041	0.007085020243
0	5190	47.965162657076	0.007091480093
0	5197	48.031526729146	0.007102993404
0	5202	48.049038449246	0.007106598985
0	5209	48.156051451683	0.007125407166
0	5214	48.176950567939	0.007129035543
0	5219	48.228716133244	0.007138486641
0	5227	48.248138306752	0.007142128354
0	5230	48.255281892832	0.008879900802
0	5236	48.343511359503	0.007158928206
0	5241	48.406511690659	0.00717066175
0	5247	48.41616210426	0.007172131148
0	5252	48.446601885961	0.007178014766
0	5258	48.460092769	0.007180223613
0	5263	48.485380775965	0.007184645386
0	5269	48.494367734966	0.007186858316
0	5278	48.51393726659	0.007190549563
0	5281	48.517469021253	0.009961506837
0	5287	48.546917718894	0.007196463452
0	5292	48.57464477608	0.007201646091
0	5298	48.675536004324	0.007219471947
0	5306	48.768431307024	0.007236638065
0	5313	48.910691282509	0.007263671267
0	5321	49.02723558032	0.007284837132
0	5326	49.043831594345	0.007287870901
0	5332	49.077248053303	0.007294706128
0	5342	49.170421953867	0.00731223232
0	5348	49.197781691066	0.007316818229
0	5353	49.231701256474	0.007323707889
0	5362	49.333031515587	0.007342914088
0	5368	49.348700100977	0.007345996432
0	5373	49.386298300567	0.007352941176
0	5378	49.400984061722	0.007356031946
0	5384	49.44076853697	0.007362995687
0	5392	49.492448152623	0.007373077733
0	5398	49.544851167687	0.007383187427
0	5405	49.57084621032	0.007388642601
0	5408	49.578235632889	0.010630027674
0	5416	49.664705969715	0.007406623638
0	5425	49.755887485046	0.007423904974
0	5435	49.784478244568	0.007429420505
0	5438	49.791909242445	0.009272312642
0	5446	49.880794366777	0.007448393275
0	5452	49.918801014519	0.007456327226
0	5457	49.957829462354	0.007463482248
0	5464	50.088045970288	0.007489033915
0	5472	50.198202852872	0.007506702413
0	5479	50.237981537086	0.00750348376
0	5485	50.312627598348	0.007497054728
0	5490	50.333569306636	0.007495449192
0	5496	50.349749741677	0.007494646681
0	5503	50.414590741946	0.007489033915
0	5508	50.422869516719	0.007488232777
0	5514	50.538499835564	0.007479431563
0	5519	50.629795094929	0.007472245944
0	5524	50.677677400828	0.007468259895
0	5534	50.744902568888	0.007462686567
0	5539	50.752365255455	0.0120499474
0	5542	50.759827146511	0.014062620011
0	5548	50.858737678339	0.007453945267
0	5557	50.886569928046	0.007451564829
0	5560	50.892552761849	0.012527348134
0	5566	50.944019687644	0.007446808511
0	5572	51.000713077807	0.007442849548
0	5577	51.029570805764	0.00744047619
0	5586	51.144713599867	0.007430997877
0	5591	51.163678256801	0.007429420505
0	5596	51.172244106743	0.007429420505
0	5603	51.270960039723	0.007421543681
0	5608	51.308513203805	0.007418397626
0	5614	51.3740838544	0.007412898443
0	5619	51.435127396714	0.007408191343
0	5624	51.443364928728	0.007408191343
0	5629	51.453013757121	0.007407407407
0	5634	51.463072741608	0.007406623638
0	5639	51.477136137839	0.007405056596
0	5647	51.538955137394	0.007400359446
0	5651	51.546354714561	0.011355471977
0	5656	51.597831426217	0.007395668251
0	5661	51.606488975074	0.007394886964
0	5669	51.635302403037	0.007392544091
0	5672	51.642694947128	0.00849773867
0	5679	51.675951599547	0.007389422569
0	5685	51.693120597094	0.007388642601
0	5692	51.833330496617	0.007377740304
0	5700	51.902754590179	0.007372301211
0	5710	52.096208837022	0.007356805045
0	5715	52.155361178545	0.00735216889
0	5721	52.209247174873	0.007348309889
0	5726	52.281142729253	0.007342914088
0	5731	52.307023295863	0.007340604027
0	5737	52.360910536197	0.007336757153
0	5742	52.427081967089	0.007331378299
0	5748	52.506126661171	0.007325240686
0	5753	52.539738885176	0.00732294173
0	5758	52.547802709853	0.007322175732
0	5763	52.617474559429	0.007316818229
0	5768	52.657878486876	0.007313760318
0	5775	52.666401794506	0.007312996239
0	5778	52.673714790745	0.013541324434
0	5783	52.683997712243	0.00731223232
0	5789	52.717825279754	0.00730917824
0	5794	52.730680262836	0.007308415118
0	5799	52.823381805381	0.007301554188
0	5805	53.009822277904	0.007287112222
0	5810	53.041780149307	0.007284837132
0	5815	53.09424913567	0.007281048471
0	5820	53.111767071012	0.00727953411
0	5825	53.124284062963	0.007278777165
0	5831	53.140337943475	0.007277263749
0	5837	53.154093882731	0.007276507277
0	5842	53.179097558852	0.007274238803
0	5847	53.225527620054	0.007271216371
0	5852	53.348085410583	0.007261410788
0	5858	53.450876087645	0.00725388601
0	5865	53.633918144833	0.007240380637
0	5868	53.641157776646	0.008554217245
0	5874	53.708830321186	0.007234394378
0	5879	53.823796883742	0.007226179416
0	5886	54.042922146836	0.007209805335
0	5891	54.069024587281	0.007207578254
0	5896	54.14084373581	0.007202387077
0	5901	54.149904165473	0.007201646091
0	5906	54.166623955769	0.007200905257
0	5911	54.188529486864	0.007198683669
0	5919	54.217081745016	0.007197203372
0	5922	54.224278208468	0.007755068824
0	5928	54.287928247809	0.007191288268
0	5933	54.30365272029	0.007190549563
0	5938	54.365428348413	0.007186120522
0	5943	54.419185207992	0.007181696932
0	5948	54.475861134103	0.007178014766
0	5953	54.509909499709	0.007175071751
0	5958	54.543367900559	0.007172866072
0	5963	54.600913312469	0.007168458781
0	5970	54.608636155937	0.007167724759
0	5973	54.615803880696	0.008853288302
0	5979	54.774600621498	0.007156000818
0	5986	54.899864818056	0.007164790174
0	5991	54.912304597904	0.007173601148
0	5997	54.938104409804	0.007192766132
0	6003	55.132338241193	0.007341373886
0	6012	55.178711316157	0.007378517972
0	6015	55.186095282402	0.007947222461
0	6018	55.193485485105	0.0149550925
0	6024	55.382520033581	0.007542290701
0	6029	55.41608883924	0.00757002271
0	6034	55.439698089511	0.007589721349
0	6040	55.583955907886	0.007712648744
0	6045	55.667311603552	0.007784697509
0	6054	55.698769791768	0.0078125
0	6057	55.706589273448	0.015266039419
0	6060	55.714415749298	0.016013618412
0	6065	55.735687335024	0.00784577449
0	6070	55.754901402215	0.007862518252
0	6077	55.76922827666	0.007875787579
0	6080	55.777111159543	0.008368278643
0	6086	55.835972888216	0.007935608208
0	6091	55.891423316996	0.007858105074
0	6096	55.945730575799	0.007777777778
0	6103	56.041278933699	0.007179487179
0	6110	56.072247078509	0.007160392799
0	6113	56.079403079327	0.01197681454
0	6121	56.135864356315	0.007121057986
0	6124	56.142981070426	0.013145798672
0	6131	56.328683533827	0.007414468806
0	6138	56.341529327848	0.007413683542
0	6141	56.348942226291	0.009932290279
0	6146	56.357914210821	0.007412113511
0	6153	56.399264342506	0.007408191343
0	6156	56.406672533849	0.014603197032
0	6162	56.455817404604	0.007403490217
0	6167	56.476804004015	0.0074019245
0	6172	56.526949552256	0.007398013105
0	6177	56.535760586178	0.007397231322
0	6182	56.550966692453	0.007395668251
0	6188	56.63391127244	0.007388642601
0	6193	56.737856300739	0.007380073801
0	6198	56.765309512227	0.007377740304
0	6204	56.779395800004	0.007376962799
0	6209	56.792911727042	0.007375408282
0	6214	56.88610806711	0.007367645511
0	6221	57.014530266297	0.007357578306
0	6226	57.04633987228	0.007354486237
0	6231	57.063510348744	0.007352941176
0	6236	57.071230842536	0.00735216889
0	6242	57.254550305219	0.007337526205
0	6247	57.341443788028	0.007330610535
0	6254	57.348826217172	0.007329842932
0	6257	57.356155292661	0.010588528626
0	6263	57.439466115103	0.007322175732
0	6268	57.518694727961	0.007316053512
0	6274	57.594575549091	0.00730917824
0	6280	57.640387798899	0.007305364225
0	6285	57.689599091298	0.007301554188
0	6291	57.794231045382	0.00729318608
0	6297	57.825091307521	0.007290907197
0	6302	57.906363991662	0.007284079084
0	6307	57.931925715165	0.007281805888
0	6312	57.957629223867	0.00727953411
0	6321	58.124835615011	0.007266687429
0	6324	58.132101548164	0.007270223633
0	6329	58.18300248943	0.007261410788
0	6334	58.198477094859	0.007260657608
0	6341	58.32050099601	0.007250880464
0	6344	58.327751125477	0.014434839596
0	6349	58.359716752358	0.007247127032
0	6355	58.412692666573	0.007243377483
0	6362	58.439627507014	0.007241129616
0	6365	58.446867887651	0.010011941679
0	6370	58.456243263576	0.007239631813
0	6375	58.466121701302	0.007238883144
0	6380	58.49671882853	0.007236638065
0	6385	58.510767654164	0.007235142119
0	6391	58.656198240502	0.007223942208
0	6396	58.682248430032	0.007221706386
0	6401	58.719205076276	0.007218727441
0	6406	58.777246269515	0.00721426363
0	6411	58.823759929212	0.007210548002
0	6416	58.853149115834	0.007208320461
0	6421	58.908938668922	0.007203869507
0	6426	58.943971548978	0.007200905257
0	6434	59.020367821426	0.007194984068
0	6437	59.02756206603	0.009497130694
0	6442	59.101495685507	0.00718833436
0	6448	59.122132834074	0.007187596262
0	6453	59.150859389128	0.007187596262
0	6458	59.1624350974	0.007187596262
0	6463	59.199832924509	0.00718833436
0	6468	59.26702176393	0.00718907261
0	6475	59.296947269951	0.00718907261
0	6478	59.304136342561	0.013487631189
0	6483	59.38783375686	0.007190549563
0	6488	59.435793138921	0.007190549563
0	6494	59.573910263157	0.007192027124
0	6499	59.633758697639	0.007192766132
0	6504	59.675297681448	0.007193505292
0	6509	59.710421511936	0.007193505292
0	6518	59.722153522159	0.007194244604
0	6521	59.729347766763	0.012113640651
0	6526	59.736542011367	0.014866142022
0	6529	59.743736255971	0.007603394174
0	6534	59.840280930758	0.007194984068
0	6539	59.853859925928	0.007194984068
0	6544	59.905782995212	0.007195723684
0	6549	59.92136583316	0.007195723684
0	6556	60.023173262091	0.007197203372
0	6561	60.038444517742	0.007197203372
0	6566	60.200071694069	0.007199424046
0	6573	60.380144968113	0.007200905257
0	6579	60.42710504361	0.007201646091
0	6584	60.505415427022	0.007202387077
0	6589	60.567993052741	0.007203128216
0	6594	60.678773974025	0.007204610951
0	6599	60.693074417214	0.007204610951
0	6605	60.75557650149	0.007205352548
0	6610	60.789244871953	0.007205352548
0	6615	60.810528627183	0.007206094297
0	6620	60.929457337987	0.007206836199
0	6625	61.071698980068	0.007209062822
0	6630	61.102358101313	0.007209062822
0	6635	61.135484649983	0.007209062822
0	6640	61.169159941575	0.007209805335
0	6646	61.179414990423	0.007209805335
0	6652	61.198536496972	0.007209805335
0	6658	61.263911254395	0.007210548002
0	6663	61.354030008608	0.007212033794
0	6669	61.369038332369	0.007212033794
0	6674	61.428761493439	0.007212776919
0	6679	61.515281932467	0.007213520198
0	6684	61.571671366681	0.00721426363
0	6689	61.639117975808	0.007215007215
0	6694	61.695248543405	0.007215750954
0	6701	61.712387167595	0.007215750954
0	6704	61.719602918549	0.010894908028
0	6709	61.746700754242	0.007216494845
0	6714	61.813559629452	0.007217238891
0	6719	61.876340010503	0.007217238891
0	6724	61.961661606455	0.007218727441
0	6730	62.016795695255	0.007219471947
0	6737	62.140584710582	0.007220216606
0	6744	62.177973910359	0.007220961419
0	6747	62.185194871778	0.010413810269
0	6752	62.194051039788	0.007220961419
0	6757	62.229628976815	0.007221706386
0	6762	62.249236163496	0.007221706386
0	6767	62.257066162468	0.007221706386
0	6772	62.316405174152	0.007222451506
0	6777	62.329466036086	0.007222451506
0	6784	62.359997521639	0.007223196781
0	6787	62.36722071842	0.009591811712
0	6792	62.428120468979	0.007223942208
0	6797	62.4666571913	0.007223942208
0	6803	62.524276950323	0.00722468779
0	6808	62.636091336422	0.007226179416
0	6813	62.658067127278	0.007226179416
0	6820	62.666364579155	0.007226179416
0	6823	62.673590758571	0.009234410267
0	6828	62.706468144412	0.007226925459
0	6833	62.763563626421	0.007227671657
0	6838	62.812232080482	0.007227671657
0	6843	62.834203316005	0.007228418009
0	6850	62.983638233453	0.007229911175
0	6855	63.02525465088	0.007229911175
0	6862	63.073885521422	0.00723065799
0	6865	63.081116179412	0.00778502186
0	6870	63.127124375707	0.007231404959
0	6875	63.135016823824	0.007231404959
0	6880	63.1433261027	0.007231404959
0	6887	63.170895260072	0.007232152082
0	6892	63.195280135688	0.007232152082
0	6898	63.250619987067	0.007232899359
0	6905	63.279198970459	0.007232899359
0	6908	63.286431869818	0.008217975408
0	6913	63.314389577097	0.007233646791
0	6920	63.388850371205	0.007234394378
0	6925	63.424618315824	0.007234394378
0	6930	63.519932583915	0.007235890014
0	6935	63.542698609597	0.007235890014
0	6940	63.598531482344	0.007236638065
0	6945	63.659572464776	0.00723738627
0	6950	63.728809797032	0.007238134629
0	6955	63.807239415896	0.007238883144
0	6960	63.820861376396	0.007238883144
0	6967	63.833625569147	0.007238883144
0	6970	63.84086520096	0.009195652978
0	6975	63.851846599068	0.007239631813
0	6980	63.871805568526	0.007239631813
0	6991	64.064243583119	0.007130487929
0	6996	64.071374797463	0.007554163962
0	6999	64.07850673837	0.013310217913
0	7004	64.099265317573	0.007134121484
0	7009	64.137241407759	0.007137758744
0	7016	64.20884003191	0.007145773785
0	7019	64.215986535228	0.010968945018
0	7026	64.228667000237	0.007147962831
0	7029	64.235815693047	0.008633707003
0	7035	64.331184041466	0.007158928206
0	7040	64.376916084465	0.007164056903
0	7045	64.407082941843	0.007166990888
0	7050	64.417997562519	0.007168458781
0	7055	64.426829500598	0.007169192954
0	7060	64.477291387413	0.007174336374
0	7065	64.528697512456	0.007180223613
0	7070	64.574406347121	0.007185382878
0	7075	64.603268618848	0.00718833436
0	7081	64.769384606779	0.007206094297
0	7086	64.789427842277	0.007208320461
0	7091	64.85919509604	0.007215750954
0	7096	64.895522895672	0.007220216606
0	7102	64.971878741051	0.007228418009
0	7109	65.207834782034	0.00725388601
0	7113	65.21508941982	0.009629324194
0	7119	65.282415021289	0.007262164125
0	7124	65.321897819381	0.007266687429
0	7129	65.339275788019	0.007268951194
0	7134	65.362547765983	0.007271216371
0	7140	65.493729088812	0.007285595337
0	7145	65.519819914114	0.007288629738
0	7150	65.529998634984	0.007290147886
0	7155	65.682244726254	0.007306889353
0	7162	65.708472211167	0.00730994152
0	7165	65.715782916128	0.008495389409
0	7170	65.737908630647	0.007312996239
0	7175	65.790281839469	0.007319113342
0	7180	66.002668859018	0.007342914088
0	7189	66.101856623099	0.007353713625
0	7192	66.109211109336	0.01448176928
0	7195	66.116567141282	0.015912988003
0	7201	66.160401126935	0.007360672976
0	7206	66.2219002226	0.007367645511
0	7212	66.25743517785	0.007371524853
0	7217	66.269855964537	0.007373077733
0	7222	66.278332995891	0.007373854419
0	7227	66.297468886654	0.007376185458
0	7232	66.348791291409	0.007382408775
0	7237	66.440346071127	0.007392544091
0	7245	66.522831527746	0.0074019245
0	7248	66.530234235022	0.012683001822
0	7253	66.597793680885	0.007410544146
0	7260	66.677502160861	0.00741997032
0	7263	66.684922917778	0.010800534171
0	7268	66.768143941331	0.007430209107
0	7273	66.847414939675	0.007439685408
0	7278	66.869072235841	0.007442058261
0	7283	66.890299919842	0.007444432628
0	7288	66.938968031966	0.007449978714
0	7294	67.034708316559	0.007461095715
0	7299	67.070142433709	0.007465074118
0	7304	67.111434911825	0.007469853804
0	7312	67.126341019112	0.007471448394
0	7315	67.133814062776	0.010779085324
0	7321	67.206903784384	0.007481030245
0	7328	67.275187501532	0.007489033915
0	7331	67.282677336756	0.014064835647
0	7336	67.317566305746	0.007494646681
0	7341	67.356166718123	0.007498660953
0	7346	67.386192517172	0.007502679528
0	7351	67.548312849373	0.007521220587
0	7356	67.599188232523	0.00752769115
0	7362	67.644192764305	0.007532551383
0	7367	67.673519922607	0.007536606374
0	7374	67.692807273356	0.007539041465
0	7379	67.700347126867	0.013197679764
0	7382	67.7078877926	0.009434766097
0	7387	67.827930333763	0.007554500324
0	7393	67.994933712917	0.007574937777
0	7400	68.011535071572	0.007206094297
0	7405	68.053953959564	0.007209062822
0	7414	68.070334374999	0.007209805335
0	7419	68.077544923001	0.013954645992
0	7422	68.084755471003	0.018615044805
0	7425	68.091966761824	0.016167922276
0	7430	68.146199155609	0.007215007215
0	7435	68.170023148539	0.007216494845
0	7441	68.290125532151	0.007223942208
0	7446	68.319976782215	0.007225433526
0	7451	68.351062620358	0.007227671657
0	7456	68.373408722407	0.007229164515
0	7462	68.457547787554	0.007234394378
0	7468	68.585350284078	0.007242628039
0	7473	68.605286572834	0.007243377483
0	7478	68.623963131473	0.007244876837
0	7483	68.648249760614	0.007246376812
0	7489	68.733904192456	0.007251631617
0	7494	68.751151752065	0.00725313439
0	7499	68.858327487723	0.007259904584
0	7504	68.875801754516	0.007260657608
0	7509	68.903156484363	0.007262164125
0	7517	68.944355235588	0.007265179035
0	7520	68.951621168741	0.014217624644
0	7525	68.964392155141	0.007266687429
0	7532	68.984961283066	0.00726744186
0	7535	68.992229479515	0.011132610207
0	7540	69.12123879108	0.007276507277
0	7545	69.179845002063	0.007280291212
0	7550	69.27286949025	0.0072863537
0	7555	69.291324811951	0.007287112222
0	7560	69.33233710825	0.007290147886
0	7565	69.357241106701	0.007291666667
0	7571	69.411098849658	0.007294706128
0	7576	69.42140736799	0.007295466389
0	7583	69.520039446586	0.007301554188
0	7586	69.527341762463	0.012072629042
0	7591	69.54510482163	0.007303839733
0	7596	69.598214612995	0.007306889353
0	7601	69.617673557635	0.007308415118
0	7606	69.645189114586	0.00730994152
0	7611	69.695483941817	0.007312996239
0	7617	69.830193389961	0.007322175732
0	7626	69.873950291437	0.007324474207
0	7629	69.881275532123	0.013694429798
0	7632	69.888601539449	0.016656406438
0	7637	69.966394483819	0.007330610535
0	7644	69.993897859468	0.007332146224
0	7649	70.001230773778	0.013729400995
0	7654	70.008564456334	0.014423479226
0	7657	70.01589813889	0.012261615268
0	7664	70.044564850532	0.007335988262
0	7667	70.051900838794	0.013975341705
0	7672	70.084329956707	0.007338295419
0	7677	70.119936948898	0.007340604027
0	7682	70.14251366637	0.007342143906
0	7687	70.164340140446	0.007343684431
0	7692	70.198038665675	0.007345996432
0	7697	70.217201280745	0.007346767422
0	7703	70.276854647331	0.007350624803
0	7709	70.460108378035	0.007362995687
0	7714	70.468061462841	0.007362995687
0	7719	70.511207696928	0.007366094917
0	7724	70.529763979724	0.007367645511
0	7731	70.660234850586	0.007421543681
0	7737	70.692236932995	0.00744047619
0	7742	70.802197822656	0.007508312775
0	7747	70.854390788571	0.007540665733
0	7752	70.875146796803	0.007553685119
0	7757	70.942018343642	0.007595486111
0	7762	70.99505251052	0.007629427793
0	7768	71.012826902947	0.007641087218
0	7773	71.023682570431	0.00764776576
0	7779	71.055086373525	0.007667871618
0	7784	71.077846437247	0.007682177349
0	7789	71.092979696911	0.007692307692
0	7797	71.150742240622	0.007729681979
0	7800	71.158477047252	0.008840490421
0	7805	71.199460416963	0.007762253271
0	7812	71.212466824849	0.007770870337
0	7815	71.220242874616	0.01110799633
0	7822	71.38705985011	0.007888212756
0	7825	71.394953399952	0.01171370562
0	7831	71.476685155246	0.007950028393
0	7838	71.550438130557	0.00800091439
0	7843	71.599577200029	0.008035816783
0	7848	71.659995735986	0.00807847663
0	7853	71.675880502828	0.008090614887
0	7858	71.728206142177	0.008128193219
0	7863	71.805269303149	0.008184262832
0	7868	71.817754567713	0.008193842912
0	7874	71.990088758717	0.008335317933
0	7881	72.065401676707	0.007066424389
0	7886	72.073054477642	0.007066424389
0	7893	72.11606665545	0.007066424389
0	7898	72.123133079839	0.009475541762
0	7902	72.130199504228	0.008585558621
0	7907	72.137577330195	0.007066424389
0	7912	72.146663798725	0.007066424389
0	7918	72.259966052418	0.007066424389
0	7923	72.308450917372	0.007066424389
0	7928	72.323639611114	0.007066424389
0	7933	72.515100223364	0.007066424389
0	7938	72.554366769667	0.007066424389
0	7943	72.598469875278	0.007066424389
0	7948	72.776963964467	0.007065711113
0	7953	72.794453694322	0.007065711113
0	7959	72.933317943215	0.007065711113
0	7965	72.996275107065	0.007065711113
0	7970	73.036786873964	0.007065711113
0	7975	73.048145323435	0.007065711113
0	7980	73.083169341815	0.007065711113
0	7985	73.134442404889	0.007065711113
0	7990	73.155160251	0.007065711113
0	7999	73.181873850057	0.007065711113
0	8002	73.18893956117	0.013005328806
0	8005	73.196005272283	0.018506707449
0	8010	73.217781322479	0.007065711113
0	8015	73.254106092081	0.007065711113
0	8020	73.268635718377	0.007065711113
0	8027	73.304049839459	0.007065711113
0	8030	73.311115550572	0.01382227953
0	8040	73.425836560531	0.007065711113
0	8043	73.432902271644	0.011632606667
0	8048	73.490378378448	0.007064997981
0	8053	73.607806100333	0.007064997981
0	8058	73.625914292227	0.007064997981
0	8063	73.63395556233	0.007064997981
0	8068	73.685758912865	0.007064997981
0	8073	73.696551160791	0.007064997981
0	8078	73.710935387271	0.007064997981
0	8083	73.746518881444	0.007064997981
0	8088	73.799606415422	0.007064997981
0	8093	73.846059836693	0.007064997981
0	8098	73.892054875058	0.007064997981
0	8103	73.900041913799	0.007064997981
0	8108	73.947700786005	0.007064997981
0	8113	73.969131423759	0.007064997981
0	8118	73.977916162963	0.007064997981
0	8123	74.18825191205	0.007064997981
0	8129	74.250263758937	0.007064997981
0	8135	74.327991542352	0.007064284993
0	8140	74.366571148224	0.007064284993
0	8145	74.378298832392	0.007064284993
0	8151	74.446097746509	0.007064284993
0	8162	74.608784630433	0.007064284993
0	8165	74.615848915426	0.011843619281
0	8168	74.622913200419	0.017246021957
0	8173	74.678759359133	0.007064284993
0	8178	74.7000378106	0.007064284993
0	8183	74.850086813385	0.007064284993
0	8189	75.108857009191	0.007063572149
0	8194	75.152909338067	0.007063572149
0	8199	75.19384950392	0.007063572149
0	8204	75.201399306416	0.007063572149
0	8209	75.244135768014	0.007063572149
0	8214	75.37283795009	0.007063572149
0	8220	75.491976160928	0.007063572149
0	8225	75.532538878123	0.007063572149
0	8230	75.59775641424	0.007063572149
0	8235	75.614002512288	0.007063572149
0	8240	75.654420243503	0.007063572149
0	8245	75.703081878356	0.007063572149
0	8250	75.807083341806	0.007063572149
0	8258	75.904995196161	0.007063572149
0	8263	75.91205876831	0.01074911364
0	8266	75.919122340459	0.01208147787
0	8271	75.984551715096	0.007064997981
0	8278	76.025563165655	0.007065711113
0	8283	76.057618631038	0.007066424389
0	8289	76.107703872572	0.007067851373
0	8294	76.115347185019	0.007067851373
0	8301	76.245614093588	0.007070707071
0	8308	76.279999199575	0.007071421356
0	8311	76.287070620931	0.012196035278
0	8316	76.375719057049	0.007073565077
0	8322	76.411125914788	0.007074279939
0	8328	76.47404800955	0.007074994946
0	8333	76.540004448315	0.007076425394
0	8338	76.568765029365	0.007077140835
0	8343	76.622661760055	0.007078572151
0	8350	76.688846273304	0.007080004046
0	8355	76.787663372744	0.00708143652
0	8361	76.801778893187	0.007082152975
0	8368	76.855198746935	0.007082869574
0	8371	76.862282333254	0.008113013921
0	8378	76.911186917309	0.007084303208
0	8381	76.918271220517	0.011226328406
0	8386	76.96119790769	0.007085020243
0	8391	76.972737276913	0.007085737423
0	8396	76.981734754806	0.007085737423
0	8404	77.131461918897	0.007088607595
0	8409	77.227905084246	0.00709076175
0	8416	77.296427544322	0.007092198582
0	8421	77.33269705925	0.007092917216
0	8429	77.420285380408	0.007095073991
0	8432	77.427380454399	0.013111031502
0	8438	77.494766463149	0.007110930516
0	8444	77.580664140535	0.007139214686
0	8449	77.590773195901	0.007142857143
0	8454	77.649117381398	0.007162590811
0	8459	77.697034413658	0.007178750897
0	8464	77.7506133328	0.007197203372
0	8471	77.818219065862	0.007220216606
0	8474	77.825442262643	0.011785898293
0	8480	77.864911931441	0.007236638065
0	8485	77.926047748141	0.007257646449
0	8490	77.946808256407	0.007265179035
0	8495	77.967440601445	0.007271971743
0	8500	78.004151313758	0.007284837132
0	8506	78.088409515712	0.007314524556
0	8511	78.170279083059	0.007343684431
0	8516	78.178765585059	0.007346767422
0	8521	78.197814024877	0.007353713625
0	8526	78.218252017075	0.007360672976
0	8534	78.260405155973	0.007376185458
0	8537	78.267783673945	0.009313839642
0	8544	78.313456090601	0.007394886964
0	8549	78.320854103706	0.013866566211
0	8552	78.328254463152	0.011756736798
0	8557	78.343449607548	0.007405840034
0	8562	78.356755539654	0.007410544146
0	8568	78.416872902205	0.007432575918
0	8573	78.499997202767	0.007462686567
0	8578	78.527224898659	0.007473043664
0	8583	78.597966445463	0.007499464324
0	8588	78.615659921783	0.007505897491
0	8593	78.623301668209	0.007508312775
0	8598	78.760994897283	0.007560211686
0	8603	78.805239208417	0.007577397705
0	8608	78.870123251127	0.007602085143
0	8613	78.892262278922	0.007610350076
0	8620	79.070444200083	0.007678806494
0	8625	79.080699938149	0.007683020525
0	8630	79.098751306361	0.007689772602
0	8635	79.165530393216	0.007716049383
0	8640	79.176319744699	0.007720304401
0	8646	79.285190847371	0.007763114118
0	8651	79.457921662835	0.00783260602
0	8658	79.491131754744	0.007846653963
0	8661	79.498981048308	0.011556733072
0	8667	79.520132770826	0.007858105074
0	8672	79.597135176332	0.007889990983
0	8677	79.608654877017	0.007894440059
0	8683	79.755856674099	0.007955449483
0	8690	79.859073917216	0.007996344528
0	8695	79.922398623591	0.008016491067
0	8700	79.949506937279	0.008024762123
0	8706	79.992238594504	0.008038585209
0	8713	80.013561425091	0.007201646091
0	8718	80.036580209756	0.007201646091
0	8723	80.044696902543	0.007201646091
0	8728	80.062212030806	0.007201646091
0	8735	80.120578704442	0.007201646091
0	8738	80.127780350533	0.010930640617
0	8744	80.166198367048	0.007201646091
0	8749	80.190009448346	0.007201646091
0	8755	80.222330369344	0.007201646091
0	8760	80.257280929122	0.007201646091
0	8765	80.292296223825	0.007201646091
0	8770	80.306600785147	0.007201646091
0	8775	80.420185413047	0.007201646091
0	8780	80.59487872459	0.007202387077
0	8785	80.619866158067	0.007202387077
0	8790	80.946559449023	0.007203128216
0	8795	81.11052113595	0.007203128216
0	8801	81.127609122092	0.007203128216
0	8806	81.181523351314	0.007203128216
0	8811	81.227369404813	0.007203128216
0	8816	81.239042751326	0.007203128216
0	8821	81.346231204834	0.007203869507
0	8826	81.419161245128	0.007203869507
0	8831	81.462979863222	0.007203869507
0	8836	81.494399457462	0.007203869507
0	8841	81.516082279676	0.007203869507
0	8846	81.540639249104	0.007203869507
0	8851	81.634137197427	0.007203869507
0	8856	81.663152503584	0.007203869507
0	8861	81.700768437579	0.007203869507
0	8866	81.731666311737	0.007203869507
0	8873	81.779955765863	0.007209805335
0	8878	81.915142517911	0.007280291212
0	8883	81.985903097288	0.007318348144
0	8889	82.016782278768	0.007334450964
0	8894	82.033795027723	0.007343684431
0	8899	82.048841955956	0.00735216889
0	8907	82.106821767503	0.007383187427
0	8913	82.215463757505	0.007442849548
0	8918	82.230970976606	0.007451564829
0	8925	82.30785449021	0.007494646681
0	8930	82.360727883045	0.007524454477
0	8935	82.405847254044	0.007549611734
0	8940	82.420682861321	0.007558578987
0	8945	82.451661554702	0.007575757576
0	8951	82.531248529035	0.00762195122
0	8956	82.590688574324	0.007656967841
0	8961	82.612033938115	0.007668711656
0	8967	82.726861525019	0.007737371504
0	8974	82.888437788358	0.007835236176
0	8979	82.900213139544	0.00784225857
0	8984	82.909739870161	0.007848413499
0	8990	82.984148563826	0.007894440059
0	8997	83.046667805836	0.007768283209
0	9002	83.093872871596	0.007811628166
0	9008	83.190504994493	0.007901569026
0	9013	83.231070215187	0.007939208348
0	9018	83.333666509354	0.008038585209
0	9023	83.432423254529	0.008135750814
0	9028	83.469161382611	0.008172796264
0	9036	83.753307963683	0.008461259519
0	9041	83.793153216903	0.008452064719
0	9046	83.840270245131	0.008439836026
0	9054	83.857688117629	0.008435767655
0	9057	83.866121852569	0.015639888571
0	9063	83.956009216605	0.008411439558
0	9071	84.007502508625	0.008399328054
0	9077	84.078171118988	0.007234394378
0	9083	84.125350990497	0.007248627938
0	9088	84.161374253708	0.007259904584
0	9093	84.169714186661	0.007262164125
0	9098	84.204681237751	0.007272727273
0	9103	84.285792109726	0.007296987387
0	9108	84.41178091646	0.007335988262
0	9113	84.436501671901	0.007343684431
0	9120	84.477664234384	0.007356031946
0	9125	84.485022586113	0.012110930845
0	9130	84.492383259089	0.014544254771
0	9136	84.499746254776	0.008548706921
0	9139	84.507111574641	0.010189798042
0	9144	84.514886399152	0.007367645511
0	9149	84.58766257177	0.007390202703
0	9154	84.679282116191	0.00741918389
0	9159	84.716603529228	0.007430997877
0	9164	84.762398870495	0.00744522442
0	9170	84.803049592772	0.007458710709
0	9176	84.829377460149	0.007466666667
0	9181	84.857749924019	0.007476236249
0	9188	84.876048202189	0.007481829842
0	9191	84.883532431848	0.01381806144
0	9196	84.897617512361	0.007489033915
0	9203	84.978931048195	0.007514761138
0	9206	84.986448230326	0.010096127851
0	9214	85.007902833262	0.007524454477
0	9217	85.015429714982	0.01371198643
0	9222	85.040451838196	0.007534983854
0	9227	85.112818024431	0.007558578987
0	9232	85.141882180833	0.007568385771
0	9239	85.209151682795	0.007589721349
0	9242	85.216744697222	0.008006299504
0	9247	85.242683541329	0.007601259637
0	9255	85.407874235967	0.007656130373
0	9258	85.415532879293	0.01476149023
0	9266	85.568777458508	0.007789895393
0	9273	85.631357579453	0.00796812749
0	9276	85.639349359337	0.015468760137
0	9284	85.761736664161	0.008118765948
0	9287	85.76985166532	0.013428164773
0	9293	85.885823431617	0.008056162965
0	9301	85.910213807294	0.008044127787
0	9304	85.918253315735	0.009918569453
0	9309	86.116543844847	0.007941910597
0	9314	86.136375456189	0.007932011331
0	9320	86.169228784467	0.007915865656
0	9325	86.184471877394	0.00790871088
0	9330	86.31238876693	0.007846653963
0	9335	86.369163249713	0.00781948168
0	9340	86.390058156767	0.007809885083
0	9345	86.424527086026	0.007793364507
0	9350	86.458704296089	0.007777777778
0	9355	86.510370252869	0.007753655295
0	9360	86.598577935437	0.007712648744
0	9366	86.71932020762	0.007656967841
0	9371	86.773033722649	0.007632755425
0	9376	86.812313966296	0.007615317668
0	9381	86.830609721778	0.007607041947
0	9386	86.842285143578	0.007602085143
0	9391	86.872770908062	0.007588075881
0	9396	86.933700966901	0.0075610283
0	9402	86.982602096117	0.007539041465
0	9407	87.007103261003	0.007528500753
0	9412	87.03270700595	0.007517182131
0	9417	87.094549784737	0.007489835224
0	9422	87.105592802571	0.00748502994
0	9427	87.115616437483	0.007481030245
0	9432	87.128339594558	0.007475437847
0	9437	87.158722830022	0.007462686567
0	9442	87.226161387861	0.007433365191
0	9447	87.237288367683	0.00742863207
0	9452	87.249097844789	0.007423904974
0	9457	87.289053565037	0.007406623638
0	9462	87.299307009842	0.0074019245
0	9467	87.453554036226	0.007337526205
0	9472	87.47047767275	0.007329842932
0	9477	87.47937523101	0.007326007326
0	9483	87.704996513361	0.007233646791
0	9488	87.723876719559	0.007226179416
0	9494	87.961801511524	0.007130487929
0	9499	87.976720517497	0.007124681934
0	9506	88.014612716853	0.012337842385
0	9512	88.036572360235	0.007111652951
0	9517	88.048872453132	0.007115990648
0	9523	88.089844234578	0.007131214344
0	9529	88.119150317542	0.007141399714
0	9536	88.165530897718	0.007158196135
0	9543	88.272819471469	0.007196463452
0	9549	88.33049495798	0.007217983089
0	9554	88.37384479496	0.007233646791
0	9559	88.394385140184	0.007241129616
0	9573	88.509855029293	0.007284079084
0	9579	88.561147117854	0.007303077726
0	9586	88.667339222684	0.007342914088
0	9592	88.69591948411	0.007353713625
0	9601	88.780096506613	0.007385524372
0	9604	88.787485149214	0.013395730322
0	9614	88.889197706414	0.007427843803
0	9620	88.94820225862	0.007450771687
0	9626	88.984179376385	0.007465074118
0	9636	89.043637569706	0.007488232777
0	9641	89.052885711868	0.007491438356
0	9646	89.071805887991	0.007499464324
0	9653	89.14742442198	0.00752931053
0	9661	89.231722890933	0.007562662057
0	9673	89.475570531373	0.007661996497
0	9678	89.490473642154	0.007667871618
0	9683	89.544775052637	0.007690617447
0	9689	89.58720299036	0.007708402158
0	9694	89.601403029141	0.007714348689
0	9699	89.627767197436	0.007725416621
0	9707	89.759462936853	0.007780371235
0	9714	89.803351793741	0.007799442897
0	9722	89.932071785975	0.007854578097
0	9728	89.980390560222	0.007875787579
0	9737	90.109309711356	0.007885546919
0	9741	90.117195258275	0.009480321972
0	9750	90.169978854363	0.007882882883
0	9753	90.17711166735	0.012914002835
0	9759	90.311359963257	0.007876673793
0	9766	90.37572866732	0.007873130132
0	9771	90.388976973686	0.007873130132
0	9777	90.40087978417	0.007872244714
0	9785	90.44366046977	0.007870474477
0	9788	90.451530059427	0.013016527639
0	9797	90.697418113741	0.007858105074
0	9804	90.79504030596	0.007853696847
0	9817	91.05871340301	0.007841380083
0	9822	91.069369066323	0.007841380083
0	9832	91.150085839433	0.007836990596
0	9842	91.251777168041	0.00783260602
0	9848	91.295988094169	0.007830853563
0	9854	91.30755413351	0.007829977629
0	9861	91.356950819106	0.007827351001
0	9864	91.364778170107	0.011731542995
0	9871	91.385778618683	0.00782647585
0	9876	91.393605094533	0.01452331153
0	9879	91.401430695427	0.009751369841
0	9887	91.488111184315	0.007822103028
0	9892	91.601517255519	0.007816862088
0	9898	91.668472539283	0.007813372028
0	9904	91.712454334412	0.007811628166
0	9910	91.829610076999	0.007805530776
0	9915	91.851832905827	0.007804660497
0	9920	91.909828804051	0.007802050825
0	9925	91.929650926494	0.007801181322
0	9930	91.943237175371	0.007800312012
0	9937	91.952701694013	0.007800312012
0	9942	91.960502006025	0.011025541621
0	9946	91.968301448922	0.008593719474
0	9955	92.044110556014	0.00725313439
0	9960	92.099189734639	0.007254637786
0	9965	92.107417201653	0.007254637786
0	9970	92.124285748143	0.007255389718
0	9976	92.233927101529	0.007258399005
0	9981	92.252980867599	0.007259151716
0	9986	92.294792371462	0.007259904584
0	9991	92.388040565943	0.007262917618
0	9998	92.405465840558	0.007263671267
0	10001	92.412729511825	0.009614777734
0	10006	92.480567703431	0.007265933153
0	10011	92.629501500908	0.007269706096
0	10016	92.704205616371	0.007271971743
0	10021	92.731014955222	0.007272727273
0	10026	92.838370687607	0.007276507277
0	10033	92.926226119737	0.007278777165
0	10036	92.933504896902	0.007505989594
0	10041	93.020120210621	0.007281805888
0	10046	93.06860701166	0.007282563462
0	10051	93.125976068224	0.007284837132
0	10058	93.152971878658	0.007285595337
0	10061	93.160257473995	0.011859440154
0	10066	93.218769839108	0.007287112222
0	10071	93.271939461714	0.007288629738
0	10076	93.302529135741	0.007290147886
0	10082	93.332110063393	0.007290907197
0	10087	93.439021738718	0.007293946025
0	10092	93.457607649606	0.007294706128
0	10097	93.587471848766	0.007298509019
0	10106	93.624054653285	0.007299270073
0	10109	93.631353923358	0.012476843911
0	10114	93.680795000807	0.007300792657
0	10119	93.689437936639	0.007301554188
0	10124	93.714162069855	0.007302315877
0	10129	93.762413490147	0.007303077726
0	10135	93.788697949624	0.007303839733
0	10140	93.803803535852	0.007310704961
0	10145	93.815938426488	0.007316053512
0	10150	93.865120442112	0.007336757153
0	10155	93.87422901349	0.007340604027
0	10160	93.903051084643	0.007353713625
0	10166	93.951815295443	0.007374631268
0	10171	93.979128465594	0.007386303683
0	10180	94.163106771753	0.007468259895
0	10183	94.170578220147	0.013724548955
0	10186	94.178052859763	0.016036633202
0	10192	94.367343090209	0.007560211686
0	10199	94.420860436462	0.007584787084
0	10202	94.428449334988	0.014562289742
0	10207	94.467270418259	0.007607041947
0	10212	94.483291877196	0.007614489285
0	10217	94.552169714839	0.00764609503
0	10222	94.562122919439	0.007651109411
0	10228	94.581352096764	0.007660319545
0	10233	94.617986323555	0.007677122176
0	10240	94.633158977502	0.007684707432
0	10243	94.640847060973	0.01535301378
0	10248	94.65010824757	0.007692307692
0	10253	94.662249393219	0.007698229407
0	10258	94.753243872321	0.007741650077
0	10263	94.782160387786	0.007755373366
0	10269	94.876672713655	0.007802050825
0	10278	95.024373801696	0.007874901564
0	10283	95.108185406091	0.007916760914
0	10288	95.16422174545	0.007944614686
0	10295	95.180558330608	0.007952738014
0	10298	95.188515588764	0.0096729113
0	10303	95.21053876084	0.00796812749
0	10308	95.29683210957	0.008012820513
0	10313	95.3139826401	0.008021083992
0	10320	95.383334735608	0.008057090239
0	10326	95.441342413681	0.008087810514
0	10331	95.487177864719	0.008112179859
0	10336	95.500585713897	0.008118765948
0	10341	95.560889721681	0.008150908244
0	10346	95.628866829493	0.008187134503
0	10352	95.72688792998	0.00824014126
0	10358	95.805669361505	0.008283043427
0	10363	95.852414886025	0.008309591643
0	10368	95.89054497587	0.008330358205
0	10374	95.922560664092	0.008323424495
0	10381	95.932134730547	0.008308605341
0	10385	95.940431518505	0.014909446308
0	10390	95.949031294521	0.008283043427
0	10399	96.079963102346	0.00732294173
0	10404	96.121866195655	0.007350624803
0	10409	96.141169062788	0.00736377025
0	10416	96.20764241288	0.007408191343
0	10421	96.215056096422	0.013699837066
0	10426	96.222474494048	0.009908733729
0	10429	96.229898399022	0.014069383521
0	10434	96.275519855188	0.007454739084
0	10439	96.300248449958	0.007471448394
0	10444	96.419957650102	0.007555315704
0	10449	96.57894318807	0.007668711656
0	10454	96.64487208647	0.007716900011
0	10459	96.660550068756	0.00772882853
0	10466	96.770280419795	0.007809885083
0	10469	96.778096409076	0.008181774337
0	10475	96.937289349922	0.007938308006
0	10481	96.974598715877	0.007967220578
0	10488	96.990654931381	0.007979936161
0	10491	96.998641240565	0.008553336275
0	10496	97.009744650899	0.007994518045
0	10501	97.053430922807	0.008029364533
0	10507	97.168963225537	0.008122534231
0	10512	97.183493835741	0.008133860098
0	10517	97.20819011756	0.008154706431
0	10524	97.253563788466	0.008191925102
0	10527	97.261762429834	0.010681003613
0	10532	97.292575796548	0.008224650452
0	10537	97.341456414138	0.008265438659
0	10542	97.383708839287	0.008300723349
0	10547	97.416292032219	0.008328375967
0	10552	97.45681628139	0.008363201912
0	10557	97.467488140881	0.008373205742
0	10562	97.606562231932	0.008495145631
0	10568	97.730594285459	0.0085731782
0	10573	97.743479770955	0.0085731782
0	10578	97.776158219305	0.0085731782
0	10583	97.834018241621	0.0085731782
0	10589	98.070535455674	0.008571078731
0	10594	98.0927847635	0.008571078731
0	10599	98.109300541265	0.008571078731
0	10606	98.118960495215	0.008571078731
0	10609	98.127531573946	0.014068020887
0	10614	98.141925082819	0.008570029383
0	10621	98.261029589705	0.008570029383
0	10624	98.269599619088	0.008944362309
0	10629	98.286790325116	0.008568980291
0	10634	98.298858242243	0.008568980291
0	10640	98.427580324511	0.008568980291
0	10645	98.466183188345	0.008567931457
0	10651	98.499325199099	0.008567931457
0	10656	98.508504108958	0.008567931457
0	10661	98.567605339409	0.008567931457
0	10668	98.744637578218	0.008565834557
0	10671	98.753203412775	0.010953381063
0	10678	98.858041737659	0.008565834557
0	10683	98.873409189255	0.008565834557
0	10688	98.896154209273	0.008564786492
0	10693	98.952951681411	0.008564786492
0	10698	98.963461735971	0.008564786492
0	10705	99.115577516844	0.008563738684
0	10710	99.133930050953	0.008563738684
0	10716	99.219669574489	0.008562691131
0	10722	99.287993850123	0.008562691131
0	10728	99.40543769063	0.008561643836
0	10733	99.418707927943	0.008561643836
0	10738	99.49322106189	0.008560596796
0	10743	99.554948779985	0.008560596796
0	10748	99.733765141607	0.008559550012
0	10753	99.744788677659	0.008559550012
0	10758	99.758383642059	0.008559550012
0	10768	99.838285871674	0.008558503485
0	10771	99.846844375159	0.010590121059
0	10776	99.855402878644	0.017357545429
0	10779	99.863961382129	0.012159967027
0	10784	99.903311570961	0.008558503485
0	10789	99.946695302403	0.008557457213
0	10794	99.961257765544	0.008557457213
0	10803	99.984414979885	0.008557457213
0	10806	99.992972437098	0.013248943075
0	10811	100.001529894311	0.020016471519
0	10818	100.083096887739	0.007169927276
0	10823	100.090267549489	0.007681515472
0	10827	100.097438945862	0.007686215688
0	10832	100.113433937533	0.007173601148
0	10838	100.175538463467	0.007180223613
0	10846	100.195970859627	0.007182433819
0	10849	100.203154030484	0.008965578171
0	10854	100.220475977701	0.007183908046
0	10859	100.273864605417	0.00718907261
0	10864	100.315546749894	0.007192027124
0	10870	100.440448637998	0.007202387077
0	10877	100.493727313639	0.007207578254
0	10880	100.500934891893	0.01104676008
0	10886	100.590260628771	0.007215750954
0	10891	100.601525681561	0.007216494845
0	10896	100.625420762623	0.007217983089
0	10901	100.699357104864	0.00722468779
0	10906	100.838396094436	0.007236638065
0	10911	100.876805214124	0.007239631813
0	10916	100.900795375982	0.00724187875
0	10922	101.140789315516	0.007262164125
0	10928	101.16831715409	0.007264425073
0	10933	101.190926299413	0.007266687429
0	10939	101.217672667307	0.007268951194
0	10944	101.246585872745	0.007271216371
0	10949	101.318928470716	0.007277263749
0	10954	101.353679242824	0.007280291212
0	10961	101.420615958614	0.0072863537
0	10964	101.427903070836	0.007455284212
0	10969	101.455176141282	0.007289388733
0	10974	101.475069129363	0.007290907197
0	10979	101.496046815825	0.007292426294
0	10986	101.532781484393	0.007296226808
0	10989	101.540077711201	0.010289465543
0	10994	101.558653379816	0.007298509019
0	10999	101.573292474241	0.007299270073
0	11006	101.703282632072	0.007310704961
0	11009	101.710594100633	0.010695669176
0	11014	101.721629611654	0.00731223232
0	11019	101.741849091048	0.007313760318
0	11025	101.777649265184	0.007316818229
0	11030	101.788149291317	0.007318348144
0	11035	101.874044779309	0.007325240686
0	11042	101.925944978448	0.007329842932
0	11048	101.992776638043	0.007335988262
0	11054	102.061356574129	0.007342143906
0	11059	102.084523588166	0.007343684431
0	11064	102.118048281408	0.007346767422
0	11069	102.165339556556	0.007350624803
0	11074	102.198283617389	0.007353713625
0	11079	102.262016977559	0.007359125315
0	11084	102.283141675903	0.00736144705
0	11089	102.304371712248	0.007362995687
0	11099	102.464253759569	0.007376962799
0	11102	102.471631499873	0.008403549723
0	11107	102.7214113766	0.007400359446
0	11112	102.754065992149	0.007402707276
0	11117	102.805474866172	0.007407407407
0	11122	102.841965961146	0.007410544146
0	11127	102.935582904057	0.00741918389
0	11132	102.955735859344	0.007420756917
0	11137	102.979290420905	0.007423117709
0	11142	103.128025863467	0.007436523956
0	11147	103.172346391794	0.00744047619
0	11152	103.25418188635	0.007447600809
0	11157	103.277234890914	0.007449978714
0	11164	103.369509189085	0.007457916045
0	11169	103.518353881307	0.007471448394
0	11174	103.573094983225	0.007476236249
0	11179	103.619892158427	0.007481030245
0	11184	103.654663488473	0.007484229659
0	11189	103.766941778438	0.007493844342
0	11195	103.774998727946	0.007494646681
0	11200	103.823122061241	0.007499464324
0	11207	103.840237062505	0.007501071582
0	11210	103.847738937974	0.01057397868
0	11215	103.867547711401	0.00750348376
0	11222	103.885980197903	0.007505092742
0	11225	103.893486095394	0.013804892927
0	11230	103.932151252533	0.007509118215
0	11235	103.94795272211	0.007510729614
0	11242	104.071438438835	0.007382408775
0	11255	104.203750263525	0.007365319865
0	11262	104.25720794161	0.007358351729
0	11268	104.295046890368	0.007353713625
0	11276	104.316916564803	0.007350624803
0	11279	104.322896602897	0.01052300329
0	11284	104.373344794206	0.007343684431
0	11292	104.518607394817	0.007324474207
0	11297	104.568666739835	0.007318348144
0	11305	104.632251922906	0.00730994152
0	11312	104.811110065994	0.007287112222
0	11317	104.820722781238	0.0072863537
0	11327	104.867455610026	0.007280291212
0	11330	104.874735144136	0.009329283269
0	11334	104.882013164514	0.016201968921
0	11340	104.985922461563	0.007265179035
0	11348	105.20341394119	0.00723738627
0	11355	105.279899138223	0.007228418009
0	11360	105.287772694489	0.007226925459
0	11365	105.303746934922	0.007225433526
0	11373	105.326140674512	0.007222451506
0	11376	105.333362380898	0.007323073358
0	11389	105.50036835716	0.007200905257
0	11394	105.518213035442	0.007198683669
0	11403	105.573996621923	0.007191288268
0	11408	105.58281840286	0.007190549563
0	11413	105.640159279824	0.007183170857
0	11418	105.694150205979	0.007176542957
0	11427	105.722598391543	0.007172866072
0	11435	105.805695528223	0.007162590811
0	11441	105.831292083001	0.007159660428
0	11447	105.893538696469	0.007173601148
0	11452	105.911605630678	0.007178014766
0	11457	105.9188578804	0.007180223613
0	11466	105.990492206703	0.007197943445
0	11470	105.997691630749	0.01147575277
0	11475	106.016060322269	0.007203869507
0	11482	106.048504826969	0.007212033794
0	11487	106.055719090599	0.007803660789
0	11493	106.062934841553	0.011997915495
0	11496	106.070152824642	0.007862579147
0	11502	106.11199345499	0.007228418009
0	11510	106.119763724652	0.007229911175
0	11513	106.125279686367	0.008886262097
0	11520	106.237627203489	0.007259904584
0	11528	106.30655427148	0.007277263749
0	11533	106.3221517349	0.007281048471
0	11538	106.372988393883	0.007293946025
0	11543	106.386138141988	0.007297748123
0	11548	106.400529123862	0.007301554188
0	11555	106.45376386815	0.007314524556
0	11558	106.461080686379	0.009796181464
0	11565	106.476494512608	0.007320644217
0	11570	106.485355910889	0.00732294173
0	11575	106.566815639659	0.007343684431
0	11581	106.609471712448	0.00735525901
0	11586	106.667542025902	0.007369972626
0	11591	106.675252413654	0.007372301211
0	11596	106.719779206761	0.007383966245
0	11602	106.737804070136	0.007388642601
0	11610	106.770164816612	0.007397231322
0	11613	106.777563611665	0.008967998659
0	11618	106.799618288186	0.007405056596
0	11624	106.840174092154	0.007415254237
0	11630	106.86926006099	0.007423117709
0	11635	106.933433490664	0.00744047619
0	11643	106.994828883596	0.007456327226
0	11650	107.034120660002	0.007466666667
0	11653	107.041589716767	0.011894261952
0	11658	107.10362653568	0.007485830392
0	11663	107.116795793635	0.007489033915
0	11671	107.193037275241	0.007533362032
0	11676	107.253242914975	0.00760786871
0	11683	107.304459381671	0.007672073652
0	11688	107.366234150386	0.007751079615
0	11695	107.414483146124	0.007814244251
0	11700	107.457001595199	0.007871359496
0	11707	107.53613111494	0.007978117164
0	11713	107.551308460479	0.007999085819
0	11721	107.632670052594	0.008113120074
0	11726	107.645463743634	0.008131025671
0	11732	107.667075895776	0.008162313433
0	11737	107.705249852417	0.008217891524
0	11747	107.799323269385	0.008322434907
0	11752	107.814612941425	0.008308605341
0	11764	107.942737708782	0.00818905007
0	11774	108.00906682068	0.007270461155
0	11777	108.016338792423	0.01055022083
0	11783	108.086058640646	0.007284837132
0	11788	108.178525318611	0.007302315877
0	11795	108.242072977871	0.007314524556
0	11798	108.249389031383	0.013413921435
0	11803	108.292895025973	0.007324474207
0	11808	108.32882556875	0.007330610535
0	11813	108.440764194402	0.00735216889
0	11820	108.550490820048	0.007373077733
0	11825	108.590715532497	0.007380851961
0	11830	108.621471737299	0.007387083157
0	11835	108.638042718082	0.007390202703
0	11840	108.662031043094	0.007394886964
0	11845	108.675609160993	0.007398013105
0	11852	108.732460339765	0.007408975445
0	11857	108.739870883911	0.009546527136
0	11860	108.747282212656	0.011907803735
0	11865	108.790878862255	0.00741997032
0	11870	108.910575613347	0.007443641004
0	11877	108.983040778032	0.007457916045
0	11883	109.032399188006	0.007467463196
0	11888	109.079522724183	0.007477034822
0	11895	109.146807976795	0.007490636704
0	11898	109.154299415151	0.007880450788
0	11903	109.171681591046	0.007495449192
0	11909	109.23208093118	0.00750348376
0	11914	109.287300015325	0.007508312775
0	11919	109.354497470248	0.007513954487
0	11924	109.431246995996	0.007520412548
0	11930	109.454263757651	0.007522837184
0	11935	109.471560767686	0.007524454477
0	11940	109.511193118179	0.00752769115
0	11947	109.54451774629	0.007530930608
0	11952	109.552048676898	0.011050141524
0	11955	109.559580417806	0.008382666001
0	11960	109.60437102932	0.007535795026
0	11967	109.615511133401	0.007536606374
0	11970	109.623048551297	0.014132977642
0	11976	109.689791342872	0.007543103448
0	11981	109.711190320761	0.00754554274
0	11986	109.749301500037	0.007548797584
0	11991	109.83208476636	0.007556131261
0	11996	109.887067012794	0.0075610283
0	12001	109.936618769127	0.007565114017
0	12006	109.945572576615	0.00756593169
0	12011	109.969066412139	0.007568385771
0	12016	110.012426347934	0.007571660357
0	12022	110.13499290184	0.007583143755
0	12027	110.198475013286	0.007588898526
0	12034	110.247809397675	0.007593014427
0	12039	110.26567270428	0.007594662038
0	12044	110.39841574374	0.007606215365
0	12050	110.541171312742	0.007619462284
0	12057	110.57477255963	0.007622781226
0	12060	110.582395340856	0.009881144097
0	12067	110.633243867972	0.007627765065
0	12070	110.64087246431	0.010342564045
0	12075	110.689632947985	0.007632755425
0	12082	110.737788468487	0.007636919049
0	12085	110.745426220806	0.012615133311
[...]
22	20534	189.354621825013	1.1025554550012
22	20627	190.457177280014	2.7893276961769
22	20967	193.246504976191	1.0053572322919
22	21081	194.251862208483	1.4932405541057
22	21233	195.745102762589	0.24827686282158
22	21249	195.993379625411	0.26400598695972
22	21289	196.257385612371	0.73406865153355
22	21360	196.991454263905	1.4173629211203
22	21504	198.408817185025	2.5987327941833
22	21855	201.007549979208	1.0557662366293
22	21968	202.063316215837	2.9213802743401
22	22242	204.984696490177	3.2918042673179
22	22596	208.276500757495	0.81094833704175
22	22670	209.087449094537	0.94666793283401
22	22785	210.034117027371	0.78610117143795
22	22886	210.820218198809	3.5361712936471
22	23260	214.356389492456	0.91421254758662
22	23364	215.270602040043	3.2946017768874
22	23797	218.56520381693	5.479572141602
22	24332	224.044775958532	4.7146445325027
22	24776	228.759420491035	1.1274467385491
22	24927	229.886867229584	1.3272825725455
22	25099	231.214149802129	1.2724876846482
22	25209	232.486637486777	0.18374058241671
22	25225	232.670378069194	4.2941835109229
22	25617	236.964561580117	5.3310987189267
22	26202	242.295660299044	2.103860541419
22	26465	244.399520840463	0.38360159500024
22	26490	244.783122435463	1.3431671725462
22	26642	246.126289608009	4.5668129971133
22	27162	250.693102605122	0.29072407100468
22	27216	250.983826676127	1.9683402106192
22	27429	252.952166886746	0.011111425950285
22	27430	252.963278312696	0.33623618195578
22	27468	253.299514494652	5.1587904734854
22	28007	258.458304968137	2.5076215027911
22	28257	260.965926470928	0.11063627367891
22	28258	261.076562744607	0.66731855873921
22	28377	261.743881303346	3.3040782502388
22	28678	265.047959553585	1.3729194774139
22	28830	266.420879030999	2.1183458971398
22	28991	268.539224928139	1.9564421446252
22	29247	270.495667072764	3.9217908546219
22	29622	274.417457927386	1.2914059949674
22	29750	275.708863922353	2.0556862804049
22	29969	277.764550202758	6.5419896066009
22	30540	284.306539809359	6.7834258758661
22	31271	291.089965685225	0.63130113932264
22	31365	291.721266824548	1.2462693513005
22	31516	292.967536175848	1.2148404752877
22	31671	294.182376651136	4.0638202529899
22	32012	298.246196904126	2.2274450380315
22	32237	300.473641942158	0.68849222663664
22	32312	301.162134168795	3.0743659516839
22	32620	304.236500120479	2.3790262417419
22	32877	306.615526362221	3.2811735826701
22	33188	309.896699944891	5.9470831524455
22	33873	315.843783097336	0.80341881899697
22	33959	316.647201916333	2.0086967185764
22	34158	318.655898634909	1.0399763727244
22	34310	319.695875007633	1.4082485550015
22	34443	321.104123562634	1.0018204326852
22	34516	322.105943995319	4.8324335683625
22	35031	326.938377563682	0.20457941708776
22	35050	327.14295698077	0.87941246944494
22	35126	328.022369450215	1.4961226652421
22	35242	329.518492115457	5.7322007108925
22	35863	335.250692826349	6.4802254558933
22	36573	341.730918282242	0.60561427787572
22	36668	342.336532560118	0.45046549483309
22	36697	342.786998054951	0.64682794870154
22	36746	343.433826003653	1.3629921527541
22	36926	344.796818156407	1.2332935197214
22	37011	346.030111676128	7.519408693365
22	37942	353.549520369493	0.060531405372927
22	37943	353.610051774866	0.091796423374468
22	37953	353.70184819824	2.2700353952953
22	38225	355.971883593535	0.48161730214203
22	38283	356.453500895677	1.8849436173338
22	38489	358.338444513011	0.16960846955916
22	38509	358.50805298257	2.0069230308747
22	38672	360.514976013445	0.028240176144182
22	38683	360.543216189589	0.77850334516752
22	38777	361.321719534757	0.26244881966323
22	38806	361.58416835442	5.9424367538547
22	39404	367.526605108275	3.6853459402986
22	39816	371.211951048574	0.83441640377501
22	39896	372.046367452349	0.8459122850834
22	39967	372.892279737432	1.0039875571828
22	40056	373.896267294615	2.5388191882291
22	40345	376.435086482844	9.0649531522795
22	41323	385.500039635123	3.4345862667725
22	41703	388.934625901896	0.25102437796207
22	41730	389.185650279858	3.3139209627878
22	42120	392.499571242646	3.7184189777995
22	42547	396.217990220445	2.5937164251074
22	42834	398.811706645552	0.30696087498188
22	42857	399.118667520534	0.029256972948429
22	42858	399.147924493482	0.40296111169807
22	42904	399.55088560518	1.4211186758806
23	1671	15.12502430315	3.2440018659352
23	1985	18.369026169085	7.9765924022226
23	2884	26.345618571308	0.89585319318953
23	2986	27.241471764498	0.072309626507027
23	3000	27.313781391005	1.580895435866
23	3124	28.894676826871	2.0638637544963
23	3332	30.958540581367	5.6036017497158
23	3899	36.562142331083	0.89158966672778
23	4019	37.453731997811	1.1833767103257
23	4183	38.637108708137	0.041204307810238
23	4186	38.678313015947	1.3314491181248
23	4372	40.009762134072	1.0599612264752
23	4460	41.069723360547	0.42262209730432
23	4526	41.492345457851	8.7957080799726
23	5482	50.288053537824	2.4183246993013
23	5786	52.706378237125	1.1793894972336
23	5882	53.885767734359	3.7175941367448
23	6277	57.603361871104	0.4346823965782
23	6316	58.038044267682	3.3244702587006
23	6668	61.362514526383	2.6837996855105
23	6986	64.046314211893	2.1126624442332
23	7200	66.158976656126	4.4088783594179
23	7727	70.567855015544	1.3731198868317
23	7871	71.940974902376	0.23121458974463
23	7915	72.172189492121	2.4322026626255
23	8159	74.604392154746	2.8942687968106
23	8441	77.498660951557	11.774546758832
23	9666	89.273207710389	5.2994719570389
23	10225	94.572679667428	0.33623411548279
23	10274	94.908913782911	0.00076594572858362
23	10275	94.90967972864	0.4766817900434
23	10323	95.386361518683	0.35140490403875
23	10355	95.737766422722	2.688392037495
23	10639	98.426158460217	0.95535684304821
23	10725	99.381515303265	0.71476715320989
23	10826	100.096282456475	3.206775209352
23	11161	103.303057665827	4.2897499596854
23	11717	107.592807625512	1.5946321875408
23	11906	109.187439813053	5.5791582812541
23	12437	114.766598094307	0.79929359230601
23	12525	115.565891686613	0.86211847038062
23	12637	116.428010156994	0.062465711690851
23	12643	116.490475868685	0.29685003619134
23	12662	116.787325904876	2.2107508492975
23	12890	118.998076754174	0.05582893816022
23	12891	119.053905692334	3.4666869828623
23	13211	122.520592675196	6.5073524165281
23	13863	129.027945091724	0.64271048772126
23	13907	129.670655579445	1.2684983925535
23	14097	130.939153971998	0.29440084061285
23	14154	131.233554812611	4.4127139680197
23	14565	135.646268780631	1.4968666611923
23	14764	137.143135441823	1.3257039128125
23	14901	138.468839354636	1.3320543914562
23	15018	139.800893746092	0.43772502163216
23	15067	140.238618767724	2.8929606868975
23	15402	143.131579454622	3.7152040485617
23	15826	146.846783503184	5.5705711160729
23	16499	152.417354619257	1.4506940256252
23	16630	153.868048644882	4.9309921814225
23	17188	158.799040826305	3.3045137762917
23	17565	162.103554602597	1.1721931830966
23	17660	163.275747785694	0.46523241289995
23	17737	163.740980198594	7.1323340007602
23	18545	170.873314199354	1.2765265417564
23	18694	172.14984074111	3.3974656043834
23	19069	175.547306345493	4.2092771744952
23	19581	179.756583519988	0.02645434652426
23	19585	179.783037866512	4.3749278072674
23	20044	184.157965673779	1.9671009377177
23	20248	186.125066611497	0.34429777992487
23	20268	186.469364391422	0.19151711822937
23	20288	186.660881509651	0.23503476566736
23	20324	186.895916275318	1.0438315300337
23	20408	187.939747805352	0.073376704048374
23	20414	188.0131245094	2.1735705945954
23	20601	190.186695103995	0.19117615677656
23	20610	190.377871260772	0.040180537147621
23	20620	190.41805179792	0.88576572147362
23	20746	191.303817519394	0.047727516133813
23	20757	191.351545035528	0.54861233767733
23	20825	191.900157373205	3.0404190943712
23	21128	194.940576467576	3.0225173430189
23	21469	197.963093810595	1.5007025762031
23	21656	199.463796386798	0.30371359936291
23	21721	199.767509986161	2.7190857698666
23	21991	202.486595756028	4.3964384922616
23	22417	206.88303424829	2.809304897986
23	22750	209.692339146276	2.9090546508661
23	23103	212.601393797142	0.17442975795491
23	23128	212.775823555097	2.8148783152164
23	23412	215.590701870313	0.60003842409179
23	23456	216.190740294405	0.2166487835383
23	23483	216.407389077943	2.523228245891
23	23829	218.930617323834	2.6630100533066
23	24123	221.593627377141	8.6950155525621
23	24973	230.288642929703	1.8021465294408
23	25183	232.090789459144	1.283204600475
23	25302	233.373994059619	0.36547537856081
23	25331	233.73946943818	3.0193076031874
23	25600	236.758777041367	0.17469375185475
23	25616	236.933470793222	6.9058319830185
23	26370	243.83930277624	5.7539366192969
23	27032	249.593239395537	0.8379685066207
23	27130	250.431207902158	1.9345276691802
23	27375	252.365735571338	0.22523391465314
23	27391	252.590969485991	0.34005765597023
23	27428	252.931027141961	0.25012468040941
23	27447	253.18115182237	5.3052303262254
23	28013	258.486382148595	0.63056729042854
23	28057	259.116949439024	0.78800400264212
23	28150	259.904953441666	0.94906956592581
23	28235	260.854023007592	0.29175152473203
23	28260	261.145774532324	1.5261780909865
23	28480	262.67195262331	3.4933139588418
23	28816	266.165266582152	1.5610423943284
23	28921	267.72630897648	0.81188735726888
23	28990	268.538196333749	0.25414566140444
23	29017	268.792341995153	1.0220081401425
23	29148	269.814350135295	1.0752563155957
23	29291	270.889606450891	0.95564541289144
23	29382	271.845251863782	0.70831417823706
23	29444	272.553566042019	1.1727735422427
23	29579	273.726339584262	0.46799179704789
23	29621	274.19433138131	2.8942875406593
23	29885	277.088618921969	0.79035457664345
23	29975	277.878973498612	1.8366211225483
23	30138	279.71559462116	2.2992748198578
23	30323	282.014869441018	9.2315466706315
23	31292	291.24641611165	4.7618804814197
23	31840	296.00829659307	2.0042418340784
23	31989	298.012538427148	0.098182648269298
23	32000	298.110721075417	3.2850552490563
23	32330	301.395776324473	0.6711306167673
23	32389	302.06690694124	1.1104450183391
23	32489	303.177351959579	0.38667188732515
23	32525	303.564023846904	2.225075020459
23	32778	305.789098867363	0.077394983432374
23	32783	305.866493850795	1.1403907126888
23	32905	307.006884563484	0.9794864275599
23	33016	307.986370991044	1.9653017637554
23	33199	309.951672754799	1.4468603030537
23	33377	311.398533057853	5.8673189207838
23	34010	317.265851978637	0.25595716502508
23	34052	317.521809143662	2.4356455407068
23	34329	319.957454684369	0.63172098035906
23	34417	320.589175664728	2.4234788968815
23	34616	323.01265456161	2.2359785752173
23	34843	325.248633136827	1.1113462332029
23	34957	326.35997937003	0.906451403101
23	35061	327.266430773131	2.7354731407156
23	35305	330.001903913847	1.5302970661345
23	35471	331.532200979981	4.4815589223637
23	35917	336.013759902345	0.52194737142954
23	35986	336.535707273775	0.34953678242646
23	36012	336.885244056201	1.1395892323498
23	36131	338.024833288551	0.12443251165288
23	36137	338.149265800204	2.2625842384815
23	36385	340.411850038685	1.7086746593688
23	36621	342.120524698054	1.5179957536511
23	36779	343.638520451705	1.6168715033016
23	36945	345.255391955007	1.7998845965348
23	37204	347.055276551542	0.13893589567595
23	37212	347.194212447218	2.4023047917775
23	37462	349.596517238995	3.4081934734156
23	37884	353.004710712411	5.9846209694168
23	38542	358.989331681828	0.34860194761168
23	38574	359.33793362944	8.2500402657873
23	39407	367.587973895227	3.0053958888674
23	39751	370.593369784094	0.14765482409272
23	39757	370.741024608187	1.5388057911198
23	39926	372.279830399307	2.4657448961034
23	40125	374.74557529541	1.5287122253464
23	40306	376.274287520756	1.6549330901934
23	40522	377.929220610949	1.6085047700529
23	40725	379.537725381002	2.0825902311171
23	40934	381.620315612119	0.42000340210488
23	40990	382.040319014224	0.68208494767707
23	41073	382.722403961901	0.44528607536205
23	41125	383.167690037263	7.0293363930429
23	41859	390.197026430306	0.57393387488542
23	41892	390.770960305191	0.11533174252275
23	41906	390.886292047714	0.44672316966523
23	41944	391.333015217379	9.9577836925731
24	2245	20.647858671329	5.4568991849188
24	2867	26.104757856248	0.19787952841112
24	2883	26.302637384659	2.3054997982742
24	3093	28.608137182933	0.90976590327193
24	3191	29.517903086205	2.0370770910192
24	3430	31.554980177224	0.17789201203214
24	3448	31.732872189256	0.2368744525085
24	3458	31.969746641765	3.7101010655279
24	3841	35.679847707293	0.071580817556199
24	3842	35.751428524849	0.92887866367473
24	3909	36.680307188524	2.3919983659341
24	4235	39.072305554458	1.7001571472499
24	4448	40.772462701708	0.11094528982954
24	4449	40.883407991538	2.7568551288227
24	4760	43.640263120361	5.0885634657929
24	5303	48.728826586154	0.2740495478778
24	5317	49.002876134032	0.26094187085901
24	5358	49.263818004891	1.8593111724955
24	5582	51.123129177386	0.60501262878742
24	5688	51.728141806173	2.9162801204132
24	5976	54.644421926586	0.44674839146361
24	6000	55.09117031805	1.4826264295237
24	6185	56.573796747574	2.4183742591037
24	6429	58.992171006678	4.2252784105373
24	6895	63.217449417215	1.7393798365383
24	7099	64.956829253753	2.6726177508559
24	7359	67.629447004609	0.20033458914051
24	7390	67.82978159375	1.0848187130412
24	7512	68.914600306791	0.46583009360669
24	7568	69.380430400398	6.4992445918405
24	8253	75.879674992239	1.5621670510911
24	8435	77.44184204333	2.3891860929328
24	8686	79.831028136263	1.9132545551034
24	8869	81.744282691366	0.87634480636874
24	8964	82.620627497735	0.14786579387558
24	8970	82.768493291611	1.2656502750647
24	9074	84.034143566676	4.0787645415459
24	9528	88.112908108222	0.36834611787822
24	9566	88.4812542261	2.051456721092
24	9793	90.532710947192	4.8180575010654
24	10317	95.350768448257	0.62676088837121
24	10393	95.977529336628	0.83062732473613
24	10472	96.808156661364	1.6791351885469
24	10648	98.487291849911	1.6935870262512
24	10841	100.180878876162	0.17973952738297
24	10867	100.360618403545	0.21906785247489
24	10883	100.57968625602	0.53749465614633
24	10919	101.117180912166	0.039660052668343
24	10925	101.156840964834	1.153108004839
24	11092	102.309948969673	3.5177386646863
24	11440	105.827687634359	1.3332328823078
24	11667	107.160920516667	0.61607614627273
24	11744	107.77699666294	1.2290708493529
24	11880	109.006067512293	0.42933784421729
24	11927	109.43540535651	1.1029343327258
24	12049	110.538339689236	1.1090117781319
24	12174	111.647351467368	1.9760811849671
24	12325	113.623432652335	6.5021987367866
24	12987	120.125631389122	2.5057491071361
24	13217	122.631380496258	5.9952425568429
24	13819	128.626623053101	0.22088057862983
24	13835	128.847503631731	0.85503499185712
24	13922	129.702538623588	1.493717570072
24	14153	131.19625619366	2.6108848487417
24	14387	133.807141042402	2.5565934742186
24	14671	136.363734516621	0.70984535661444
24	14763	137.073579873235	0.20096396288311
24	14780	137.274543836118	5.8338137192671
24	15401	143.108357555385	0.3413004269635
24	15439	143.449657982348	0.95308234657476
24	15531	144.402740328923	1.4945214219545
24	15705	145.897261750877	1.333632271819
24	15883	147.230894022696	3.5748386963351
24	16287	150.805732719031	5.806352158474
24	16960	156.612084877505	11.374497544095
24	18208	167.9865824216	1.6644558189512
24	18418	169.651038240551	0.41917208365401
24	18456	170.070210324205	1.3597157188063
24	18621	171.429926043011	3.4333988157239
24	18999	174.863324858735	0.39987118268576
24	19030	175.263196041421	1.1807071705451
24	19178	176.443903211966	0.70084931861749
24	19280	177.144752530583	0.044351960729891
24	19281	177.189104491313	0.22272942022815
24	19309	177.411833911541	0.36318711163341
24	19358	177.775021023174	0.56560451348599
24	19439	178.34062553666	0.17030584315704
24	19448	178.510931379817	0.31185598806487
24	19476	178.822787367882	2.281589342193
24	19697	181.104376710075	0.47531396490052
24	19735	181.579690674976	0.75645828547786
24	19821	182.336148960454	1.7351958182666
24	20037	184.071344778721	1.4336094502279
24	20184	185.504954228949	2.7959728205887
24	20446	188.300927049538	7.2758966088355
24	21218	195.576823658374	2.2328283143858
24	21451	197.80965197276	1.4348754879885
24	21630	199.244527460749	5.9294787882835
24	22255	205.174006249033	1.0719863937769
24	22353	206.24599264281	1.1444754995888
24	22485	207.390468142399	6.2561778439981
24	23208	213.646645986397	0.48506512734163
24	23234	214.131711113739	1.1616439934667
24	23372	215.293355107206	0.93171384802077
24	23462	216.225068955227	0.91014415870778
24	23586	217.135213113935	0.6409676810617
24	23690	217.776180794997	10.338487092828
24	24714	228.114667887825	2.8778610357436
24	25057	230.992528923569	2.9882237926113
24	25363	233.98075271618	0.029504153334422
24	25369	234.010256869514	7.97226229001
24	26168	241.982519159524	0.25923506499794
24	26196	242.241754224522	6.1474316940719
24	26927	248.389185918594	0.87504301587767
24	27005	249.264228934472	2.3007991042342
24	27293	251.565028038706	0.072521183637433
24	27313	251.637549222343	1.2179818223853
24	27422	252.855531044728	2.0620211220243
24	27669	254.917552166752	1.5257607089771
24	27830	256.443312875729	3.1568258911335
24	28125	259.600138766862	0.0061108071411756
24	28126	259.606249574003	0.68286938424542
24	28184	260.289118958248	1.7513464882102
24	28403	262.040465446458	5.7042760503974
24	28922	267.744741496855	0.74650185097548
24	28983	268.49124334783	1.5202347056316
24	29175	270.011478053462	4.9305485225461
24	29671	274.942026576008	2.9925404939077
24	29976	277.934567069916	0.48027529541116
24	30036	278.414842365327	0.80165578515596
24	30115	279.216498150483	1.1524855143925
24	30188	280.368983664875	2.7195489801478
24	30436	283.088532645023	0.052904441015377
24	30445	283.141437086038	0.037062667151875
24	30451	283.17849975319	5.3927769249996
24	31042	288.57127667819	3.4296806078443
24	31401	292.000957286034	4.3192461179147
24	31861	296.320203403949	1.3889008469937
24	31978	297.709104250943	3.6397115445651
24	32324	301.348815795508	0.55671898879122
24	32373	301.905534784299	0.25310669291341
24	32395	302.158641477212	0.47473415360444
24	32428	302.633375630816	0.054566126312502
24	32430	302.687941757129	0.22978736404241
24	32449	302.917729121171	3.8470244652525
24	32887	306.764753586423	1.1446799636247
24	33000	307.909433550048	0.13495573817898
24	33024	308.044389288227	1.5017824430251
24	33156	309.546171731252	4.0250136407853
24	33648	313.571185372037	0.84018977552258
24	33733	314.41137514756	3.5268462098555
24	34105	317.938221357416	0.85481403977227
24	34179	318.793035397188	1.497324102881
24	34386	320.290359500069	0.29554965128729
24	34416	320.585909151356	1.1659675307575
24	34490	321.751876682113	2.4952939625778
24	34711	324.247170644691	0.48920757668666
24	34784	324.736378221378	2.659567507635
24	35077	327.395945729013	4.2104479077963
24	35482	331.606393636809	6.1481986032739
24	36095	337.754592240083	0.47987284524747
24	36144	338.23446508533	5.343359810287
24	36763	343.577824895617	3.0801192453118
24	37147	346.657944140929	2.2822168859973
24	37375	348.940161026926	2.400881281658
24	37681	351.341042308584	1.689597563691
24	37885	353.030639872275	2.1357512384346
24	38126	355.16639111071	6.131135015074
24	38776	361.297526125784	1.7737819255092
24	38976	363.071308051293	1.599707154636
24	39163	364.671015205929	2.8057411531009
24	39399	367.47675635903	0.083323260726238
24	39405	367.560079619756	0.0089125139361545
24	39406	367.568992133692	0.19335001364693
24	39414	367.762342147339	1.1060792258544
24	39535	368.868421373193	0.97557514666721
24	39641	369.84399651986	0.15336209047552
24	39660	369.997358610336	4.5133600536908
24	40113	374.510718664027	2.0607311646736
24	40359	376.571449828701	0.88085118898372
24	40479	377.452301017685	1.2139556857941
24	40603	378.666256703479	5.8464641915589
24	41219	384.512720895038	1.7351686732991
24	41390	386.247889568337	0.94992200859793
24	41472	387.197811576935	2.6731717401724
24	41829	389.870983317107	0.14763134744772
24	41842	390.018614664555	0.66729972818942
24	41883	390.685914392744	3.0277720913155
24	42258	393.71368648406	3.6452216678965
24	42661	397.358908151956	0.20102969861434
24	42688	397.55993785057	0.30657492127886
24	42716	397.866512771849	2.519296255872

