version 2
run Exponential-capacity-14-20210216-20:01:13-5736
attr configname Exponential-capacity
attr datetime 20210216-20:01:13
attr experiment Exponential-capacity
attr inifile aerocom.ini
attr iterationvars "$0=35, $1=2"
attr iterationvarsf 35,2-
attr measurement "$0=35, $1=2"
attr network Aerocom
attr processid 5736
attr repetition 0
attr replication #0
attr resultdir results
attr runnumber 14
attr seedset 0
param **.t 1s
param **.k 35ms
param **.X 50ms
param **.m 2s
param **.tDistribution "\"exponential\""
param **.operationMode 0
param **.s "70 byte"
param **.dimPoolMax 10000
param **.dimPoolMin 8000
param **.nDL 10
param **.nA 1
param **.DLMaxCapacity 0
param **.trasmitting false

vector 0 Aerocom.aircraft[0].dataLink[0] actualCapacity:vector ETV
attr "" ""
attr source computeActualCapacity
vector 1 Aerocom.aircraft[0].dataLink[1] actualCapacity:vector ETV
attr "" ""
attr source computeActualCapacity
vector 2 Aerocom.aircraft[0].dataLink[2] actualCapacity:vector ETV
attr "" ""
attr source computeActualCapacity
vector 3 Aerocom.aircraft[0].dataLink[3] actualCapacity:vector ETV
attr "" ""
attr source computeActualCapacity
vector 4 Aerocom.aircraft[0].dataLink[4] actualCapacity:vector ETV
attr "" ""
attr source computeActualCapacity
vector 5 Aerocom.aircraft[0].dataLink[5] actualCapacity:vector ETV
attr "" ""
attr source computeActualCapacity
vector 6 Aerocom.aircraft[0].dataLink[6] actualCapacity:vector ETV
attr "" ""
attr source computeActualCapacity
vector 7 Aerocom.aircraft[0].dataLink[7] actualCapacity:vector ETV
attr "" ""
attr source computeActualCapacity
vector 8 Aerocom.aircraft[0].dataLink[8] actualCapacity:vector ETV
attr "" ""
attr source computeActualCapacity
vector 9 Aerocom.aircraft[0].dataLink[9] actualCapacity:vector ETV
attr "" ""
attr source computeActualCapacity
vector 10 Aerocom.aircraft[0].packetGenerator arrivalTime:vector ETV
attr "" ""
attr source computeArrivalTime
vector 11 Aerocom.aircraft[0].linkSelector waitingTime:vector ETV
attr "" ""
attr source computeWaitingTime
vector 12 Aerocom.aircraft[0].linkSelector queueLength:vector ETV
attr "" ""
attr source computeQueueLength
vector 13 Aerocom.aircraft[0].linkSelector serviceTime:vector ETV
attr "" ""
attr source computeServiceTime
vector 14 Aerocom.aircraft[0].linkSelector responseTime:vector ETV
attr "" ""
attr source computeResponseTime
vector 15 Aerocom.aircraft[0].dataLink[4] tDistribution:vector ETV
attr "" ""
attr source computeTDistribution
vector 16 Aerocom.aircraft[0].dataLink[5] tDistribution:vector ETV
attr "" ""
attr source computeTDistribution
vector 17 Aerocom.aircraft[0].dataLink[0] tDistribution:vector ETV
attr "" ""
attr source computeTDistribution
vector 18 Aerocom.aircraft[0].dataLink[3] tDistribution:vector ETV
attr "" ""
attr source computeTDistribution
vector 19 Aerocom.aircraft[0].dataLink[8] tDistribution:vector ETV
attr "" ""
attr source computeTDistribution
vector 20 Aerocom.aircraft[0].dataLink[9] tDistribution:vector ETV
attr "" ""
attr source computeTDistribution
vector 21 Aerocom.aircraft[0].dataLink[6] tDistribution:vector ETV
attr "" ""
attr source computeTDistribution
vector 22 Aerocom.aircraft[0].dataLink[1] tDistribution:vector ETV
attr "" ""
attr source computeTDistribution
vector 23 Aerocom.aircraft[0].dataLink[7] tDistribution:vector ETV
attr "" ""
attr source computeTDistribution
vector 24 Aerocom.aircraft[0].dataLink[2] tDistribution:vector ETV
attr "" ""
attr source computeTDistribution
0	1601	10	8687
0	1858	12	9044
0	2214	14	8842
0	2523	16	8506
0	2866	18	9523
0	3124	20	9639
0	3130	20.051245799818	9653
0	3135	20.070728482543	9658
0	3144	20.136882041976	9668
0	3149	20.144445409557	9668
0	3154	20.178115826988	9672
0	3162	20.230064313881	9677
0	3165	20.235353213258	9677
0	3176	20.358618704027	9690
0	3181	20.373547457448	9691
0	3190	20.442943669109	9698
0	3193	20.450161652198	9699
0	3202	20.50161777496	9704
0	3210	20.641896012881	9718
0	3217	20.7889610928	9732
0	3223	20.811738999783	9735
0	3229	20.860762649177	9740
0	3235	20.884840670923	9742
0	3238	20.892026053801	9743
0	3247	20.920689190247	9746
0	3252	20.931679116679	9747
0	3258	20.947771812801	9748
0	3264	20.966268165792	9750
0	3268	20.973447652971	9751
0	3277	20.990986310548	9753
0	3287	21.051418478839	9759
0	3292	21.063794358973	9760
0	3297	21.07116302406	9760
0	3302	21.089108036552	9762
0	3309	21.114169622682	9765
0	3312	21.120966490121	9765
0	3317	21.127560329229	9766
0	3331	21.265727493594	9780
0	3335	21.272884957807	9781
0	3342	21.287569145062	9782
0	3350	21.356935307001	9789
0	3355	21.3864100776	9792
0	3362	21.512723012774	9804
0	3367	21.527457778206	9806
0	3375	21.640856482048	9817
0	3381	21.69529178466	9823
0	3388	21.778255349981	9831
0	3393	21.796804005256	9833
0	3399	21.848864046658	9838
0	3405	21.864444273537	9839
0	3410	21.878625674419	9841
0	3416	21.896475353604	9843
0	3419	21.903587006555	9843
0	3427	21.912010922495	9844
0	3433	21.930314790373	9846
0	3443	21.98255691612	9851
0	3450	21.991806382365	9852
0	3454	22	9853
0	3460	22.083036395446	9861
0	3463	22.09013506698	9862
0	3470	22.101783372734	9863
0	3473	22.108880604813	9864
0	3481	22.210625223038	9700
0	3486	22.255885398096	9620
0	3491	22.263161905373	9607
0	3494	22.270448259073	9594
0	3501	22.283464121494	9571
0	3506	22.334991267024	9480
0	3511	22.347704744686	9458
0	3514	22.355105886576	9445
0	3521	22.428320897232	9315
0	3524	22.43583565837	9302
0	3529	22.443360921754	9289
0	3534	22.45089671678	9275
0	3541	22.484202887667	9217
0	3546	22.523223947434	9148
0	3552	22.581427749758	9045
0	3557	22.591281090544	9027
0	3562	22.611087399501	8992
0	3568	22.630185419518	8959
0	3573	22.679005837712	8872
0	3579	22.707531479293	8822
0	3586	22.769468173105	8712
0	3591	22.838420187901	8591
0	3596	22.855096938292	8561
0	3602	22.900542535538	8495
0	3605	22.908782676798	8500
0	3610	22.917017970916	8506
0	3617	22.925483395045	8511
0	3620	22.933708045497	8516
0	3627	22.961788793176	8534
0	3630	22.969991277357	8539
0	3637	22.986433736454	8549
0	3642	22.998997382597	8557
0	3647	23.022422983117	8572
0	3652	23.03306198769	8578
0	3657	23.054532355826	8592
0	3662	23.075849611762	8605
0	3667	23.101875023474	8622
0	3672	23.142115972045	8647
0	3677	23.162535804031	8660
0	3682	23.204168172828	8686
0	3687	23.271187651845	8728
0	3692	23.282856768688	8735
0	3697	23.302742735619	8748
0	3702	23.319469865182	8758
0	3707	23.380849877758	8797
0	3710	23.388807135914	8802
0	3717	23.412765103882	8817
0	3723	23.467146196453	8851
0	3728	23.475054907333	8856
0	3731	23.482959153042	8861
0	3738	23.510118918256	8878
0	3743	23.551909386227	8904
0	3749	23.560009120245	8909
0	3754	23.612796653352	8942
0	3759	23.678565798549	8983
0	3764	23.731150246329	9016
0	3770	23.77117941805	9042
0	3775	23.78169079586	9048
0	3778	23.789427312217	9053
0	3785	23.804950687729	9063
0	3788	23.812674399524	9068
0	3795	23.838486979194	9084
0	3798	23.846192835645	9089
0	3803	23.853894452985	9093
0	3811	23.927891092827	9050
0	3817	23.944109743791	9035
0	3820	23.951857391826	9028
0	3825	23.959611047121	9020
0	3831	24	8981
0	4177	26	8466
0	4469	28	8513
0	4806	30	8088
0	5068	32	8659
0	5367	34	9859
0	5374	34.05	9859
0	5375	34.057100111573	9859
0	5380	34.064200223146	9859
0	5383	34.071300334719	9859
0	5390	34.10160040975	9859
0	5393	34.108700521323	9859
0	5402	34.123163378627	9859
0	5407	34.155595729637	9858
0	5410	34.162696561449	9858
0	5417	34.176174726715	9858
0	5423	34.289060789645	9858
0	5428	34.368072477321	9858
0	5431	34.375173309133	9857
0	5438	34.490951009379	9857
0	5441	34.498052561575	9857
0	5448	34.519339452943	9857
0	5455	34.655521306107	9856
0	5460	34.666768216707	9856
0	5463	34.673870489434	9856
0	5470	34.703790623621	9856
0	5475	34.714267978724	9856
0	5481	34.793742832483	9856
0	5486	34.802238922791	9856
0	5491	34.820512818445	9856
0	5496	34.850868039104	9856
0	5501	34.878977826121	9855
0	5506	35.009157117002	9855
0	5512	35.020251325298	9855
0	5517	35.031410761992	9855
0	5522	35.052683228736	9855
0	5529	35.175500453021	9854
0	5535	35.193479449485	9854
0	5538	35.200583163713	9854
0	5543	35.207686877941	9854
0	5550	35.281015978268	9854
0	5555	35.305689204516	9854
0	5560	35.348847309969	9853
0	5565	35.361853861388	9853
0	5570	35.373243446489	9853
0	5575	35.389583698514	9853
0	5581	35.468420948966	9853
0	5586	35.494474188115	9853
0	5590	35.501578623312	9853
0	5597	35.544018714383	9853
0	5602	35.578407206378	9852
0	5607	35.592607628413	9852
0	5612	35.60660046295	9852
0	5617	35.696869422528	9852
0	5625	35.816391794113	9852
0	5631	35.885790234423	9851
0	5634	35.892896111999	9851
0	5639	35.900001989575	9851
0	5647	35.97511224825	9851
0	5652	35.985351519292	9851
0	5657	35.999364872893	9851
0	5658	36	9851
0	5664	36.056470750469	9851
0	5669	36.097055631823	9850
0	5672	36.104162230808	9850
0	5680	36.126066491736	9850
0	5685	36.141061927744	9850
0	5693	36.166074124302	9850
0	5700	36.213234833131	9850
0	5707	36.230353627503	9850
0	5712	36.270290144202	9850
0	5720	36.296722557824	9850
0	5727	36.330808308526	9849
0	5734	36.432137425122	9849
0	5739	36.475526857944	9849
0	5748	36.553704252732	9833
0	5753	36.561730353739	9819
0	5758	36.60129635568	9752
0	5764	36.615929563743	9727
0	5770	36.651592925081	9667
0	5777	36.691064540256	9600
0	5784	36.718885089518	9552
0	5793	36.792871828031	9427
0	5798	36.804015583593	9408
0	5804	36.831475067985	9361
0	5807	36.83895290155	9348
0	5814	36.848721133568	9332
0	5826	36.916622820914	9245
0	5830	36.924194481271	9238
0	5838	36.952977856886	9210
0	5845	36.996344134644	9168
0	5850	37.008809936999	9157
0	5853	37.010578291197	9155
0	5861	37.030667732225	9136
0	5866	37.04698812815	9120
0	5869	37.053979387698	9113
0	5879	37.074323109094	9094
0	5885	37.102903853204	9066
0	5894	37.192240530478	8980
0	5899	37.207923609371	8965
0	5902	37.215731752148	8958
0	5909	37.23565538315	8939
0	5915	37.25388264342	8921
0	5920	37.261729297383	8914
0	5923	37.265731752148	8910
0	5932	37.279981369065	8896
0	5938	37.294663145386	8882
0	5949	37.377483304621	8803
0	5955	37.411554843649	8770
0	5958	37.419536599635	8762
0	5963	37.427525643232	8754
0	5974	37.544735172005	8642
0	5979	37.552974377333	8634
0	5985	37.594066832121	8595
0	5990	37.602211102045	8587
0	5993	37.602835148862	8586
0	6002	37.632160466295	8558
0	6007	37.644136580502	8546
0	6015	37.685728101112	8507
0	6023	37.71283618869	8480
0	6029	37.751847573795	8443
0	6036	37.796923732164	8400
0	6044	37.900986024046	8355
0	6049	37.918221472219	8366
0	6052	37.926588672793	8372
0	6058	37.934949876806	8377
0	6066	37.96379623942	8396
0	6073	37.985031173744	8410
0	6078	38	8420
0	6326	40	8713
0	6654	42	9158
0	6921	44	8627
0	7173	46	9219
0	7518	48	9482
0	7938	50	8751
0	8361	52	8702
0	8624	54	8068
0	8915	56	8083
0	9284	58	8225
0	9589	60	8340
0	9913	62	8321
0	10255	64	8429
0	10587	66	8782
0	10890	68	9215
0	11146	70	9420
0	11162	70.056297256358	9479
0	11164	70.063682001584	9487
0	11168	70.071060519556	9517
0	11171	70.078415778566	9569
0	11174	70.08573106752	9620
0	11178	70.093007574797	9670
0	11186	70.110027568676	9721
0	11194	70.134771454418	9716
0	11203	70.176392337026	9707
0	11211	70.223118844977	9697
0	11216	70.232285330647	9695
0	11220	70.239505547253	9693
0	11225	70.246727253639	9691
0	11232	70.265603052877	9687
0	11235	70.272829232293	9686
0	11250	70.364612829179	9665
0	11255	70.387480550531	9660
0	11260	70.39656685082	9658
0	11266	70.427599675531	9652
0	11274	70.467168576585	9643
0	11281	70.54705084636	9625
0	11286	70.578503524774	9618
0	11293	70.667023125173	9599
0	11296	70.674315551467	9597
0	11303	70.68334035062	9595
0	11308	70.705947968995	9590
0	11320	70.79944433246	9570
0	11325	70.842621847176	9560
0	11331	70.870242872978	9554
0	11334	70.877569647104	9553
0	11344	70.901690489818	9547
0	11352	70.975760424499	9531
0	11355	70.983104879436	9529
0	11362	71.008342879385	9524
0	11368	71.015692732388	9522
0	11371	71.023044129153	9521
0	11376	71.030396298043	9519
0	11381	71.033104879436	9518
0	11384	71.037750011668	9517
0	11401	71.144613191935	9494
0	11406	71.153457355127	9492
0	11411	71.184013721937	9485
0	11418	71.211178033154	9479
0	11421	71.21856277838	9478
0	11431	71.286098507647	9463
0	11436	71.297964831615	9460
0	11443	71.353428831354	9448
0	11449	71.374782341931	9443
0	11454	71.382195240374	9442
0	11457	71.389608923916	9440
0	11465	71.418645727851	9434
0	11471	71.437208841122	9429
0	11474	71.439608923916	9429
0	11483	71.462416034628	9424
0	11495	71.680376160507	9311
0	11500	71.690151237077	9292
0	11506	71.743806461279	9191
0	11513	71.774896404855	9132
0	11518	71.784107036236	9115
0	11525	71.833083920921	9022
0	11531	71.856658548587	8978
0	11536	71.866072517079	8960
0	11542	71.913776583688	8870
0	11549	71.947688097789	8805
0	11556	72	8706
0	11890	74	9276
0	12227	76	9466
0	12237	76.209123059956	9100
0	12243	76.278218894117	8980
0	12248	76.317140605139	8912
0	12254	76.350790903845	8853
0	12264	76.426120197485	8722
0	12268	76.434145879668	8740
0	12275	76.445126094361	8765
0	12281	76.487365110106	8861
0	12289	76.577949788429	9066
0	12295	76.663529017888	9260
0	12300	76.673673888134	9283
0	12305	76.69969815519	9342
0	12308	76.707191197365	9359
0	12315	76.721018097569	9390
0	12325	76.775121314881	9512
0	12329	76.782480440196	9529
0	12341	76.906045224399	9547
0	12346	76.955258497496	9553
0	12350	76.962586038583	9553
0	12360	77.033205482595	9562
0	12363	77.040526126812	9563
0	12368	77.047846005511	9564
0	12373	77.055165118853	9565
0	12384	77.103782069216	9571
0	12391	77.129907625754	9574
0	12394	77.137219094315	9575
0	12402	77.17315084218	9579
0	12412	77.292602806374	9594
0	12418	77.40157190019	9607
0	12423	77.434985093577	9611
0	12426	77.442268414771	9612
0	12434	77.467510643641	9615
0	12440	77.482929745947	9617
0	12446	77.495211444457	9619
0	12452	77.506048607359	9620
0	12464	77.598770324694	9632
0	12471	77.6564235848	9639
0	12476	77.667242703957	9640
0	12479	77.674504114745	9641
0	12489	77.735132644491	9648
0	12497	77.808432005155	9657
0	12504	77.955676186865	9675
0	12508	78	9681
0	12511	78.012911328984	9682
0	12517	78.061223136001	9688
0	12523	78.136564234688	9698
0	12528	78.162179581071	9701
0	12533	78.283951377998	9716
0	12536	78.291155988949	9717
0	12543	78.316164322131	9720
0	12550	78.3385448269	9722
0	12555	78.360008595153	9725
0	12560	78.380193408581	9728
0	12566	78.403421077214	9730
0	12571	78.411353642359	9731
0	12577	78.490407863205	9741
0	12582	78.509690482314	9743
0	12587	78.517882478934	9744
0	12592	78.533380126206	9746
0	12597	78.549849882873	9748
0	12600	78.55703084307	9749
0	12608	78.591974213315	9754
0	12613	78.612353849905	9756
0	12619	78.656415210085	9761
0	12624	78.667086569886	9763
0	12627	78.674256497162	9764
0	12634	78.694957019489	9766
0	12642	78.828787414567	9783
0	12645	78.835942683912	9784
0	12652	78.844132815376	9785
0	12659	78.926975206936	9795
0	12664	78.93505152123	9796
0	12669	78.994369571089	9803
0	12674	79.007213691815	9805
0	12680	79.035362809239	9808
0	12689	79.181825570105	9843
0	12695	79.248649337253	9870
0	12700	79.287301945644	9885
0	12707	79.402123651912	9931
0	12712	79.411972852615	9935
0	12715	79.4190186503	9938
0	12720	79.426062321059	9941
0	12727	79.458807692821	9954
0	12730	79.465840041626	9957
0	12738	79.678938883192	8869
0	12743	79.694735138687	8780
0	12750	79.849213067334	8247
0	12756	79.909968509663	8349
0	12762	79.942330661855	8403
0	12767	79.953606624694	8421
0	12770	79.961919176647	8435
0	12777	79.97448877338	8456
0	12781	80	8499
0	13104	82	8569
0	13380	84	9824
0	13386	84.05	9812
0	13387	84.057134121484	9811
0	13392	84.064268970123	9809
0	13399	84.122391577095	9795
0	13404	84.21446811291	9774
0	13409	84.258894779569	9763
0	13414	84.32946741173	9747
0	13419	84.343139251775	9744
0	13424	84.402416622453	9730
0	13430	84.441720033693	9720
0	13437	84.526566955085	9701
0	13442	84.565710183222	9691
0	13447	84.577030221862	9689
0	13452	84.633775252956	9675
0	13457	84.649920034157	9672
0	13460	84.657157420427	9670
0	13467	84.666647418299	9668
0	13472	84.70311328476	9659
0	13477	84.731883464684	9652
0	13482	84.770994431743	9643
0	13487	84.809609156078	9634
0	13493	84.839756770656	9627
0	13498	84.851582450848	9624
0	13503	84.904162230124	9612
0	13508	84.911444793586	9610
0	13511	84.91872887267	9609
0	13518	84.928106398981	9606
0	13523	84.940655529442	9603
0	13528	84.953568168858	9600
0	13535	85.002919719034	9589
0	13540	85.102687296378	9565
0	13545	85.117385571273	9562
0	13550	85.19409246899	9544
0	13555	85.226483434459	9536
0	13562	85.295375139865	9520
0	13567	85.329369081104	9512
0	13572	85.366414124398	9503
0	13577	85.37882849929	9501
0	13582	85.39359973784	9497
0	13587	85.415225244495	9492
0	13592	85.44308362641	9485
0	13598	85.483492709995	9476
0	13603	85.542594291814	9462
0	13608	85.594594238682	9450
0	13611	85.602001646089	9448
0	13618	85.634694528405	9440
0	13624	85.691213466212	9464
0	13629	85.708270207692	9505
0	13634	85.715634752668	9523
0	13637	85.722985377471	9540
0	13645	85.770193813436	9654
0	13651	85.851138850525	9715
0	13656	85.908818522787	9708
0	13663	85.916029070789	9708
0	13666	85.923239618791	9707
0	13669	85.930450909612	9706
0	13676	85.949292556012	9704
0	13681	86	9698
0	13691	86.05	9692
0	13692	86.057222451506	9691
0	13695	86.064445648287	9690
0	13698	86.071669590495	9689
0	13705	86.111898942384	9684
0	13708	86.119127360393	9683
0	13715	86.197455901685	9674
0	13722	86.249394063031	9668
0	13725	86.256634443668	9667
0	13732	86.28076204845	9664
0	13739	86.386288256135	9652
0	13744	86.528895449817	9635
0	13750	86.55418290322	9632
0	13756	86.695276469724	9615
0	13759	86.702556760936	9614
0	13769	86.867338614721	9595
0	13775	86.89327374138	9591
0	13778	86.900572250399	9591
0	13785	86.914457766922	9589
0	13794	87.01192438858	9577
0	13799	87.159763937724	9560
0	13804	87.169580305035	9559
0	13809	87.180146817208	9557
0	13815	87.201597651353	9555
0	13820	87.222302880083	9552
0	13826	87.271875771531	9546
0	13829	87.279208685841	9546
0	13834	87.286541600151	9545
0	13841	87.356571653744	9536
0	13846	87.385811668655	9533
0	13849	87.393154582743	9532
0	13855	87.400498267174	9531
0	13863	87.445973650301	9526
0	13866	87.45332196019	9525
0	13873	87.461262434685	9524
0	13876	87.468612287688	9523
0	13881	87.475962912491	9522
0	13888	87.486334712748	9521
0	13894	87.528642253853	9516
0	13898	87.535998285799	9515
0	13905	87.563087706233	9512
0	13910	87.582447298972	9510
0	13913	87.589807971948	9509
0	13920	87.621908440253	9505
0	13925	87.639103916287	9503
0	13930	87.657081429544	9501
0	13935	87.685473712847	9497
0	13938	87.692844461504	9496
0	13945	87.704039107841	9495
0	13948	87.711411409052	9494
0	13955	87.741266779603	9491
0	13961	87.752672983225	9494
0	13966	87.774407299373	9554
0	13969	87.781734073499	9575
0	13977	87.817278467667	9674
0	13983	87.93470782387	9928
0	13988	87.967622570693	9846
0	13991	87.974732056779	9828
0	13997	87.981854563902	9810
0	14003	88	9765
0	14221	90	8459
0	14523	92	8559
0	14794	94	9895
0	14799	94.080361257767	9893
0	14804	94.135439947546	9891
0	14809	94.187608630344	9889
0	14815	94.215582677044	9888
0	14820	94.396029313276	9883
0	14825	94.422628718139	9882
0	14832	94.456015722957	9881
0	14837	94.471696334657	9880
0	14844	94.4787813549	9880
0	14847	94.485866375143	9880
0	14850	94.492951395386	9879
0	14859	94.621081020962	9875
0	14864	94.635735808783	9875
0	14869	94.707102657926	9873
0	14875	94.767802254415	9871
0	14880	94.775853696111	9870
0	14885	94.846235940634	9868
0	14890	94.865595455261	9868
0	14898	94.978974389446	9864
0	14903	95.015970506091	9863
0	14907	95.02306773817	9846
0	14914	95.046481526642	9492
0	14917	95.05385615791	9380
0	14922	95.061318844477	9268
0	14931	95.143781199169	8711
0	14936	95.157488585209	8711
0	14941	95.17022545723	8710
0	14947	95.224543559008	8709
0	14952	95.253118150313	8708
0	14955	95.261156735522	8707
0	14964	95.400807123829	8703
0	14967	95.408850327322	8702
0	14974	95.421690753633	8702
0	14979	95.446886222035	8701
0	14984	95.485254248314	8700
0	14989	95.494010115341	8699
0	14995	95.511940357989	8699
0	15000	95.52119357879	8698
0	15005	95.572358584871	8697
0	15010	95.598481608794	8696
0	15015	95.624737631854	8695
0	15020	95.648895281796	8694
0	15025	95.65838669063	8694
0	15030	95.750454576855	8691
0	15035	95.761532130248	8690
0	15040	95.786034567848	8689
0	15045	95.796481572441	8689
0	15048	95.804537735406	8689
0	15055	95.830732333047	8688
0	15058	95.838789423286	8688
0	15065	95.874206231053	8686
0	15068	95.882265176482	8686
0	15077	95.981634055894	8683
0	15081	96	8682
0	15388	98	8667
0	15685	100	8857
0	15982	102	9251
0	16289	104	8478
0	16653	106	8274
0	16930	108	9234
0	17196	110	8340
0	17469	112	8811
0	17801	114	9024
0	18084	116	9331
0	18399	118	8555
0	18674	120	9829
0	18677	120.05	9818
0	18682	120.070502174622	9814
0	18688	120.175817948278	9793
0	18695	120.227420936258	9783
0	18700	120.259649193846	9776
0	18705	120.271217574925	9774
0	18711	120.330198154102	9762
0	18716	120.346775572291	9759
0	18723	120.499821356556	9728
0	18728	120.59096305176	9709
0	18733	120.645163546528	9699
0	18738	120.704809601852	9687
0	18743	120.72847150027	9682
0	18748	120.761820041183	9675
0	18753	120.792895822464	9669
0	18758	120.801658900822	9667
0	18763	120.831463126651	9661
0	18768	120.838708753398	9660
0	18771	120.84595513021	9658
0	18778	120.854573997676	9656
0	18783	120.871605249918	9653
0	18788	120.91068819313	9645
0	18794	120.929891268596	9641
0	18801	120.991598308719	9629
0	18804	120.998868014815	9627
0	18812	121.063489989859	9614
0	18819	121.07077103833	9613
0	18825	121.078052844218	9611
0	18828	121.085336165412	9610
0	18833	121.092620244496	9608
0	18836	121.099905839833	9607
0	18841	121.107192193533	9605
0	18848	121.115759523785	9604
0	18853	121.123080021641	9602
0	18858	121.151449188517	9597
0	18863	121.208304117672	9585
0	18869	121.29846981652	9567
0	18874	121.349524940816	9557
0	18877	121.356849415023	9555
0	18884	121.376377747859	9551
0	18889	121.396376773327	9547
0	18895	121.538834700811	9518
0	18901	121.577389083451	9511
0	18904	121.584748982515	9509
0	18909	121.592110429565	9508
0	18918	121.666381027368	9493
0	18923	121.699514547762	9486
0	18926	121.706893843566	9485
0	18933	121.719969549712	9482
0	18936	121.727351958487	9481
0	18943	121.77693097147	9471
0	18949	121.818631682876	9461
0	18954	121.82858943598	9452
0	18957	121.835995276014	9446
0	18962	121.84340582016	9440
0	18969	121.866467047096	9420
0	18972	121.873898044973	9414
0	18979	121.889509167534	9400
0	18985	121.913404754172	9380
0	18990	121.959034158118	9341
0	18995	121.987933150566	9316
0	18999	122	9306
0	19346	124	8918
0	19787	126	9748
0	19790	126.014131355943	9751
0	19797	126.111222743296	9766
0	19802	126.140491640087	9771
0	19807	126.150868344448	9773
0	19813	126.173541137328	9777
0	19820	126.22556795883	9785
0	19825	126.259607208885	9791
0	19831	126.296972309116	9797
0	19836	126.323304507637	9801
0	19841	126.341159224849	9804
0	19846	126.363339331839	9808
0	19853	126.406224490879	9815
0	19859	126.456093484058	9823
0	19864	126.467575258743	9825
0	19867	126.474699940677	9826
0	19874	126.486896922004	9828
0	19878	126.494019429127	9829
0	19886	126.511375523284	9832
0	19893	126.531163013963	9835
0	19898	126.550452534458	9838
0	19904	126.563989238119	9840
0	19909	126.592115370516	9844
0	19912	126.599226301032	9845
0	19919	126.611733574906	9846
0	19926	126.676865767572	9855
0	19932	126.744568486711	9641
0	19937	126.796251905058	9470
0	19942	126.831329841349	9354
0	19948	126.858808002756	9263
0	19956	126.944640293113	9096
0	19962	127.080398567127	9029
0	19968	127.096363470103	9022
0	19971	127.104122281896	9018
0	19978	127.24522580354	8948
0	19984	127.296161251287	8923
0	19989	127.339645249421	8902
0	19994	127.350486534427	8897
0	20001	127.401658877699	8872
0	20006	127.417752367306	8864
0	20011	127.447955300906	8849
0	20016	127.45661912793	8845
0	20021	127.530593636729	8808
0	20027	127.585056323351	8789
0	20030	127.593020824432	8787
0	20035	127.600987138305	8784
0	20042	127.647081312046	8769
0	20047	127.711225315849	8748
0	20052	127.748178893418	8736
0	20057	127.78610001447	8723
0	20063	127.850457937405	8702
0	20066	127.858502065192	8699
0	20074	127.926566016055	8677
0	20080	127.984872922898	8657
0	20084	128	8652
0	20312	130	8734
0	20592	132	8389
0	20918	134	9180
0	21236	136	9086
0	21541	138	8922
0	21857	140	9583
0	22141	142	8483
0	22512	144	9238
0	22828	146	8542
0	23161	148	8624
0	23460	150	9391
0	23762	152	9206
0	24129	154	9235
0	24414	156	9706
0	24419	156.05	9691
0	24420	156.057223196781	9689
0	24425	156.064447884571	9687
0	24432	156.07738467746	9683
0	24438	156.197205826276	9646
0	24444	156.259666571275	9627
0	24450	156.373761575426	9592
0	24453	156.381059323549	9590
0	24460	156.41297634062	9580
0	24467	156.473076525536	9562
0	24472	156.49775269837	9555
0	24477	156.505799331126	9552
0	24482	156.527758336851	9546
0	24487	156.564998654567	9534
0	24494	156.64237393553	9225
0	24500	156.669014067328	8983
0	24503	156.676806564267	8912
0	24514	156.724521081399	8509
0	24517	156.732747665016	8517
0	24524	156.77965959057	8567
0	24527	156.787830478862	8575
0	24534	156.813409469299	8602
0	24539	156.862914439019	8654
0	24544	156.893334447828	8686
0	24549	156.907858986928	8701
0	24554	156.954255586967	8750
0	24560	156.989816432868	8787
0	24565	157.022823315835	8822
0	24571	157.055226070365	8856
0	24576	157.083880270716	8886
0	24581	157.100942077912	8904
0	24586	157.125041274787	8929
0	24592	157.151584005257	8957
0	24600	157.26213087011	9050
0	24605	157.298391843628	9060
0	24610	157.307143674059	9062
0	24617	157.406171847152	9089
0	24622	157.426284354253	9094
0	24627	157.456284924816	9102
0	24632	157.475277277644	9107
0	24637	157.508627743793	9116
0	24643	157.539540940384	9125
0	24646	157.547212173261	9127
0	24654	157.582296734923	9136
0	24659	157.688733854556	9165
0	24665	157.697554567902	9167
0	24670	157.72383781362	9174
0	24675	157.752720210788	9182
0	24680	157.809274098614	9197
0	24686	157.897845115073	9221
0	24690	157.905436482604	9223
0	24695	157.913026203953	9225
0	24702	157.92811744358	9229
0	24705	157.935702230664	9231
0	24710	157.943285374419	9233
0	24717	157.954084024699	9236
0	24722	157.964954209073	9239
0	24728	157.993115798592	9246
0	24729	158	9248
0	25018	160	9105
0	25274	162	9335
0	25543	164	8678
0	25834	166	8750
0	26138	168	8113
0	26403	170	8022
0	26759	172	8390
0	27104	174	8775
0	27363	176	8796
0	27697	178	8844
0	28008	180	8868
0	28298	182	8667
0	28600	184	9120
0	28930	186	9489
0	29186	188	9270
0	29494	190	9197
0	29808	192	9706
0	29813	192.037408595072	9715
0	29814	192.04461394762	9717
0	29822	192.055808676501	9720
0	29827	192.08868884961	9728
0	29833	192.127860785764	9738
0	29838	192.156846483596	9746
0	29843	192.263815715383	9773
0	29849	192.287629521679	9778
0	29854	192.299535371638	9771
0	29859	192.324577977357	9758
0	29864	192.33663232039	9752
0	29869	192.354440565408	9742
0	29874	192.441978708137	9696
0	29877	192.449198180084	9692
0	29884	192.503291681175	9664
0	29889	192.511547316371	9660
0	29894	192.519504502121	9655
0	29897	192.526754631588	9652
0	29904	192.551078067337	9639
0	29909	192.613324645844	9606
0	29914	192.661256840663	9581
0	29917	192.668562967372	9577
0	29925	192.677034397387	9572
0	29930	192.686054469121	9567
0	29935	192.705998756462	9557
0	29940	192.770681458713	9523
0	29946	192.800662449792	9507
0	29952	192.887365035886	9461
0	29957	192.909395350376	9450
0	29962	192.923073015401	9442
0	29968	192.972021865528	9417
0	29973	193.012204737118	9395
0	29978	193.019655508805	9392
0	29982	193.027108660423	9388
0	29987	193.034564987649	9384
0	29994	193.131015568433	9333
0	29999	193.145430583284	9325
0	30004	193.153758766595	9321
0	30011	193.186640125382	9303
0	30014	193.194164579859	9299
0	30022	193.244689379806	9064
0	30027	193.252412239471	9022
0	30030	193.260171051264	8980
0	30037	193.289513801461	8821
0	30040	193.297449409669	8779
0	30047	193.309669203766	8713
0	30052	193.347954598611	8506
0	30057	193.374149827948	8364
0	30062	193.421083007385	8111
0	30068	193.563167391156	8132
0	30073	193.594220154505	8143
0	30076	193.60281649492	8146
0	30084	193.741103525966	8193
0	30089	193.770582804665	8204
0	30094	193.794805280453	8212
0	30099	193.806860595033	8216
0	30102	193.815380556085	8219
0	30109	193.84077253069	8228
0	30116	193.881347668877	8242
0	30122	193.9526793435	8267
0	30127	193.984931600097	8278
0	30131	194	8283
0	30436	196	9371
0	30693	198	8903
0	31111	200	8266
0	31383	202	9657
0	31387	202.080936838368	9631
0	31390	202.088205034817	9629
0	31397	202.175084573257	9601
0	31404	202.234768270106	9582
0	31409	202.278891900121	9568
0	31414	202.302967954537	9560
0	31419	202.330178109014	9552
0	31424	202.339525670226	9549
0	31430	202.355535931763	9544
0	31435	202.386978235832	9534
0	31440	202.46185630712	9510
0	31445	202.517026454845	9492
0	31450	202.568998494987	9475
0	31455	202.582891327982	9471
0	31460	202.633911757789	9455
0	31466	202.676223469166	9441
0	31471	202.700965636849	9433
0	31476	202.720508591618	9427
0	31479	202.727934071622	9425
0	31487	202.838370103576	9514
0	31493	202.866961607792	9599
0	31499	202.918543616627	9542
0	31506	202.984465851833	9404
0	31511	202.999886907256	9372
0	31516	203.024658638111	9320
0	31519	203.032169367725	9304
0	31526	203.072690592864	9220
0	31531	203.110194552531	9142
0	31536	203.132597949155	9095
0	31541	203.140315003965	9079
0	31547	203.169026626337	9019
0	31552	203.176788018953	9003
0	31555	203.184563205002	8986
0	31563	203.269202731134	8810
0	31568	203.282209245626	8783
0	31578	203.628113672679	8133
0	31584	203.708074876201	8223
0	31589	203.719084422391	8236
0	31594	203.732008376243	8250
0	31599	203.744580538848	8264
0	31604	203.765732223203	8288
0	31607	203.774178169149	8298
0	31614	203.801555760426	8329
0	31619	203.822972534981	8353
0	31624	203.873727530698	8410
0	31629	203.944033786999	8490
0	31634	203.954015580935	8501
0	31639	203.996330766471	8549
0	31642	204	8553
0	31991	206	8628
0	32360	208	9243
0	32640	210	9214
0	32986	212	9384
0	33326	214	8675
0	33652	216	9447
0	33967	218	9596
0	34244	220	9746
0	34568	222	9506
0	34875	224	9282
0	35174	226	8220
0	35532	228	8691
0	35876	230	9662
0	36155	232	9645
0	36423	234	9487
0	36725	236	9206
0	37066	238	8537
0	37411	240	9172
0	37676	242	9256
0	37948	244	9478
0	37956	244.05437257687	9485
0	37957	244.061752650671	9486
0	37964	244.07212323285	9487
0	37973	244.170868482413	9500
0	37976	244.178236903466	9501
0	37981	244.185604548977	9502
0	37988	244.195432498437	9503
0	37991	244.202798593354	9504
0	38003	244.268019577645	9512
0	38006	244.27537870296	9513
0	38014	244.332170722314	9520
0	38020	244.339538513935	9521
0	38025	244.387573713761	9527
0	38032	244.415849586555	9531
0	38035	244.423194041492	9532
0	38042	244.44177329064	9534
0	38045	244.444921252336	9535
0	38054	244.474281708539	9538
0	38060	244.48734332596	9540
0	38065	244.495199603901	9541
0	38072	244.517715670283	9544
0	38077	244.527287973125	9545
0	38089	244.611465598047	9556
0	38092	244.618790838733	9557
0	38099	244.63051168445	9558
0	38102	244.637835392339	9559
0	38108	244.645158334069	9560
0	38116	244.65869603026	9551
0	38124	244.688328954926	9526
0	38132	244.736337059688	9487
0	38139	244.822490047972	9416
0	38144	244.86464209777	9381
0	38151	244.911606903334	9343
0	38157	244.949916252506	9311
0	38165	245.017906542062	9255
0	38168	245.025470021262	9249
0	38173	245.033038407033	9243
0	38185	245.129535716852	9164
0	38188	245.137174302622	9157
0	38195	245.14880002786	9148
0	38200	245.176289674685	9125
0	38207	245.196216963064	9109
0	38214	245.23805061037	9074
0	38220	245.294600948283	9028
0	38228	245.4031299049	8939
0	38231	245.410960758463	8932
0	38238	245.422746248829	8923
0	38241	245.430591144044	8916
0	38248	245.444450439226	8905
0	38253	245.458238674889	8893
0	38261	245.483626602859	8872
0	38271	245.548515560497	8819
0	38276	245.588940057843	8786
0	38283	245.629458477533	8753
0	38289	245.65867527095	8729
0	38294	245.674207623135	8716
0	38301	245.719142323591	8679
0	38309	245.813941129389	8601
0	38315	245.830690165514	8587
0	38322	245.88427849673	8555
0	38329	245.953646212668	8588
0	38334	245.961797120912	8592
0	38337	245.969944234506	8596
0	38344	245.982029598836	8602
0	38349	245.995317627346	8608
0	38350	246	8610
0	38716	248	9572
0	38989	250	9472
0	39259	252	8941
0	39670	254	8418
0	39966	256	8202
0	40251	258	8261
0	40607	260	8481
0	40893	262	9840
0	40898	262.05	9854
0	40904	262.057103714228	9853
0	40907	262.064208149425	9851
0	40912	262.071314027001	9850
0	40920	262.133832113755	9838
0	40923	262.140947381086	9836
0	40930	262.155175156827	9834
0	40937	262.217176637673	9822
0	40942	262.224305789649	9820
0	40948	262.26071402172	9813
0	40953	262.294855839436	9806
0	40959	262.346282648528	9796
0	40964	262.37147494856	9792
0	40969	262.393736866893	9787
0	40974	262.429560951386	9780
0	40982	262.518046207169	9763
0	40988	262.533983271974	9760
0	40991	262.541155403122	9758
0	40998	262.591096308262	9749
0	41001	262.598276531875	9747
0	41008	262.614949078963	9744
0	41013	262.631456223156	9741
0	41018	262.648670067639	9738
0	41021	262.655858401999	9736
0	41028	262.686241311737	9730
0	41031	262.693435556341	9729
0	41041	262.752755113865	9628
0	41047	262.78204043829	9551
0	41050	262.789369513779	9532
0	41055	262.79671319821	9513
0	41062	262.813910009249	9468
0	41067	262.848382613283	9379
0	41072	262.870800669557	9320
0	41078	262.963575961205	9078
0	41084	262.990146567288	9009
0	41092	263.050927646667	8901
0	41097	263.064734654427	8898
0	41102	263.074730354946	8896
0	41105	263.082599059982	8894
0	41110	263.090469534459	8892
0	41116	263.098341779173	8890
0	41125	263.199184384601	8868
0	41130	263.20909741361	8866
0	41136	263.391176793446	8825
0	41141	263.409892285487	8821
0	41146	263.426314138347	8818
0	41151	263.454559092832	8811
0	41156	263.476169531672	8807
0	41161	263.490281305143	8804
0	41164	263.498232236538	8802
0	41171	263.556910611049	8789
0	41176	263.600258040013	8779
0	41181	263.622867862548	8774
0	41186	263.642044137723	8770
0	41191	263.654820660139	8767
0	41196	263.711682655859	8755
0	41201	263.72652590219	8751
0	41207	263.756663869379	8745
0	41213	263.915403210406	8709
0	41217	263.923440872595	8708
0	41225	263.954849934475	8701
0	41230	263.969126430157	8697
0	41235	263.987574410087	8693
0	41239	264	8691
0	41626	266	9407
0	41865	268	9591
0	42153	270	9776
0	42444	272	8401
0	42751	274	9147
0	43130	276	8839
0	43483	278	9268
0	43825	280	8135
0	44217	282	9460
0	44553	284	9185
0	44841	286	9271
0	45218	288	8650
0	45524	290	9279
0	45931	292	8610
0	46250	294	9867
0	46558	296	9224
0	46953	298	8845
0	47331	300	9241
0	47626	302	8538
0	47964	304	9453
0	48291	306	9729
0	48294	306.05	9701
0	48302	306.18059828118	9628
0	48307	306.212085913251	9611
0	48312	306.235756049448	9597
0	48315	306.243049995473	9593
0	48322	306.278187606627	9574
0	48327	306.302598594406	9560
0	48333	306.557596861052	9418
0	48338	306.56851206641	9412
0	48343	306.586476594525	9402
0	48348	306.634862265717	9375
0	48353	306.693247354532	9342
0	48358	306.730122318885	9321
0	48365	306.737632242713	9317
0	48368	306.745145390722	9313
0	48371	306.752661765682	9309
0	48376	306.760181370366	9305
0	48384	306.873546474225	9241
0	48389	306.949901548273	9199
0	48396	306.982649507649	9180
0	48401	307.000987983461	9170
0	48406	307.017145933973	9161
0	48411	307.064785685073	9134
0	48417	307.086131966833	9123
0	48420	307.093804881444	9118
0	48425	307.10148200362	9114
0	48434	307.164833259856	9079
0	48438	307.172543360087	9074
0	48445	307.190274214842	9064
0	48451	307.23972678413	9037
0	48457	307.342917902721	8979
0	48464	307.369784002103	8964
0	48470	307.396759276898	8949
0	48476	307.477040284306	8904
0	48481	307.528361310073	8876
0	48486	307.561464166569	8857
0	48492	307.686751107242	8787
0	48497	307.708851639819	8775
0	48502	307.754593761559	8749
0	48507	307.786349737145	8731
0	48512	307.816485769061	8715
0	48517	307.85237339514	8695
0	48522	307.868362231205	8686
0	48527	307.882771402037	8678
0	48530	307.890837776778	8673
0	48537	307.919160173955	8657
0	48542	307.938991001962	8646
0	48547	307.953498682816	8638
0	48552	307.972113284614	8628
0	48557	308	8612
0	48911	310	8181
0	49293	312	8216
0	49650	314	9486
0	49655	314.065348734821	9525
0	49661	314.122110221534	9563
0	49666	314.140204624725	9575
0	49670	314.147515329686	9580
0	49678	314.181032097982	9602
0	49683	314.220065536928	9628
0	49688	314.313109728043	9690
0	49693	314.326822253837	9699
0	49700	314.413890600781	9189
0	49706	314.4546018842	9089
0	49712	314.467734016873	9093
0	49718	314.581875554486	9126
0	49721	314.589545946772	9128
0	49728	314.635891004947	9141
0	49733	314.647767274545	9144
0	49739	314.676946591215	9153
0	49742	314.684594356975	9155
0	49749	314.732044629047	9169
0	49754	314.747438419369	9173
0	49759	314.769549159047	9179
0	49764	314.78124647575	9183
0	49769	314.792741453269	9186
0	49774	314.857554501561	9205
0	49777	314.865159064299	9207
0	49784	314.885022249689	9212
0	49789	314.924597862242	9224
0	49792	314.932186760768	9226
0	49797	314.939774014182	9228
0	49805	314.951890617016	9232
0	49811	314.973414895408	9238
0	49817	315.011790958917	9249
0	49823	315.050251616771	9260
0	49828	315.125342356108	9281
0	49834	315.203011147549	9304
0	49839	315.224654598488	9310
0	49844	315.257553834106	9319
0	49851	315.345152722204	9344
0	49856	315.353746920439	9347
0	49862	315.409440094362	9363
0	49869	315.431929690176	9369
0	49872	315.43940113857	9371
0	49879	315.473242735303	9381
0	49885	315.531898553589	9398
0	49890	315.539504316952	9400
0	49893	315.546951125463	9402
0	49900	315.588972669412	9414
0	49905	315.675340448121	9439
0	49910	315.725851712906	9453
0	49915	315.770136063771	9466
0	49920	315.796009905091	9474
0	49925	315.805293882574	9476
0	49931	315.87380941945	9496
0	49934	315.881180944303	9498
0	49941	315.889198771348	9500
0	49946	315.910741906726	9506
0	49952	315.937748689263	9514
0	49957	315.974461467046	9525
0	49961	316	9532
0	49964	316.053066788202	9547
0	49969	316.061034033696	9549
0	49975	316.103660806935	9562
0	49981	316.213880564097	9593
0	49988	316.271435057688	9495
0	49992	316.278807358899	9480
0	49997	316.286191325144	9465
0	50004	316.354686078839	9326
0	50009	316.384452092478	9265
0	50014	316.395061783234	9244
0	50019	316.408768671989	9216
0	50023	316.4163641581	9210
0	50030	316.448048092114	9194
0	50035	316.480457917927	9177
0	50041	316.506337645048	9164
0	50047	316.526345659889	9148
0	50052	316.560720335163	9122
0	50057	316.573427638925	9112
0	50062	316.607079132317	9085
0	50067	316.620590647625	9075
0	50073	316.667261691015	9039
0	50079	316.706992401025	9008
0	50088	316.763127672839	8964
0	50093	316.785449906621	8946
0	50096	316.793274632756	8940
0	50103	316.811680943215	8926
0	50109	316.915413424228	8845
0	50112	316.923327499977	8839
0	50119	316.935542073708	8829
0	50124	316.977635170998	8797
0	50127	316.985592429154	8790
0	50134	317.009500878211	8772
0	50139	317.09877858446	8702
0	50144	317.154328134154	8659
0	50149	317.207963434051	8617
0	50154	317.235380304652	8596
0	50159	317.254467113154	8581
0	50164	317.264949418527	8573
0	50169	317.297012115161	8548
0	50172	317.305201165231	8541
0	50177	317.313396926851	8535
0	50184	317.335811207152	8517
0	50189	317.354464544479	8503
0	50194	317.462495853244	8419
0	50199	317.480429624521	8405
0	50202	317.488758000488	8398
0	50211	317.536544455096	8361
0	50216	317.568499412736	8336
0	50221	317.5882795328	8321
0	50226	317.618329434684	8297
0	50231	317.667538449657	8259
0	50236	317.678866720509	8250
0	50241	317.733502632299	8207
0	50247	317.789448645198	8164
0	50252	317.806498595171	8151
0	50258	317.848295851862	8151
0	50263	317.868593457581	8154
0	50268	317.893630653754	8158
0	50273	317.919371821708	8162
0	50279	317.953570602726	8167
0	50282	317.962141681457	8168
0	50289	317.990118402636	8173
0	50292	317.998683189128	8174
0	50295	318	8174
0	50643	320	8332
0	51037	322	9131
0	51350	324	9263
0	51653	326	9418
0	52045	328	8685
0	52338	330	8360
0	52710	332	9701
0	53052	334	9032
0	53452	336	9030
0	53770	338	8949
0	54162	340	9518
0	54165	340.056087236893	9477
0	54170	340.090339930189	9452
0	54176	340.100253502332	9446
0	54181	340.195792343083	9446
0	54189	340.287726192988	9446
0	54194	340.305383954285	9446
0	54199	340.357352959506	9446
0	54206	340.482187464664	9446
0	54211	340.495660610997	9446
0	54216	340.527545362462	9446
0	54221	340.646728217057	9446
0	54226	340.655033776307	9446
0	54231	340.671137615394	9446
0	54236	340.69752835051	9446
0	54242	340.737346609329	9446
0	54247	340.773108830835	9446
0	54253	340.869623516388	9446
0	54258	340.908033617952	9446
0	54264	340.962525433073	9446
0	54270	340.99809336296	9446
0	54276	341.074253788972	9446
0	54279	341.081664333118	9446
0	54284	341.089074877264	9446
0	54289	341.09648542141	9446
0	54296	341.13206165944	9446
0	54301	341.141734391548	9446
0	54304	341.149144935694	9446
0	54311	341.190866170782	9446
0	54319	341.327706448245	9446
0	54325	341.351921445406	9446
0	54330	341.393860248955	9446
0	54335	341.432796862362	9446
0	54338	341.440207406508	9446
0	54346	341.492868327784	9446
0	54352	341.547994585032	9446
0	54358	341.577054122775	9446
0	54363	341.598770542258	9446
0	54369	341.621066714742	9446
0	54372	341.628477258888	9446
0	54379	341.641992651911	9446
0	54387	341.699095973958	9446
0	54392	341.725991283891	9446
0	54397	341.733401828037	9446
0	54400	341.740812372183	9446
0	54407	341.788440941612	9446
0	54412	341.84247615484	9446
0	54419	341.872360375532	9446
0	54425	341.957728302452	9446
0	54428	341.965138846598	9446
0	54434	342	9446
0	54668	344	9143
0	55010	346	9612
0	55017	346.073154630611	9768
0	55023	346.107861849228	9841
0	55030	346.14596415112	9876
0	55035	346.161084577413	9876
0	55041	346.179856829398	9875
0	55046	346.194472042184	9875
0	55053	346.309375220533	9871
0	55058	346.351104983457	9870
0	55063	346.377090533329	9870
0	55071	346.560861170057	9865
0	55077	346.577823150664	9864
0	55082	346.591981836998	9864
0	55085	346.599078349569	9864
0	55092	346.687945697467	9861
0	55098	346.732635925602	9860
0	55104	346.778261174226	9859
0	55109	346.810011944251	9858
0	55115	346.875715602565	9856
0	55120	346.884541798621	9856
0	55125	346.909426149892	9855
0	55130	346.919493241379	9855
0	55135	346.946164885158	9854
0	55140	346.954878183627	9854
0	55146	346.982552071863	9853
0	55151	347.006522357513	9852
0	55156	347.03566787656	9851
0	55159	347.042773754136	9851
0	55164	347.049879631712	9851
0	55169	347.056985509288	9851
0	55174	347.064091386864	9851
0	55181	347.109589173698	9849
0	55184	347.116696494238	9849
0	55192	347.149409947973	9848
0	55198	347.15682717672	9848
0	55203	347.216573209216	9846
0	55208	347.254846679586	9845
0	55213	347.302649873048	9844
0	55219	347.310745439936	9843
0	55223	347.317857092887	9843
0	55230	347.385242243784	9841
0	55235	347.414746143327	9840
0	55238	347.421859964465	9840
0	55245	347.439394162125	9840
0	55250	347.596422301731	9835
0	55255	347.612113519105	9835
0	55258	347.619230956827	9834
0	55265	347.782865203234	9830
0	55270	347.847863541699	9828
0	55275	347.885310673428	9827
0	55278	347.89243390534	9826
0	55283	347.899557862189	9826
0	55290	347.949374696206	9825
0	55296	347.976014569855	9824
0	55300	348	9823
0	55600	350	9765
0	55605	350.05	9763
0	55606	350.057169927276	9763
0	55614	350.167087520015	9760
0	55619	350.176276382498	9760
0	55625	350.207756560759	9759
0	55630	350.267631012185	9757
0	55633	350.274805348559	9757
0	55640	350.289529691095	9756
0	55646	350.394066889002	9753
0	55651	350.435978776266	9752
0	55660	350.615170912962	9732
0	55666	350.638488620505	9727
0	55671	350.656110469029	9723
0	55677	350.755088040469	9703
0	55683	350.81626150633	9690
0	55686	350.823485448538	9689
0	55693	350.838653523439	9685
0	55696	350.845881195096	9684
0	55703	350.88619485905	9676
0	55708	350.89376804809	9674
0	55711	350.901003938104	9672
0	55716	350.908241324374	9671
0	55724	350.981480141477	9656
0	55729	350.990875491996	9654
0	55732	350.99812637246	9652
0	55737	351.005378755386	9651
0	55742	351.012631889776	9649
0	55750	351.048306843021	9642
0	55756	351.077663091586	9636
0	55761	351.086276581974	9634
0	55767	351.161265938362	9619
0	55772	351.170662472755	9617
0	55778	351.181797077857	9620
0	55784	351.189493024738	9626
0	55787	351.196764996481	9632
0	55794	351.210570170405	9644
0	55799	351.268618342943	9693
0	55804	351.380069119606	9787
0	55810	351.395650780202	9800
0	55815	351.411643599978	9814
0	55820	351.459280824719	9854
0	55825	351.471645857839	9864
0	55830	351.47912427724	9870
0	55833	351.486216475822	9876
0	55838	351.493304365656	9882
0	55846	351.506103536282	9893
0	55851	351.521400562144	9906
0	55856	351.530648291736	9914
0	55862	351.584391561605	9841
0	55867	351.634770161817	9688
0	55872	351.732293643354	9392
0	55875	351.739746794972	9370
0	55883	351.790597173944	9273
0	55888	351.798145971528	9265
0	55891	351.805701287232	9258
0	55896	351.813262315532	9250
0	55904	351.865566759388	9194
0	55909	351.877456785971	9182
0	55914	351.912869053073	9144
0	55920	351.978416517951	9075
0	55924	352	9052
0	56252	354	8560
0	56607	356	8851
0	56820	358	8476
0	57110	360	9805
0	57114	360.05	9853
0	57120	360.147647647332	9887
0	57125	360.186239197664	9852
0	57131	360.236070540733	9807
0	57136	360.25711908382	9788
0	57141	360.271855945235	9775
0	57146	360.283212059617	9765
0	57151	360.296399391327	9753
0	57157	360.303576670113	9748
0	57160	360.31075763031	9747
0	57165	360.317939327242	9746
0	57172	360.325121761061	9744
0	57175	360.332305669107	9743
0	57182	360.37284672868	9736
0	57187	360.392522553047	9733
0	57192	360.411277626145	9730
0	57197	360.42023499877	9728
0	57200	360.427430722454	9727
0	57207	360.468760727225	9720
0	57212	360.481123798429	9718
0	57218	360.489827957751	9716
0	57223	360.520931708449	9711
0	57227	360.52814002891	9710
0	57235	360.633696625359	9692
0	57241	360.697574864061	9681
0	57247	360.809738408925	9662
0	57252	360.816983285762	9660
0	57255	360.824229662574	9659
0	57262	360.864797845855	9652
0	57267	360.874231742845	9651
0	57272	360.96701968039	9635
0	57277	360.998994978865	9629
0	57280	361.006264684961	9628
0	57287	361.088048056714	9614
0	57292	361.116755970785	9609
0	57299	361.256392433017	9585
0	57304	361.277426782552	9582
0	57309	361.3228822638	9574
0	57314	361.378987575502	9564
0	57319	361.397552033057	9561
0	57324	361.431739477124	9555
0	57331	361.503908540838	9543
0	57336	361.515322353528	9541
0	57341	361.534347530765	9538
0	57344	361.541686595558	9536
0	57351	361.572869352095	9531
0	57358	361.595950332623	9527
0	57363	361.619491893753	9523
0	57368	361.698078929054	9510
0	57374	361.750989225219	9501
0	57380	361.833509024639	9487
0	57387	361.880067322456	9479
0	57390	361.887452067682	9477
0	57397	361.902093046537	9475
0	57403	361.971076649253	9463
0	57408	361.978473880575	9462
0	57411	361.98587189368	9461
0	57417	362	9458
0	57699	364	8658
0	58065	366	9185
0	58383	368	9440
0	58687	370	9518
0	58947	372	9568
0	59290	374	8982
0	59525	376	9743
0	59531	376.05	9581
0	59532	376.057306126709	9557
0	59539	376.064630600916	9533
0	59542	376.071973515004	9509
0	59549	376.081189986662	9479
0	59558	376.266974364321	8874
0	59563	376.288825077724	8803
0	59569	376.405320129699	8424
0	59576	376.460719985694	8244
0	59581	376.482789234744	8172
0	59588	376.547990038629	8049
0	59593	376.609698682335	8098
0	59598	376.647241191326	8128
0	59604	376.669951508026	8146
0	59607	376.67854468259	8153
0	59617	376.76325821119	8221
0	59622	376.82110193403	8267
0	59627	376.838984352139	8281
0	59630	376.847437437515	8288
0	59638	376.913715983699	8341
0	59643	376.930888531376	8354
0	59646	376.939267750912	8361
0	59653	376.951899764242	8371
0	59658	376.966511920878	8383
0	59663	376.991202172549	8402
0	59668	377.024743525509	8429
0	59674	377.035091331346	8437
0	59680	377.102639718984	8491
0	59685	377.121648865047	8506
0	59688	377.129878350116	8513
0	59697	377.179074468917	8552
0	59700	377.187259688749	8559
0	59705	377.195438214278	8565
0	59712	377.247136159653	8606
0	59717	377.305865758902	8653
0	59723	377.33508957004	8677
0	59728	377.343156874408	8683
0	59733	377.351218604225	8689
0	59736	377.35927476719	8696
0	59743	377.368588658951	8703
0	59748	377.459388609038	8776
0	59753	377.467401925837	8782
0	59758	377.489649085438	8800
0	59763	377.538364779884	8839
0	59766	377.546284227785	8845
0	59773	377.599363452389	8887
0	59778	377.632359553342	8914
0	59784	377.652692209443	8972
0	59789	377.674000873473	9206
0	59796	377.794313684658	9241
0	59799	377.801888622435	9232
0	59807	377.832873142032	9197
0	59812	377.847841003716	9180
0	59817	377.858363414217	9168
0	59823	377.891719197338	9130
0	59826	377.899386229101	9121
0	59833	377.928689076254	9088
0	59838	377.970516184431	9040
0	59843	378	9006
0	60154	380	9008
0	60466	382	8950
0	60775	384	8429
0	61100	386	8532
0	61438	388	9033
0	61773	390	9036
0	62062	392	9624
0	62351	394	9105
0	62675	396	8852
0	62954	398	8849
0	63208	400	8830
1	1601	10	8906
1	1858	12	8222
1	2214	14	9420
1	2523	16	9451
1	2866	18	9030
1	3124	20	8446
1	3454	22	9394
1	3831	24	8480
1	4177	26	8873
1	4469	28	8511
1	4806	30	9258
1	5068	32	9092
1	5367	34	9005
1	5658	36	9280
1	6078	38	9587
1	6326	40	9438
1	6654	42	9078
1	6921	44	9884
1	6924	44.073194643865	9884
1	6930	44.088374125329	9884
1	6935	44.109180435913	9885
1	6941	44.153910510434	9885
1	6947	44.251026922189	9886
1	6952	44.286550485732	9886
1	6957	44.325570825624	9886
1	6962	44.384263541279	9887
1	6967	44.395120405593	9887
1	6972	44.525990602324	9887
1	6977	44.555049724961	9888
1	6983	44.632238753094	9888
1	6988	44.742313667439	9889
1	6993	44.792934432464	9889
1	6996	44.800013004615	9889
1	7003	44.839085770411	9890
1	7008	44.850207697359	9890
1	7013	44.864512815257	9890
1	7016	44.871590671678	9890
1	7021	44.878668528099	9890
1	7029	44.923828800798	9890
1	7034	44.930906657219	9890
1	7039	44.93798451364	9890
1	7044	44.945062370061	9890
1	7047	44.952140226482	9890
1	7054	44.96153481341	9890
1	7059	44.972103238532	9891
1	7065	44.997938024521	9891
1	7071	45.069638435002	9891
1	7078	45.121549504283	9892
1	7081	45.128625929677	9892
1	7089	45.240046062191	9892
1	7095	45.25992213145	9893
1	7098	45.266997841548	9893
1	7105	45.278052494724	9893
1	7108	45.285128204822	9893
1	7115	45.312660919291	9893
1	7121	45.343840802357	9893
1	7126	45.440308260069	9894
1	7131	45.488190150817	9894
1	7139	45.587118489787	9895
1	7146	45.653088751284	9895
1	7149	45.660163031223	9895
1	7157	45.751095360217	9896
1	7163	45.782835568973	9896
1	7169	45.926333269216	9897
1	7173	46	9898
1	7179	46.05	9898
1	7181	46.057072135785	9898
1	7188	46.075175918656	9898
1	7193	46.091926098643	9898
1	7198	46.100244404132	9898
1	7201	46.107316539917	9898
1	7208	46.156527565937	9899
1	7213	46.196951674612	9899
1	7218	46.204286431612	9899
1	7223	46.241713018655	9899
1	7230	46.321872021352	9900
1	7235	46.391205456716	9900
1	7240	46.398276163787	9900
1	7245	46.405346870858	9900
1	7248	46.412417577929	9900
1	7255	46.422515317374	9900
1	7261	46.456305570363	9901
1	7267	46.486758367226	9901
1	7272	46.503627639561	9901
1	7277	46.513304708505	9901
1	7280	46.520374701435	9901
1	7286	46.527444694365	9901
1	7294	46.670173779051	9902
1	7299	46.738883094185	9903
1	7304	46.818297012217	9903
1	7307	46.825365577298	9903
1	7313	46.832434142379	9903
1	7320	46.853738208242	9903
1	7325	46.876170248054	9904
1	7328	46.883238099427	9904
1	7335	46.903349978066	9904
1	7340	46.924726374186	9904
1	7345	46.949578836284	9904
1	7353	47.086433763222	9795
1	7358	47.206103540816	9626
1	7363	47.225393369007	9598
1	7366	47.232686555087	9588
1	7373	47.297181834116	9497
1	7378	47.304552582773	9487
1	7381	47.311931100745	9476
1	7388	47.326103218876	9456
1	7393	47.337178177568	9441
1	7398	47.358632031972	9410
1	7403	47.376732874419	9385
1	7408	47.386120682684	9371
1	7413	47.403988622842	9346
1	7416	47.411478458066	9336
1	7423	47.445062456754	9288
1	7426	47.452599063128	9278
1	7433	47.46448400533	9261
1	7438	47.532496024801	9165
1	7444	47.576279227924	9103
1	7449	47.594138726846	9078
1	7454	47.629817558428	9027
1	7459	47.646627771911	9004
1	7464	47.664457769769	8978
1	7467	47.672254606481	8967
1	7474	47.68501782981	8949
1	7479	47.701454110934	8926
1	7484	47.734819118527	8879
1	7490	47.772743305117	8825
1	7493	47.780675316448	8814
1	7500	47.809647338847	8773
1	7507	47.870136416901	8688
1	7512	47.956002121354	8567
1	7517	47.993089694366	8514
1	7518	48	8505
1	7938	50	8300
1	8361	52	8376
1	8624	54	8739
1	8915	56	9275
1	8920	56.05	9289
1	8921	56.057535795026	9291
1	8928	56.077371568186	9296
1	8936	56.207742171279	9331
1	8941	56.240787115101	9340
1	8946	56.335165834988	9365
1	8949	56.342640474604	9367
1	8956	56.352663284474	9370
1	8962	56.446498112615	9395
1	8967	56.456203876128	9398
1	8972	56.495416444024	9408
1	8977	56.505503904901	9411
1	8982	56.514401068096	9413
1	8987	56.537517654396	9420
1	8994	56.544948652273	9422
1	8997	56.552378072778	9424
1	9000	56.559805916581	9426
1	9007	56.575814929195	9430
1	9013	56.667613822461	9455
1	9018	56.685980438004	9460
1	9024	56.727329626955	9471
1	9029	56.74391478222	9475
1	9034	56.786659588412	9487
1	9040	56.844668396635	9502
1	9046	56.876395941338	9511
1	9052	56.91960532678	9522
1	9057	56.946574133007	9529
1	9062	57.054598032868	9558
1	9067	57.07587913977	9564
1	9072	57.091060956403	9568
1	9078	57.123148041912	9577
1	9084	57.20288888291	9598
1	9090	57.24004324898	9614
1	9095	57.291476915035	9644
1	9100	57.307817441246	9653
1	9106	57.323296932861	9662
1	9112	57.361913318456	9685
1	9118	57.395932492214	9684
1	9124	57.41729766622	9674
1	9130	57.429214402924	9668
1	9133	57.436454783561	9665
1	9143	57.504938884179	9632
1	9148	57.514231210672	9628
1	9153	57.521501671827	9624
1	9156	57.528775154786	9621
1	9161	57.536050905747	9617
1	9168	57.543336535853	9614
1	9171	57.550617584324	9610
1	9178	57.583487658293	9594
1	9184	57.601543518581	9586
1	9189	57.617583128288	9578
1	9194	57.665442328453	9555
1	9201	57.71078331169	9534
1	9206	57.736979559912	9521
1	9212	57.776648149022	9502
1	9217	57.800056102968	9491
1	9222	57.80743151125	9487
1	9227	57.814810029222	9484
1	9230	57.822190881183	9480
1	9237	57.831377492752	9476
1	9242	57.838764575909	9472
1	9245	57.846154778612	9469
1	9250	57.853547322703	9465
1	9255	57.860942990954	9462
1	9262	57.869913103144	9457
1	9269	57.964205122118	9412
1	9272	57.971642436185	9409
1	9277	57.979082121593	9405
1	9284	58	9395
1	9589	60	8850
1	9913	62	8943
1	10255	64	9396
1	10587	66	9259
1	10890	68	8941
1	11146	70	8993
1	11556	72	8988
1	11890	74	8841
1	12227	76	8212
1	12508	78	9582
1	12781	80	8853
1	13104	82	9123
1	13380	84	9324
1	13681	86	9554
1	14003	88	9391
1	14221	90	9843
1	14224	90.056046485402	9836
1	14229	90.093661419043	9832
1	14235	90.229355040165	9817
1	14240	90.322643991248	9807
1	14246	90.391857959112	9799
1	14251	90.427949755437	9795
1	14256	90.443520460878	9793
1	14261	90.453429959248	9792
1	14266	90.529960569386	9783
1	14271	90.543203474133	9782
1	14276	90.578826309174	9778
1	14281	90.660475230278	9769
1	14286	90.680149194445	9767
1	14291	90.769477974902	9757
1	14294	90.776652311276	9756
1	14302	90.806300322778	9753
1	14310	90.857758484601	9747
1	14313	90.864940181533	9746
1	14320	90.885772229399	9744
1	14325	90.896354024276	9743
1	14332	90.950347141883	9737
1	14335	90.957536214493	9736
1	14343	91.005449252088	9730
1	14348	91.039319628422	9727
1	14353	91.094541969168	9720
1	14356	91.101743615259	9720
1	14363	91.112927544669	9718
1	14368	91.133274200699	9716
1	14373	91.189744562413	9710
1	14378	91.217882653501	9707
1	14383	91.245740807915	9704
1	14388	91.254791922356	9703
1	14393	91.277233008714	9700
1	14398	91.286251767567	9699
1	14405	91.325602883413	9695
1	14410	91.336471631081	9693
1	14414	91.343693337467	9693
1	14423	91.416802742268	9685
1	14426	91.424030413925	9684
1	14434	91.44968491686	9681
1	14439	91.461779577645	9679
1	14442	91.469011729727	9678
1	14449	91.609074253506	9661
1	14454	91.61710421676	9660
1	14457	91.624350593572	9659
1	14465	91.719048214021	9647
1	14470	91.733096092726	9645
1	14476	91.749440309999	9643
1	14479	91.756699461715	9642
1	14486	91.766372641767	9641
1	14491	91.780455704162	9639
1	14496	91.802676027695	9637
1	14501	91.816191012585	9635
1	14506	91.833730940175	9633
1	14513	91.936415049598	9620
1	14518	91.950867070245	9618
1	14523	92	9612
1	14794	94	8182
1	15081	96	8647
1	15388	98	8318
1	15685	100	8110
1	15982	102	9752
1	16289	104	9299
1	16653	106	8722
1	16930	108	9416
1	17196	110	9302
1	17199	110.055741574879	9304
1	17205	110.128648627341	9307
1	17211	110.1701396652	9309
1	17214	110.177659269884	9309
1	17221	110.225539793587	9311
1	17226	110.249173236116	9312
1	17232	110.304066036811	9314
1	17237	110.348316094923	9316
1	17243	110.408989733945	9319
1	17250	110.45588936155	9320
1	17255	110.472753063133	9321
1	17262	110.555693646765	9325
1	17267	110.651243907808	9328
1	17273	110.707550693806	9331
1	17278	110.729744245726	9332
1	17283	110.742778699828	9332
1	17288	110.751294013679	9333
1	17294	110.775444771153	9333
1	17300	110.800743934963	9335
1	17305	110.843091944953	9336
1	17310	110.879240503776	9338
1	17313	110.88673675565	9338
1	17320	110.897924075558	9338
1	17325	110.905472179765	9339
1	17328	110.912967628957	9339
1	17335	110.932383156513	9340
1	17340	110.953747064418	9341
1	17345	110.966143087055	9341
1	17350	110.989559440717	9342
1	17355	111.059019123711	9345
1	17362	111.110672353869	9347
1	17368	111.141561932967	9348
1	17371	111.149050165744	9349
1	17378	111.159198810741	9349
1	17384	111.198047649816	9351
1	17389	111.2641756102	9353
1	17392	111.271659839859	9354
1	17400	111.32697573498	9356
1	17406	111.366978082863	9358
1	17413	111.59132604909	9367
1	17418	111.605974417506	9367
1	17423	111.671750982056	9370
1	17428	111.737021964087	9373
1	17433	111.75575448423	9373
1	17438	111.777086589489	9374
1	17441	111.784554052685	9375
1	17446	111.792020719352	9375
1	17453	111.855457859292	9377
1	17460	111.905777069761	9379
1	17463	111.913240552009	9380
1	17469	112	9383
1	17801	114	9465
1	17804	114.19571651986	9473
1	17809	114.228460838198	9474
1	17812	114.235849480799	9474
1	17819	114.252816752596	9475
1	17824	114.30001109973	9477
1	17829	114.338086023414	9478
1	17834	114.398301927371	9481
1	17837	114.405685114798	9481
1	17845	114.420046893603	9482
1	17850	114.434773571562	9482
1	17855	114.442446143607	9483
1	17860	114.468820605008	9484
1	17863	114.476201456969	9484
1	17870	114.506562569912	9485
1	17875	114.554888256018	9487
1	17881	114.565883992494	9488
1	17887	114.586977557182	9489
1	17892	114.597571622711	9489
1	17898	114.641348821872	9491
1	17901	114.648724230154	9491
1	17908	114.729458016008	9494
1	17913	114.790007010832	9497
1	17918	114.797377759489	9497
1	17921	114.804748508146	9497
1	17928	114.884586517074	9501
1	17933	114.900241295539	9501
1	17938	114.918805059554	9502
1	17941	114.926171929687	9502
1	17948	114.93849481563	9503
1	17953	114.962878921754	9504
1	17958	115.063181812606	9508
1	17964	115.201257082729	9514
1	17970	115.364796687702	9520
1	17975	115.38392164963	9521
1	17980	115.391683241828	9521
1	17985	115.422517943532	9523
1	17990	115.459952321372	9524
1	17995	115.491258356279	9525
1	18000	115.498607437644	9526
1	18003	115.505955747533	9526
1	18010	115.534088852032	9527
1	18016	115.578785148963	9529
1	18022	115.640254804249	9531
1	18028	115.692684478182	9534
1	18033	115.733060197255	9535
1	18038	115.779378046197	9537
1	18044	115.798282935098	9538
1	18047	115.805621999891	9538
1	18054	115.820742019099	9539
1	18059	115.841914112585	9540
1	18064	115.859394098863	9540
1	18069	115.877107699714	9541
1	18074	115.908289041502	9542
1	18079	115.925346957071	9543
1	18084	116	9546
1	18399	118	9524
1	18404	118.05	9490
1	18405	118.057376185458	9486
1	18412	118.135505483478	9433
1	18418	118.256736947459	9352
1	18423	118.312884555731	9315
1	18428	118.333910134218	9301
1	18431	118.341436206683	9296
1	18438	118.395926974321	9259
1	18443	118.453131862148	9221
1	18448	118.493185094136	9194
1	18451	118.500798755219	9189
1	18458	118.513815426003	9181
1	18463	118.523235631194	9174
1	18469	118.664647035759	9080
1	18472	118.67235628686	9075
1	18479	118.707928220932	9051
1	18482	118.715662172981	9046
1	18489	118.765212040764	9013
1	18494	118.791512586608	8995
1	18497	118.799294687775	8990
1	18504	118.831262216478	8968
1	18509	118.864144312583	8946
1	18516	118.886386274998	8932
1	18524	118.988022143575	8864
1	18532	119.100417492367	8789
1	18537	119.110115618544	8782
1	18542	119.119734373001	8776
1	18547	119.129817148508	8769
1	18552	119.180227193048	8735
1	18558	119.246671963396	8691
1	18564	119.318128774147	8629
1	18570	119.419847718548	8673
1	18577	119.448746774803	8695
1	18582	119.46499002179	8706
1	18587	119.486312551172	8722
1	18592	119.525731529201	8751
1	18597	119.557469425736	8774
1	18602	119.644015501193	8838
1	18607	119.663616655609	8852
1	18610	119.671524473051	8858
1	18617	119.695469228633	8875
1	18623	119.718690881449	8892
1	18628	119.737571799596	8906
1	18633	119.790691942528	8945
1	18638	119.808598249983	8958
1	18643	119.845192035643	8985
1	18649	119.886792339543	9015
1	18652	119.894557175927	9021
1	18657	119.902316847804	9027
1	18665	119.963757775818	9072
1	18668	119.971473825201	9077
1	18674	120	9098
1	18999	122	8655
1	19346	124	8152
1	19787	126	9542
1	20084	128	9274
1	20312	130	8253
1	20592	132	9113
1	20918	134	8968
1	21236	136	9182
1	21541	138	9777
1	21545	138.05	9789
1	21551	138.084277069494	9796
1	21556	138.105112428647	9801
1	21561	138.140417569407	9809
1	21564	138.147553872802	9811
1	21572	138.181963819313	9731
1	21575	138.189157324605	9615
1	21580	138.196437615817	9497
1	21587	138.207004924208	9325
1	21593	138.256582285523	8912
1	21599	138.33244052243	8618
1	21604	138.356073251753	8526
1	21607	138.364283432377	8495
1	21612	138.372523573637	8463
1	21620	138.429805914325	8241
1	21625	138.442871764866	8190
1	21629	138.451418773413	8185
1	21636	138.477314519135	8245
1	21641	138.498712190775	8294
1	21646	138.614971061143	8563
1	21651	138.651158987153	8647
1	21654	138.659254280318	8665
1	21659	138.667332756948	8684
1	21666	138.739611597216	8851
1	21671	138.772997953973	8928
1	21676	138.80942074916	9012
1	21682	138.91055836468	9246
1	21688	138.934642548735	9302
1	21692	138.942167812119	9319
1	21699	138.956937838312	9353
1	21705	139.002714165092	9459
1	21708	139.010114524538	9476
1	21715	139.041440132441	9549
1	21718	139.048770742976	9566
1	21723	139.056088326083	9583
1	21730	139.063392927982	9599
1	21737	139.070685354276	9616
1	21740	139.077964888386	9633
1	21743	139.085231575815	9650
1	21751	139.134643189747	9370
1	21757	139.161225145782	9133
1	21762	139.171066839155	9133
1	21769	139.271196293061	9130
1	21775	139.286624634839	9130
1	21780	139.322802865309	9129
1	21786	139.41686729519	9127
1	21792	139.46071573049	9125
1	21797	139.483623051582	9125
1	21802	139.507456399959	9124
1	21807	139.538841051546	9123
1	21812	139.569361338433	9123
1	21817	139.63112020919	9121
1	21820	139.638794806274	9121
1	21825	139.646469403358	9121
1	21833	139.71453775709	9119
1	21839	139.741241905241	9118
1	21844	139.791306761242	9117
1	21847	139.798984725485	9117
1	21857	140	9111
1	22141	142	8727
1	22512	144	8057
1	22828	146	9749
1	22835	146.05	9818
1	22836	146.057129761662	9827
1	22839	146.064252993574	9837
1	22846	146.082292143231	9862
1	22852	146.211088535576	8910
1	22857	146.223665560444	8806
1	22860	146.23161468604	8741
1	22867	146.24946750241	8594
1	22873	146.344313659222	8039
1	22880	146.424278462669	8073
1	22886	146.434480769876	8077
1	22892	146.587465708615	8142
1	22898	146.637098893178	8164
1	22903	146.74796754078	8211
1	22906	146.75649268997	8215
1	22914	146.799479824387	8233
1	22919	146.809747129224	8237
1	22922	146.818245368874	8241
1	22930	146.863266366125	8260
1	22936	146.8853517984	8270
1	22941	146.911951984873	8281
1	22948	147.032736353979	8333
1	22951	147.041136689992	8336
1	22958	147.052250162177	8341
1	22963	147.069759419937	8348
1	22966	147.078144661911	8352
1	22973	147.092321721908	8358
1	22976	147.100696931288	8362
1	22985	147.129143406118	8374
1	22990	147.157040525974	8386
1	22995	147.195629820324	8402
1	22998	147.203961170003	8406
1	23005	147.26072018622	8430
1	23010	147.312198652745	8452
1	23015	147.336265536254	8462
1	23020	147.353713621984	8470
1	23025	147.37113018602	8477
1	23030	147.379977348035	8481
1	23033	147.388231091697	8484
1	23040	147.397484319039	8488
1	23046	147.454669007248	8513
1	23052	147.511553918362	8537
1	23057	147.555288676505	8556
1	23060	147.563470069679	8559
1	23067	147.575003600191	8564
1	23072	147.626643837552	8586
1	23077	147.652218634205	8597
1	23084	147.702504286594	8619
1	23090	147.740800261506	8635
1	23093	147.748906804644	8638
1	23098	147.757010532359	8642
1	23106	147.81231299353	8665
1	23111	147.82039147016	8669
1	23114	147.828466219266	8672
1	23119	147.836538174986	8676
1	23124	147.844606409195	8679
1	23131	147.870075683137	8690
1	23134	147.87813091904	8693
1	23141	147.899780705474	8703
1	23144	147.907823908967	8706
1	23151	147.941158393868	8720
1	23157	147.967842548219	8732
1	23161	148	8746
1	23460	150	8704
1	23762	152	8473
1	24129	154	8237
1	24414	156	9120
1	24729	158	8520
1	25018	160	9693
1	25021	160.026358123767	9696
1	25026	160.033577595714	9697
1	25029	160.040796323155	9698
1	25037	160.051617078324	9700
1	25040	160.058833573169	9701
1	25047	160.166376334244	9715
1	25052	160.17769204525	9716
1	25057	160.189828537226	9718
1	25062	160.20559616625	9720
1	25068	160.244367006521	9725
1	25073	160.296848161317	9732
1	25079	160.353923135905	9739
1	25086	160.473322662424	9755
1	25091	160.490359147083	9757
1	25096	160.507520207636	9759
1	25101	160.529365888974	9762
1	25106	160.569985567978	9768
1	25111	160.605964888813	9772
1	25116	160.79072600511	9797
1	25122	160.821743042254	9801
1	25127	160.869661864394	9807
1	25132	160.915909216943	9813
1	25138	160.951298496549	9818
1	25143	161.019040657163	9827
1	25146	161.026163889075	9827
1	25153	161.049197254615	9830
1	25158	161.062861322107	9832
1	25163	161.175017765103	9847
1	25171	161.260640538757	9858
1	25176	161.272193426917	9860
1	25181	161.280047468958	9861
1	25184	161.287146140492	9862
1	25192	161.347400287604	9870
1	25197	161.364378182575	9872
1	25202	161.406090933352	9877
1	25208	161.522529681213	9799
1	25213	161.538497314133	9777
1	25218	161.5890247546	9707
1	25223	161.615389108686	9670
1	25228	161.623063421017	9659
1	25233	161.650456118007	9621
1	25239	161.786865537408	9431
1	25244	161.830683841004	9370
1	25249	161.873106054554	9311
1	25254	161.898544742881	9275
1	25260	161.954741612001	9197
1	25265	161.962352789559	9187
1	25268	161.969972251843	9176
1	25274	162	9134
1	25543	164	9704
1	25834	166	8129
1	26138	168	9121
1	26403	170	9586
1	26406	170.050344926925	9600
1	26411	170.059593281561	9602
1	26418	170.109178739083	9616
1	26423	170.124440981461	9620
1	26429	170.146748698521	9626
1	26434	170.157424389603	9629
1	26439	170.180963777493	9635
1	26444	170.19664477039	9640
1	26449	170.203906181178	9641
1	26454	170.211166838786	9643
1	26458	170.218425990502	9645
1	26465	170.225694542767	9647
1	26472	170.248001381525	9653
1	26478	170.324583202837	9674
1	26483	170.336758128337	9677
1	26488	170.34917131464	9681
1	26497	170.489423948154	9719
1	26502	170.505702842663	9723
1	26505	170.512902266709	9725
1	26514	170.611181110538	9752
1	26519	170.63583250003	9758
1	26525	170.681449665072	9771
1	26528	170.688613721975	9773
1	26536	170.707250260275	9773
1	26542	170.718386089427	9725
1	26547	170.770936774627	9497
1	26552	170.779832310017	9459
1	26555	170.787232669463	9427
1	26562	170.816951519249	9298
1	26568	170.83881029213	9204
1	26574	170.915191033906	9042
1	26577	170.922932683983	9044
1	26584	170.948845778422	9051
1	26589	170.958158394011	9053
1	26594	170.994317336387	9062
1	26597	171.002041900501	9064
1	26604	171.011166131636	9067
1	26609	171.026884824337	9071
1	26614	171.039814603414	9074
1	26619	171.056638521459	9078
1	26624	171.080829108522	9084
1	26630	171.18384470043	9111
1	26635	171.213266612477	9118
1	26640	171.224000972656	9121
1	26645	171.251664372105	9128
1	26650	171.274045875963	9134
1	26655	171.284586746116	9137
1	26661	171.342967366624	9151
1	26664	171.350616803844	9153
1	26671	171.40766613602	9168
1	26676	171.423747069282	9172
1	26681	171.472315450882	9185
1	26686	171.525971507155	9198
1	26691	171.537852044202	9201
1	26696	171.569585484408	9210
1	26701	171.593495407154	9216
1	26705	171.601090893265	9218
1	26710	171.608684731408	9220
1	26717	171.617027483814	9222
1	26720	171.624618028164	9224
1	26728	171.706423032355	9245
1	26733	171.726457715972	9250
1	26738	171.744114940609	9254
1	26743	171.791073520493	9266
1	26749	171.85834709406	9283
1	26754	171.884519440594	9290
1	26759	172	9320
1	27104	174	8973
1	27363	176	9245
1	27697	178	8461
1	28008	180	8932
1	28298	182	9161
1	28600	184	9838
1	28604	184.114244987513	9873
1	28610	184.122814246145	9849
1	28616	184.223861138162	9560
1	28624	184.265524120286	9441
1	28627	184.272938589092	9419
1	28634	184.293195627044	9361
1	28639	184.368167340432	9147
1	28642	184.375820122765	9125
1	28647	184.383491355642	9103
1	28658	184.533160089358	9108
1	28663	184.557958846702	9150
1	28668	184.57570556324	9180
1	28671	184.583330835571	9193
1	28678	184.599239460511	9220
1	28683	184.615183228164	9247
1	28688	184.635655672054	9282
1	28694	184.683255809507	9363
1	28699	184.691843137302	9377
1	28704	184.711181532307	9410
1	28710	184.826407859681	9606
1	28715	184.883976304852	9703
1	28720	184.903314308856	9736
1	28726	184.947720383409	9741
1	28731	184.978600325115	9730
1	28737	185.078766518023	9695
1	28742	185.093268262794	9690
1	28747	185.120004920569	9681
1	28754	185.142929904002	9672
1	28759	185.199638155583	9652
1	28764	185.281690384591	9623
1	28769	185.295338522914	9619
1	28772	185.302615786663	9616
1	28779	185.316608646192	9611
1	28785	185.371802890809	9592
1	28790	185.38971157755	9585
1	28795	185.411416837723	9578
1	28800	185.429938349364	9571
1	28805	185.440332652426	9567
1	28808	185.447649470655	9565
1	28815	185.484742095205	9552
1	28820	185.510365375773	9543
1	28825	185.520170763041	9539
1	28828	185.52750905846	9536
1	28833	185.534849662487	9534
1	28842	185.60674068982	9508
1	28847	185.620765562839	9504
1	28850	185.628130882704	9501
1	28855	185.635498528215	9498
1	28863	185.656034379304	9491
1	28868	185.701909011168	9475
1	28873	185.713635584364	9471
1	28879	185.764471490295	9453
1	28882	185.771876546891	9450
1	28887	185.779283954298	9448
1	28894	185.827886122291	9430
1	28900	185.879003673827	9412
1	28906	185.922929686459	9397
1	28911	185.933306434293	9393
1	28914	185.940758792432	9390
1	28919	185.948213531516	9388
1	28926	185.982881148215	9376
1	28930	186	9370
1	29186	188	8663
1	29494	190	9002
1	29808	192	9198
1	30131	194	9445
1	30135	194.05	9451
1	30138	194.057406623638	9452
1	30145	194.154379381254	9464
1	30150	194.182006131906	9467
1	30156	194.229602459572	9473
1	30164	194.327548269227	9485
1	30170	194.352536022847	9488
1	30173	194.359913763151	9489
1	30180	194.36729072595	9490
1	30185	194.374666911408	9491
1	30190	194.38204231969	9492
1	30195	194.389416950958	9493
1	30198	194.396790805377	9494
1	30204	194.40416388311	9495
1	30211	194.413655213773	9496
1	30217	194.445113570701	9500
1	30224	194.505272800165	9507
1	30230	194.538447429071	9511
1	30235	194.562960333202	9514
1	30240	194.572226567247	9515
1	30245	194.597975643458	9519
1	30250	194.621489590911	9522
1	30258	194.826970396957	9541
1	30263	194.84999687765	9543
1	30268	194.885171928305	9546
1	30273	194.90629474313	9548
1	30279	194.936920072535	9550
1	30284	194.993876390162	9556
1	30289	195.055539879682	9561
1	30295	195.077872604668	9563
1	30298	195.085192483367	9564
1	30305	195.133356901677	9568
1	30310	195.202378918507	9574
1	30313	195.209690387068	9575
1	30320	195.219562105005	9576
1	30326	195.246134707397	9578
1	30331	195.258205519102	9579
1	30338	195.319030856363	9584
1	30343	195.35860081402	9588
1	30346	195.365901606677	9589
1	30351	195.373201637963	9589
1	30358	195.391856669911	9591
1	30361	195.39915517893	9592
1	30369	195.431652028741	9594
1	30374	195.554507633757	9605
1	30377	195.561795504658	9606
1	30385	195.596157736364	9609
1	30391	195.645638276648	9614
1	30396	195.655892996939	9614
1	30399	195.66317404541	9615
1	30407	195.739275135894	9622
1	30412	195.841702481342	9631
1	30417	195.856756079578	9632
1	30422	195.878859567606	9634
1	30425	195.886125500759	9635
1	30432	195.899080810019	9636
1	30436	196	9645
1	30444	196.05	9650
1	30445	196.05725388601	9650
1	30448	196.06450777202	9651
1	30453	196.07176090641	9651
1	30461	196.094844256638	9654
1	30466	196.13258242732	9657
1	30471	196.181113177847	9661
1	30474	196.188358804594	9662
1	30481	196.278364482275	9670
1	30486	196.291162972458	9671
1	30489	196.298401107087	9672
1	30496	196.358522737336	9677
1	30501	196.384785467539	9679
1	30506	196.421149413134	9683
1	30509	196.428378577649	9683
1	30514	196.435607742164	9684
1	30522	196.485966571375	9688
1	30525	196.493192004901	9689
1	30530	196.500416692691	9690
1	30537	196.582301720357	9697
1	30542	196.591300045786	9698
1	30547	196.603140623152	9699
1	30553	196.829438934872	9719
1	30556	196.836641321949	9720
1	30563	196.901657973111	9725
1	30573	197.259794847457	9757
1	30578	197.296592460832	9760
1	30583	197.309538719196	9762
1	30590	197.345346892703	9701
1	30593	197.352562643657	9671
1	30600	197.381911467664	9549
1	30605	197.403592088634	9458
1	30611	197.509948690695	9014
1	30616	197.529890679586	8931
1	30621	197.598393493182	8645
1	30626	197.689904272639	8263
1	30632	197.722925421601	8171
1	30635	197.731492304479	8178
1	30642	197.740051854491	8186
1	30646	197.748603039441	8194
1	30653	197.757145875663	8201
1	30656	197.765681420109	8209
1	30663	197.870021548605	8303
1	30669	197.952145759581	8376
1	30673	197.96050297066	8384
1	30680	197.977565335968	8399
1	30683	197.985899661483	8407
1	30690	197.994226056154	8414
1	30693	198	8419
1	31111	200	8976
1	31383	202	9537
1	31642	204	9504
1	31991	206	8836
1	32360	208	8737
1	32640	210	9119
1	32986	212	8847
1	33326	214	9567
1	33652	216	8850
1	33967	218	8702
1	34244	220	8712
1	34568	222	8804
1	34875	224	9453
1	35174	226	9639
1	35179	226.05	9632
1	35180	226.05726744186	9631
1	35187	226.112288355912	9624
1	35192	226.146285541929	9619
1	35198	226.159405304925	9617
1	35204	226.276621837107	9602
1	35210	226.299300600767	9599
1	35215	226.335691748176	9594
1	35220	226.375102248416	9589
1	35223	226.382402279702	9588
1	35231	226.422351178945	9582
1	35234	226.42965654317	9581
1	35241	226.441005029696	9580
1	35246	226.448311919049	9579
1	35251	226.455619571205	9578
1	35254	226.462927986323	9577
1	35261	226.47261893519	9576
1	35266	226.504510272702	9571
1	35271	226.519303729596	9569
1	35277	226.583071241282	9561
1	35280	226.590392651176	9560
1	35287	226.664864793476	9550
1	35292	226.682348598593	9548
1	35297	226.700230055721	9545
1	35302	226.729863282601	9541
1	35307	226.758485069208	9537
1	35315	226.954819483026	9511
1	35321	227.012797941272	9503
1	35327	227.06231349428	9497
1	35332	227.075405907597	9495
1	35337	227.089453532933	9493
1	35344	227.121146783284	9489
1	35349	227.139958715225	9486
1	35352	227.147338011029	9485
1	35357	227.15471808483	9484
1	35364	227.173709144527	9482
1	35369	227.230869104167	9474
1	35372	227.238257746768	9473
1	35379	227.266719924172	9469
1	35384	227.288444059533	9467
1	35389	227.310876266052	9464
1	35394	227.328570135039	9461
1	35399	227.349795117024	9458
1	35404	227.369670327373	9456
1	35409	227.378934525139	9454
1	35414	227.388711191463	9453
1	35419	227.399910621758	9452
1	35422	227.407316461792	9451
1	35429	227.418711145398	9449
1	35435	227.429998706481	9448
1	35438	227.437407681926	9447
1	35443	227.444817441638	9446
1	35450	227.466937494923	9443
1	35455	227.513325554017	9437
1	35463	227.67420188472	9415
1	35468	227.71837959586	9409
1	35473	227.732303308554	9407
1	35478	227.763041419072	9403
1	35483	227.785772958985	9400
1	35486	227.793219767496	9399
1	35493	227.863282975599	9390
1	35498	227.892518975359	9386
1	35503	227.919283976124	9382
1	35506	227.926745071839	9381
1	35513	227.953828077703	9378
1	35516	227.961292355801	9377
1	35523	227.969989380275	9375
1	35528	227.985206853022	9373
1	35532	228	9371
1	35876	230	8738
1	36155	232	8922
1	36423	234	8843
1	36725	236	8687
1	37066	238	8199
1	37411	240	9139
1	37676	242	8684
1	37948	244	9184
1	38350	246	8825
1	38716	248	9634
1	38719	248.013829787514	9607
1	38724	248.028017466094	9579
1	38730	248.136713974534	9367
1	38735	248.158618475704	9325
1	38740	248.186849999839	9270
1	38745	248.210677026336	9223
1	38750	248.307263095114	9035
1	38755	248.316726381072	9016
1	38759	248.324490356227	9001
1	38767	248.413267289501	8828
1	38770	248.421196605314	8812
1	38775	248.429140318432	8797
1	38782	248.467026075416	8723
1	38785	248.475050837539	8707
1	38793	248.544453471928	8572
1	38798	248.554231969355	8553
1	38805	248.633750847987	8398
1	38810	248.693257677867	8282
1	38813	248.701709742586	8265
1	38821	248.746696189333	8365
1	38826	248.761948081208	8439
1	38832	248.781445040654	8532
1	38838	248.80200876911	8631
1	38841	248.810119069191	8670
1	38850	248.89372982858	9073
1	38860	249.023885089467	9605
1	38865	249.036017398905	9602
1	38868	249.043307546791	9600
1	38876	249.081802036245	9589
1	38882	249.148534777511	9570
1	38887	249.157225952007	9568
1	38894	249.210495629569	9553
1	38899	249.243697497872	9543
1	38904	249.34106203669	9516
1	38907	249.348418068636	9514
1	38914	249.397223452265	9500
1	38919	249.446386147145	9486
1	38924	249.460474585702	9482
1	38927	249.467856994477	9480
1	38932	249.475240960722	9478
1	38942	249.6954046672	9416
1	38947	249.712005805231	9411
1	38952	249.76858288423	9395
1	38958	249.776528233546	9393
1	38963	249.809727380339	9383
1	38968	249.854228062391	9371
1	38973	249.905439265156	9356
1	38979	249.966748242856	9339
1	38982	249.974243692048	9337
1	38989	250	9330
1	39259	252	9428
1	39670	254	8643
1	39966	256	9626
1	39974	256.05	9724
1	39975	256.057198683669	9739
1	39978	256.064386279931	9753
1	39986	256.082315120624	9772
1	39989	256.089478444406	9769
1	39996	256.122718729267	9752
1	40002	256.163217912056	9732
1	40009	256.170410678188	9728
1	40012	256.177606401872	9725
1	40015	256.184804345317	9721
1	40022	256.25094509561	9688
1	40027	256.280232338997	9674
1	40032	256.320647869432	9654
1	40037	256.355759539881	9636
1	40042	256.40805855448	9610
1	40045	256.415342633564	9607
1	40053	256.492636887075	9568
1	40058	256.525634685884	9552
1	40061	256.532962994092	9548
1	40066	256.540294372391	9545
1	40073	256.552658079224	9538
1	40078	256.567027681813	9531
1	40083	256.595300870952	9517
1	40088	256.613698772145	9508
1	40094	256.681004600125	9475
1	40097	256.688392462922	9471
1	40104	256.713744378298	9458
1	40111	256.829222340169	9401
1	40116	256.859100748728	9386
1	40124	256.986523145923	9323
1	40129	257.016311452387	9308
1	40134	257.03691910945	9298
1	40139	257.07527365351	9279
1	40144	257.085692707622	9274
1	40149	257.130762323142	9251
1	40154	257.242214228695	9196
1	40159	257.282761899654	9176
1	40164	257.342404139801	9146
1	40167	257.350057758869	9142
1	40175	257.392694502118	9121
1	40181	257.556168208994	9040
1	40186	257.577852352013	9029
1	40191	257.644727047077	8996
1	40196	257.663228539822	8986
1	40201	257.68562302282	8975
1	40206	257.738514121047	8949
1	40211	257.774609188596	8931
1	40216	257.80026995185	8918
1	40221	257.811155247804	8913
1	40227	257.84897356333	8894
1	40234	257.910973417347	8863
1	40240	257.940203860077	8849
1	40247	257.972364000373	8833
1	40251	258	8819
1	40607	260	8870
1	40893	262	9307
1	41239	264	9048
1	41626	266	9309
1	41865	268	9780
1	41868	268.050966447484	9792
1	41873	268.065640073302	9795
1	41878	268.076782903457	9798
1	41884	268.212404045711	9830
1	41889	268.271346885891	9843
1	41894	268.337703558241	9859
1	41899	268.352594244749	9863
1	41904	268.434950269091	9882
1	41910	268.471248520781	9890
1	41915	268.501087764595	9898
1	41920	268.514891495296	9901
1	41925	268.527083900863	9904
1	41930	268.534748817159	9905
1	41935	268.542450727732	9907
1	41941	268.57273562851	9914
1	41946	268.599003302405	9921
1	41951	268.665565867877	9936
1	41957	268.704530188782	9945
1	41964	268.814694770775	9367
1	41970	268.862083958895	9295
1	41975	268.872742224608	9279
1	41978	268.880286140978	9268
1	41985	268.919110057439	9209
1	41990	268.945977085104	9169
1	41997	269.007054858545	9076
1	42003	269.027106210251	9046
1	42008	269.035430509774	9033
1	42013	269.043602205599	9021
1	42018	269.068715081962	8983
1	42024	269.096894015351	8941
1	42030	269.179470497735	8816
1	42035	269.190770063088	8799
1	42040	269.26082753868	8693
1	42045	269.287631771301	8652
1	42048	269.295722386188	8640
1	42053	269.30382423804	8628
1	42060	269.330095076952	8588
1	42065	269.410665447736	8467
1	42071	269.445978420712	8413
1	42076	269.460420997475	8391
1	42082	269.625638289777	8142
1	42088	269.658624630129	8106
1	42094	269.699448408222	8111
[...]
23	48556	307.987599800091	0.55895739720434
23	48659	308.546557197295	1.0263212538081
23	48836	309.572878451103	0.55837282414016
23	48942	310.131251275243	0.5785309012101
23	49032	310.709782176453	0.32466061734193
23	49091	311.034442793795	4.2615685077941
23	49848	315.296011301589	0.517538354055
23	49929	315.813549655644	0.27882963253486
23	49973	316.092379288179	4.630933818017
23	50781	320.723313106196	0.84543106870632
23	50941	321.568744174902	0.58975630804491
23	51052	322.158500482947	1.425492140159
23	51280	323.583992623106	0.5183302827941
23	51367	324.1023229059	0.26497494524904
23	51421	324.367297851149	0.67788637243832
23	51533	325.045184223587	0.13278845117369
23	51575	325.177972674761	1.3512587130827
23	51735	326.529231387844	0.5754570948023
23	51864	327.104688482646	0.84352752051243
23	52035	327.948216003158	0.021864909637454
23	52043	327.970080912795	0.60230434367264
23	52141	328.572385256468	0.33861933965901
23	52194	328.911004596127	0.45233368372738
23	52268	329.363338279854	0.5852866115323
23	52336	329.948624891386	4.746309517976
23	53168	334.694934409362	0.20672061599297
23	53207	334.901655025355	1.6139552336879
23	53519	336.515610259043	0.74411958513031
23	53650	337.259729844173	0.98503870975712
23	53838	338.24476855393	0.027455464941022
23	53846	338.272224018871	1.3577046061901
23	54090	339.629928625061	0.6472881294183
23	54186	340.277216754479	0.0081198671748602
23	54187	340.285336621654	1.0132907083054
23	54317	341.298627329959	0.59914789807117
23	54423	341.89777522803	1.408230117987
23	54598	343.306005346017	0.72617607225663
23	54676	344.032181418274	0.6548199859832
23	54817	344.687001404257	0.91209028285143
23	54944	345.599091687108	0.11524233257907
23	54960	345.714334019687	1.0228765555257
23	55099	346.737210575213	1.9962373149076
23	55435	348.733447890121	0.17021467250113
23	55477	348.903662562622	1.5468095761447
23	55655	350.450472138767	0.56602689336054
23	55745	351.016499032128	0.033439875726896
23	55751	351.049938907855	0.34007282905863
23	55808	351.390011736914	0.47363325734462
23	55902	351.863644994259	0.090785769099708
23	55918	351.954430763359	1.8265866338605
23	56195	353.78101739722	0.094352484795462
23	56221	353.875369882015	1.0511333437237
23	56431	354.926503225739	0.17500759288793
23	56467	355.101510818627	0.4986761719883
23	56531	355.600186990615	0.11180903654053
23	56565	355.711996027156	0.47975445988931
23	56633	356.191750487045	0.27881425264275
23	56664	356.470564739688	1.0088564673468
23	56768	357.479421207035	0.0094297455291515
23	56771	357.488850952564	0.27731784998994
23	56792	357.766168802554	0.57459928934381
23	56858	358.340768091898	0.83765261516914
23	56986	359.178420707067	3.0747713588692
23	57436	362.253192065936	2.2815816397705
23	57777	364.534773705707	0.30854419027933
23	57868	364.843317895986	2.6218223263402
23	58310	367.465140222326	0.63031172488637
23	58403	368.095451947212	0.85270331730344
23	58500	368.948155264515	0.77376400468018
23	58611	369.721919269195	0.078639366660445
23	58624	369.800558635855	0.11981330170305
23	58660	369.920371937558	0.67106998074287
23	58778	370.591441918301	0.86018950827604
23	58893	371.451631426577	0.044944678907242
23	58900	371.496576105484	1.0401903620623
23	59036	372.536766467546	0.56378927749546
23	59123	373.100555745041	0.62075277463987
23	59240	373.721308519681	0.74260640570068
23	59356	374.463914925382	0.3992392274992
23	59391	374.863154152881	1.852328525256
23	59613	376.715482678137	1.2686556552804
23	59842	377.984138333417	1.5897698638956
23	60064	379.573908197313	0.4210678388266
23	60153	379.99497603614	4.9306444668776
23	60927	384.925620503018	0.35923964885634
23	60972	385.284860151874	1.10915280706
23	61169	386.394012958934	1.3745705658817
23	61396	387.768583524816	2.8208554080057
23	61876	390.589438932822	0.45157763164851
23	61925	391.041016564471	1.6618504877112
23	62183	392.702867052182	2.5752290277002
23	62588	395.278096079882	1.8137552924469
23	62828	397.091851372329	0.18171281510329
23	62864	397.273564187432	1.3113902506107
23	63047	398.584954438043	2.7772557168719
24	2329	14.694997286335	0.43967405442543
24	2379	15.13467134076	0.87391368060988
24	2524	16.00858502137	2.458953234254
24	2954	18.467538255624	1.0831760170536
24	3075	19.550714272678	0.14381749864963
24	3086	19.694531771328	0.64787444522696
24	3174	20.342406216555	0.91374390912158
24	3329	21.256150125677	0.42501177435329
24	3379	21.68116190003	2.2551838808788
24	3815	23.936345780909	0.7688490026619
24	3942	24.705194783571	1.2023761550254
24	4161	25.907570938596	0.33631747386842
24	4221	26.243888412464	0.026738453737199
24	4222	26.270626866201	0.79739014047039
24	4317	27.068017006671	1.0308922230364
24	4483	28.098909229707	1.6038809522826
24	4759	29.70279018199	0.019167659521677
24	4760	29.721957841512	1.1039074314704
24	4924	30.825865272982	0.95517338546873
24	5035	31.781038658451	1.3620390347451
24	5254	33.143077693196	1.5010455147374
24	5453	34.644123207933	0.5352208710624
24	5530	35.179344078995	1.3340835296095
24	5744	36.513427608604	1.8451455877055
24	6105	38.358573196309	3.3461597666097
24	6601	41.704732962919	0.13378121731505
24	6620	41.838514180234	1.6354305130042
24	6871	43.473944693238	1.4106403630445
24	7024	44.884585056283	0.25956152164633
24	7087	45.144146577929	0.19169675516239
24	7119	45.335843333091	0.1609628772843
24	7135	45.496806210375	1.0284868503347
24	7285	46.52529306071	0.30040318238211
24	7310	46.825696243092	1.1789525800171
24	7522	48.004648823109	1.4368942026365
24	7782	49.441543025746	0.23145140511917
24	7822	49.672994430865	1.9083310872842
24	8227	51.581325518149	1.3021846350405
24	8471	52.88351015319	0.45552742292915
24	8546	53.339037576119	1.1846688142406
24	8670	54.52370639036	1.0982746432218
24	8832	55.621981033582	0.56586821992889
24	8934	56.187849253511	0.62259414149864
24	9038	56.81044339501	0.30207856352281
24	9076	57.112521958533	0.28710848763945
24	9119	57.399630446172	2.894239018021
24	9642	60.293869464193	0.47481906243599
24	9703	60.768688526629	1.1819955072578
24	9905	61.950684033887	0.44241683776017
24	9958	62.393100871647	0.45454931891953
24	10048	62.847650190567	0.22646036263016
24	10073	63.074110553197	0.29202058535558
24	10126	63.366131138553	1.4689553163513
24	10384	64.835086454904	0.32887675279091
24	10446	65.163963207695	1.4887143856679
24	10696	66.652677593363	0.74059383642616
24	10799	67.393271429789	1.0636546405962
24	10955	68.456926070385	2.3252868339298
24	11318	70.782212904315	0.10366043279066
24	11341	70.885873337106	2.3418059020736
24	11724	73.22767923918	0.10102625884345
24	11746	73.328705498023	0.17695610968153
24	11794	73.505661607705	0.26730608724886
24	11853	73.772967694954	0.35599127566208
24	11912	74.128958970616	1.540569013254
24	12169	75.66952798387	0.01893631190737
24	12175	75.688464295777	0.036440956845967
24	12181	75.724905252623	0.4173503927332
24	12235	76.142255645356	0.61278315833401
24	12321	76.75503880369	0.71631084956748
24	12435	77.471349653257	0.66275855237338
24	12521	78.13410820563	0.19938836478075
24	12547	78.333496570411	0.38257680013063
24	12638	78.716073370542	2.4027359873877
24	12989	81.11880935793	3.3088835253282
24	13428	84.427692883258	0.045799947292815
24	13435	84.473492830551	0.79051522104153
24	13559	85.264008051593	0.45950411592172
24	13640	85.723512167515	0.83036033772336
24	13748	86.553872505238	0.41206628109016
24	13791	86.965938786328	0.56935441232993
24	13897	87.535293198658	1.6196347301959
24	14138	89.154927928854	1.0601953145557
24	14233	90.21512324341	3.0219480392146
24	14668	93.237071282625	1.2610668953184
24	14853	94.498138177943	0.89619174981765
24	14962	95.394329927761	0.99652273358377
24	15165	96.390852661345	0.70122360129927
24	15281	97.092076262644	0.22800043211589
24	15312	97.32007669476	2.5647648599224
24	15663	99.884841554682	0.2194257901292
24	15704	100.104267344811	0.075074174006745
24	15726	100.179341518818	1.8715023302867
24	15985	102.050843849105	1.6740708157717
24	16237	103.724914664877	0.34313596820716
24	16300	104.068050633084	0.50651879387211
24	16374	104.574569426956	0.80047788627469
24	16497	105.375047313231	0.023379542739996
24	16498	105.398426855971	0.22076592246664
24	16562	105.619192778438	0.61520895590748
24	16692	106.234401734345	0.81563957813097
24	16780	107.050041312476	0.31363213314067
24	16832	107.363673445617	2.0828179506439
24	17125	109.446491396261	0.53071900523094
24	17194	109.977210401492	1.2025960267008
24	17382	111.179806428193	3.3847585772752
24	17879	114.564565005468	1.0970666756907
24	18026	115.661631681159	0.37668555152446
24	18090	116.038317232683	1.0293998116844
24	18254	117.067717044367	0.35904213878779
24	18323	117.426759183155	1.6546686111387
24	18529	119.081427794294	0.8645233433949
24	18663	119.945951137689	0.97827579882918
24	18792	120.924226936518	0.15014531699878
24	18822	121.074372253517	0.22096165563113
24	18867	121.295333909148	0.16655150753998
24	18893	121.461885416688	0.96661869152468
24	19072	122.428504108213	0.12062524160867
24	19095	122.549129349822	1.2619321597628
24	19284	123.811061509585	0.42076903418356
24	19418	124.231830543769	0.59753499212284
24	19520	124.829365535892	0.8900862005824
24	19754	125.719451736474	0.79972053180049
24	19890	126.519172268274	0.002064370661587
24	19891	126.521236638936	0.11136726403573
24	19924	126.632603902972	3.4465875157536
24	20319	130.079191418726	1.7328147055348
24	20566	131.812006124261	1.9551261244179
24	20885	133.767132248679	0.19550659096755
24	20914	133.962638839647	0.46043680483943
24	20994	134.423075644486	0.10039243872885
24	21004	134.523468083215	2.2021118775762
24	21338	136.725579960791	2.4909005567922
24	21767	139.216480517583	0.69920832050737
24	21855	139.91568883809	1.5821694797552
24	22069	141.497858317845	0.19892737080419
24	22100	141.696785688649	0.23957348415343
24	22129	141.936359172802	0.56160576231797
24	22222	142.49796493512	0.99236575872442
24	22388	143.490330693844	4.5408052440417
24	23164	148.031135937886	2.8359861518048
24	23635	150.867122089691	0.7829032118118
24	23719	151.650025301503	2.0518178415507
24	24074	153.701843143054	0.21175914948661
24	24118	153.913602292541	0.34369635332662
24	24172	154.257298645868	0.25374506976215
24	24208	154.51104371563	0.90129391528681
24	24310	155.412337630917	0.75680430359851
24	24436	156.169141934516	0.54432891150694
24	24511	156.713470846023	1.3768623351454
24	24745	158.090333181168	0.50079110488677
24	24840	158.591124286055	1.0713025409
24	24960	159.662426826955	0.24098539849751
24	25003	159.903412225453	0.07284780326741
24	25013	159.97626002872	0.46009424076122
24	25084	160.436354269481	1.4939741345013
24	25258	161.930328403982	1.5469250630909
24	25478	163.477253467073	0.55150367927992
24	25544	164.028757146353	0.090216255147249
24	25554	164.1189734015	0.78864422907128
24	25687	164.907617630571	0.0022114824650703
24	25688	164.909829113036	0.38967957484725
24	25752	165.299508687883	0.63769673071544
24	25820	165.937205418598	0.69746982640828
24	25922	166.634675245006	0.2786331023127
24	25984	166.913308347319	1.4191716668678
24	26192	168.332480014187	1.7716304889801
24	26415	170.104110503167	0.33573195325522
24	26493	170.439842456422	0.013087224662335
24	26494	170.452929681084	0.26129694828606
24	26537	170.71422662937	1.243939162538
24	26758	171.958165791908	0.24326237809894
24	26792	172.201428170007	0.62928176437138
24	26912	172.830709934378	0.13888299362812
24	26959	172.969592928006	0.75121394833068
24	27070	173.720806876337	0.17549031122213
24	27090	173.896297187559	0.25206058943553
24	27116	174.148357776995	3.1601748860203
24	27546	177.308532663015	0.5094635773275
24	27682	177.817996240342	0.74674600786
24	27776	178.564742248202	0.36860803612323
24	27842	178.933350284325	2.0355456767714
24	28174	180.968895961096	1.8784569217655
24	28413	182.847352882862	0.014343611822061
24	28421	182.861696494684	0.94619426153017
24	28543	183.807890756214	0.29386985076195
24	28602	184.101760606976	0.14062126264717
24	28621	184.242381869623	0.23701520978002
24	28655	184.479397079403	0.51290908775787
24	28735	184.992306167161	1.5966678297238
24	28990	186.588973996885	2.9183480702779
24	29433	189.507322067163	1.036747706949
24	29558	190.544069774112	0.44460122537837
24	29674	190.98867099949	0.11285081626084
24	29684	191.101521815751	1.9186828718499
24	29981	193.020204687601	4.1020930957407
24	30570	197.122297783342	1.1439714823622
24	30745	198.266269265704	0.0077133535963422
24	30747	198.2739826193	0.42563441205148
24	30824	198.699617031351	0.07978549046651
24	30864	198.779402521818	3.8911892172735
24	31464	202.670591739091	0.90327891175312
24	31574	203.573870650844	0.66969492051196
24	31684	204.243565571356	0.021341669000509
24	31687	204.264907240357	0.60021525656953
24	31768	204.865122496927	0.86715030005066
24	31926	205.732272796978	0.22992400611357
24	31979	205.962196803092	1.1844831858359
24	32245	207.146679988928	2.0847152987308
24	32547	209.231395287659	0.36300440413605
24	32594	209.594399691795	1.438281901161
24	32825	211.032681592956	0.88520887666374
24	32979	211.91789046962	0.55867712065575
24	33065	212.476567590276	0.025339160955372
24	33071	212.501906751231	4.1017514687894
24	33756	216.60365822002	1.4240492266165
24	33969	218.027707446636	1.536770162383
24	34166	219.564477609019	0.57840377377262
24	34288	220.142881382792	0.59084662944018
24	34354	220.733728012232	1.8122246800499
24	34626	222.545952692282	0.20571318473858
24	34664	222.751665877021	5.2881247296081
24	35537	228.039790606629	1.736366380609
24	35833	229.776156987238	0.89037256484805
24	35993	230.666529552086	0.56651810619065
24	36047	231.233047658277	0.14435578748677
24	36075	231.377403445764	0.7711589101986
24	36172	232.148562355963	1.1613581055114
24	36337	233.309920461474	0.41517290763806
24	36382	233.725093369112	3.8587749080143
24	36999	237.583868277126	0.48501731725522
24	37079	238.068885594381	2.0975816350447
24	37443	240.166467229426	1.2333321209811
24	37579	241.399799350407	1.9450689312616
24	37869	243.344868281669	1.7837545334246
24	38183	245.128622815094	0.92474056271148
24	38363	246.053363377805	0.65734173890445
24	38526	246.710705116709	1.607263945392
24	38756	248.317969062101	0.46617650174654
24	38833	248.784145563848	1.4147091881407
24	39018	250.198854751989	4.1487862986853
24	39731	254.347641050674	0.040019514874955
24	39737	254.387660565549	0.28424401404152
24	39781	254.671904579591	0.023442162593833
24	39783	254.695346742185	0.53883627326766
24	39848	255.234183015453	2.6126667692375
24	40225	257.84684978469	0.095183037582624
24	40241	257.942032822273	0.018965354411358
24	40245	257.960998176684	0.301439627901
24	40329	258.262437804585	1.5689851925308
24	40586	259.831422997116	0.30779299851768
24	40619	260.139215995634	0.37954596121533
24	40683	260.518761956849	3.8050220379814
24	41271	264.32378399483	2.3850012454905
24	41721	266.70878524032	0.22497486266822
24	41748	266.933760102988	1.629010148057
24	41939	268.562770251045	0.45414349797611
24	42001	269.016913749021	2.5625231541937
24	42385	271.579436903215	1.4916391247187
24	42621	273.071076027934	1.6850318563572
24	42917	274.756107884291	0.16172219826826
24	42939	274.917830082559	0.37688421433784
24	43020	275.294714296897	1.5125375378966
24	43279	276.807251834794	1.1695016278856
24	43481	277.97675346268	0.7406399304006
24	43609	278.717393393081	0.1358840676564
24	43630	278.853277460737	0.18194380669387
24	43641	279.035221267431	1.4773792075242
24	43965	280.512600474955	0.49749715049356
24	44043	281.010097625449	0.68524779171804
24	44183	281.695345417167	0.20708425032232
24	44203	281.902429667489	1.2895874497844
24	44408	283.192017117273	0.25326462217148
24	44444	283.445281739444	0.86350039528516
24	44609	284.308782134729	3.5073362183197
24	45193	287.816118353049	0.9639987344029
24	45314	288.780117087452	0.022089883200136
24	45327	288.802206970652	1.5310954843819
24	45592	290.333302455034	0.7346670150558
24	45764	291.06796947009	0.057519463365696
24	45778	291.125488933456	1.0699167774418
24	45960	292.195405710898	0.48936231999092
24	46032	292.684768030889	1.946945755157
24	46370	294.631713786046	1.6221585710215
24	46592	296.253872357067	0.50749174265349
24	46700	296.76136409972	0.6615304535558
24	46853	297.422894553276	3.2078941238656
24	47435	300.630788677142	0.011079071763467
24	47439	300.641867748905	0.32942060628504
24	47492	300.97128835519	0.66001416475114
24	47586	301.631302519941	1.669403694743
24	47874	303.300706214684	0.18962289904295
24	47897	303.490329113727	0.57338799281005
24	47973	304.063717106537	4.7677442572192
24	48699	308.831461363756	1.0787262407006
24	48880	309.910187604457	1.293825823103
24	49111	311.20401342756	0.4554909917481
24	49193	311.659504419308	1.4212390930873
24	49489	313.080743512395	1.3773879856937
24	49707	314.458131498089	3.6632412009744
24	50307	318.121372699063	0.2665354679025
24	50364	318.387908166965	0.21524959759701
24	50379	318.603157764562	1.4326897741784
24	50648	320.03584753874	1.9052929502416
24	51021	321.941140488982	0.70008762335905
24	51143	322.641228112341	0.99967892331654
24	51296	323.640907035658	0.1436517099835
24	51320	323.784558745641	1.2562885250057
24	51532	325.040847270647	2.373320571098
24	51926	327.414167841745	0.36620863377908
24	51991	327.780376475524	0.7124305782309
24	52129	328.492807053755	3.3157478971422
24	52686	331.808554950897	0.00090222306082665
24	52687	331.809457173958	1.2732047157466
24	52888	333.082661889705	0.040118023567567
24	52894	333.122779913273	0.061931472949913
24	52900	333.184711386223	0.66927000394999
24	53023	333.853981390173	1.486589417964
24	53307	335.340570808137	0.27178677620853
24	53356	335.612357584346	3.7934258613122
24	54041	339.405783445658	1.6602100890288
24	54274	341.065993534687	0.63175168053391
24	54385	341.697745215221	0.36197155631365
24	54444	342.059716771535	0.97418794417099
24	54562	343.033904715706	0.20974448128438
24	54594	343.24364919699	1.5594645591906
24	54825	344.803113756181	0.077723082809
24	54827	344.88083683899	0.8896160953299
24	54969	345.77045293432	0.32228241076551
24	55021	346.092735345086	1.2234940387595
24	55222	347.316229383846	3.409458060408
24	55675	350.725687444254	0.22386105096209
24	55722	350.949548495216	2.5564183181861
24	56155	353.505966813402	0.35053678800919
24	56212	353.856503601411	0.19342304202463
24	56262	354.049926643436	0.77102407563944
24	56407	354.820950719075	0.82252851030624
24	56543	355.643479229381	1.2855917792049
24	56737	356.929071008586	1.7733347708792
24	56909	358.702405779465	0.16995933561021
24	56934	358.872365115075	0.48610203345879
24	57031	359.358467148534	1.124410363339
24	57213	360.482877511873	1.0973677775434
24	57356	361.580245289416	0.61862690288173
24	57435	362.198872192298	0.92426228263046
24	57545	363.123134474928	1.0778993872494
24	57724	364.201033862177	3.8874537730683
24	58400	368.088487635245	2.977356381902
24	58844	371.065844017147	3.3728779077365
24	59352	374.438721924884	0.099630004666494
24	59364	374.53835192955	1.3017368666694
24	59505	375.840088796219	0.91150966237242
24	59615	376.751598458591	2.3197351225496
24	60004	379.071333581141	0.63148868194099
24	60091	379.702822263082	0.010527525332926
24	60097	379.713349788415	2.6363555599883
24	60537	382.349705348403	0.48949562505167
24	60595	382.839200973455	0.10050730321371
24	60629	382.939708276669	0.4051681124685
24	60675	383.344876389137	0.050667824391983
24	60683	383.395544213529	0.39547500514541
24	60742	383.791019218674	0.76468179852956
24	60862	384.555701017204	2.1448087596557
24	61216	386.70050977686	0.11026853266299
24	61238	386.810778309523	2.0728173181838
24	61597	388.883595627707	1.1658847216272
24	61776	390.049480349334	0.12128791935148
24	61798	390.170768268685	0.27137072165627
24	61858	390.442138990341	1.6817965604144
24	62080	392.123935550755	0.62268557893382
24	62199	392.746621129689	0.31556510829077
24	62219	393.06218623798	0.66095247382854
24	62312	393.723138711809	1.0476162640535
24	62490	394.770754975862	0.98372595101264
24	62646	395.754480926875	0.90546094481904
24	62779	396.659941871694	0.61537260438181
24	62865	397.275314476076	1.1814623719697
24	63033	398.456776848046	0.17141433155207
24	63050	398.628191179598	2.7404127243163

