version 2
run Exponential-capacity-14-20210217-10:20:40-2176
attr configname Exponential-capacity
attr datetime 20210217-10:20:40
attr experiment Exponential-capacity
attr inifile aerocom.ini
attr iterationvars "$0=60, $1=2.5"
attr iterationvarsf 60,2.5-
attr measurement "$0=60, $1=2.5"
attr network Aerocom
attr processid 2176
attr repetition 0
attr replication #0
attr resultdir results
attr runnumber 14
attr seedset 0
param **.t 3s
param **.k 60ms
param **.X 0.5s
param **.m 2.5s
param **.tDistribution "\"exponential\""
param **.operationMode 0
param **.s "70 byte"
param **.dimPoolMax 10000
param **.dimPoolMin 8000
param **.nDL 10
param **.nA 1
param **.DLMaxCapacity 0
param **.trasmitting false

vector 0 Aerocom.aircraft[0].dataLink[0] actualCapacity:vector ETV
attr "" ""
attr source computeActualCapacity
vector 1 Aerocom.aircraft[0].dataLink[1] actualCapacity:vector ETV
attr "" ""
attr source computeActualCapacity
vector 2 Aerocom.aircraft[0].dataLink[2] actualCapacity:vector ETV
attr "" ""
attr source computeActualCapacity
vector 3 Aerocom.aircraft[0].dataLink[3] actualCapacity:vector ETV
attr "" ""
attr source computeActualCapacity
vector 4 Aerocom.aircraft[0].dataLink[4] actualCapacity:vector ETV
attr "" ""
attr source computeActualCapacity
vector 5 Aerocom.aircraft[0].dataLink[5] actualCapacity:vector ETV
attr "" ""
attr source computeActualCapacity
vector 6 Aerocom.aircraft[0].dataLink[6] actualCapacity:vector ETV
attr "" ""
attr source computeActualCapacity
vector 7 Aerocom.aircraft[0].dataLink[7] actualCapacity:vector ETV
attr "" ""
attr source computeActualCapacity
vector 8 Aerocom.aircraft[0].dataLink[8] actualCapacity:vector ETV
attr "" ""
attr source computeActualCapacity
vector 9 Aerocom.aircraft[0].dataLink[9] actualCapacity:vector ETV
attr "" ""
attr source computeActualCapacity
vector 10 Aerocom.aircraft[0].packetGenerator arrivalTime:vector ETV
attr "" ""
attr source computeArrivalTime
vector 11 Aerocom.aircraft[0].dataLink[4] tDistribution:vector ETV
attr "" ""
attr source computeTDistribution
vector 12 Aerocom.aircraft[0].dataLink[6] tDistribution:vector ETV
attr "" ""
attr source computeTDistribution
vector 13 Aerocom.aircraft[0].dataLink[1] tDistribution:vector ETV
attr "" ""
attr source computeTDistribution
vector 14 Aerocom.aircraft[0].linkSelector waitingTime:vector ETV
attr "" ""
attr source computeWaitingTime
vector 15 Aerocom.aircraft[0].linkSelector queueLength:vector ETV
attr "" ""
attr source computeQueueLength
vector 16 Aerocom.aircraft[0].linkSelector serviceTime:vector ETV
attr "" ""
attr source computeServiceTime
vector 17 Aerocom.aircraft[0].linkSelector responseTime:vector ETV
attr "" ""
attr source computeResponseTime
vector 18 Aerocom.aircraft[0].dataLink[5] tDistribution:vector ETV
attr "" ""
attr source computeTDistribution
vector 19 Aerocom.aircraft[0].dataLink[8] tDistribution:vector ETV
attr "" ""
attr source computeTDistribution
vector 20 Aerocom.aircraft[0].dataLink[0] tDistribution:vector ETV
attr "" ""
attr source computeTDistribution
vector 21 Aerocom.aircraft[0].dataLink[2] tDistribution:vector ETV
attr "" ""
attr source computeTDistribution
vector 22 Aerocom.aircraft[0].dataLink[7] tDistribution:vector ETV
attr "" ""
attr source computeTDistribution
vector 23 Aerocom.aircraft[0].dataLink[9] tDistribution:vector ETV
attr "" ""
attr source computeTDistribution
vector 24 Aerocom.aircraft[0].dataLink[3] tDistribution:vector ETV
attr "" ""
attr source computeTDistribution
0	858	10	8175
0	1109	12.5	8285
0	1310	15	8730
0	1561	17.5	9092
0	1762	20	9179
0	1976	22.5	9561
0	2187	25	8619
0	2421	27.5	8414
0	2670	30	8687
0	2911	32.5	8912
0	3063	35	9078
0	3252	37.5	8993
0	3533	40	8909
0	3787	42.5	8825
0	4027	45	8891
0	4201	47.5	8372
0	4525	50	8902
0	4740	52.5	9290
0	4897	55	9354
0	5130	57.5	9414
0	5312	60	9639
0	5333	60.5	9671
0	5334	60.507238134629	9671
0	5337	60.514476269258	9671
0	5340	60.521714403887	9671
0	5345	60.528952538516	9672
0	5348	60.536189924786	9672
0	5351	60.543427311056	9672
0	5354	60.550664697326	9672
0	5357	60.557902083596	9672
0	5360	60.565139469866	9673
0	5367	60.598023959947	9674
0	5373	60.620320905237	9675
0	5378	60.639845908267	9675
0	5383	60.667857768881	9676
0	5388	60.803007341085	9681
0	5393	60.847670036769	9682
0	5396	60.854899947944	9682
0	5403	60.932603510372	9685
0	5408	60.991555210935	9687
0	5413	61.015898791567	9688
0	5419	61.039886507916	9688
0	5425	61.194633295763	9694
0	5431	61.399528789909	9700
0	5437	61.518497544725	9704
0	5442	61.529574497099	9705
0	5446	61.536787274018	9705
0	5453	61.671620996999	9709
0	5458	61.68917403307	9710
0	5463	61.713196924958	9711
0	5468	61.748647038182	9712
0	5473	61.880666797409	9716
0	5476	61.88787140836	9717
0	5483	61.930399700118	9718
0	5488	61.956106161845	9719
0	5493	61.998984213088	9720
0	5499	62.079831142509	9723
0	5504	62.109177647146	9724
0	5509	62.177640247201	9726
0	5514	62.222952956267	9728
0	5519	62.281385671756	9730
0	5525	62.455092728777	9735
0	5529	62.5	9737
0	5783	65	9820
0	5801	65.5	9836
0	5802	65.507116714111	9836
0	5805	65.514233428222	9837
0	5808	65.52134941887	9837
0	5811	65.528465409518	9837
0	5814	65.535581400166	9837
0	5817	65.542697390814	9838
0	5822	65.549812658145	9838
0	5825	65.556927925476	9838
0	5833	65.745373748607	9844
0	5839	65.893132404771	9849
0	5842	65.900239725311	9850
0	5849	65.960181454024	9851
0	5855	66.031720400477	9854
0	5860	66.066580919805	9855
0	5865	66.16739786381	9858
0	5871	66.236726347535	9861
0	5876	66.279503736283	9862
0	5881	66.34225325385	9864
0	5887	66.366638025855	9856
0	5890	66.373740298582	9852
0	5897	66.462289327567	9800
0	5902	66.613482649198	9711
0	5905	66.620690969659	9707
0	5912	66.666533821445	9680
0	5917	66.701541431783	9659
0	5922	66.985125143595	9492
0	5927	67.029157341616	9466
0	5932	67.058140523072	9449
0	5937	67.129182187253	9407
0	5942	67.227783381365	9349
0	5945	67.235270813176	9345
0	5952	67.270583592965	9324
0	5957	67.286091147888	9315
0	5962	67.391298034985	9253
0	5967	67.422986674428	9234
0	5972	67.469463498609	9207
0	5976	67.5	9189
0	6159	70	8767
0	6389	72.5	8822
0	6644	75	8289
0	6833	77.5	8436
0	7031	80	8584
0	7284	82.5	8731
0	7495	85	8359
0	7783	87.5	8124
0	8016	90	8088
0	8210	92.5	8813
0	8399	95	8703
0	8628	97.5	8545
0	8915	100	9644
0	8933	100.5	9861
0	8934	100.507098671534	9861
0	8937	100.514197343068	9861
0	8940	100.521296014602	9861
0	8943	100.528394686136	9861
0	8946	100.53549335767	9861
0	8949	100.542592029204	9861
0	8952	100.549690700738	9861
0	8959	100.58025325583	9861
0	8962	100.587351927364	9861
0	8967	100.594450598898	9861
0	8974	100.631978002423	9861
0	8979	100.652772022971	9861
0	8984	100.737187855688	9861
0	8989	100.812514895978	9861
0	8992	100.819613567512	9861
0	8999	100.846971578881	9861
0	9004	100.883575826358	9861
0	9009	100.894969331806	9861
0	9014	100.999478173094	9860
0	9017	101.006577564575	9860
0	9024	101.072549264725	9860
0	9031	101.174556700481	9860
0	9036	101.221925296171	9860
0	9041	101.260374860461	9860
0	9046	101.313697102118	9860
0	9051	101.442065753497	9860
0	9056	101.578145176947	9860
0	9062	101.657440583318	9860
0	9067	101.708791536605	9859
0	9072	101.740421663987	9859
0	9077	101.773293785626	9859
0	9083	101.801351230262	9859
0	9088	101.874182864046	9859
0	9094	101.917678270224	9859
0	9099	101.944194261556	9859
0	9104	102.076120178936	9859
0	9109	102.292639479952	9859
0	9116	102.372839142277	9859
0	9121	102.496324612936	9858
0	9124	102.5	9858
0	9141	103.003425444748	9858
0	9144	103.01052627656	9858
0	9149	103.017627108372	9858
0	9152	103.024727940184	9858
0	9155	103.031828771996	9858
0	9158	103.038929603808	9858
0	9161	103.04603043562	9858
0	9164	103.053131267432	9858
0	9167	103.060232099244	9858
0	9174	103.128074338403	9857
0	9179	103.167717244008	9857
0	9184	103.210533913203	9857
0	9189	103.21960533879	9857
0	9194	103.227801870371	9857
0	9199	103.254484977668	9857
0	9204	103.312773054882	9857
0	9209	103.478761864965	9857
0	9214	103.4951757567	9857
0	9229	103.649251119886	9857
0	9235	103.709047676635	9857
0	9242	103.72899479193	9857
0	9250	103.799995163331	9857
0	9256	103.824892558294	9857
0	9259	103.83199411049	9857
0	9266	103.886642021371	9856
0	9271	103.925526242952	9856
0	9279	104.123657280099	9856
0	9285	104.176511737136	9856
0	9290	104.186107873368	9856
0	9295	104.203659557743	9856
0	9301	104.22147638127	9856
0	9306	104.234940813482	9856
0	9316	104.359018552391	9856
0	9322	104.419961312774	9856
0	9328	104.460585015515	9856
0	9333	104.54639817641	9856
0	9340	104.683933153961	9855
0	9346	104.7106270621	9855
0	9352	104.7229392312	9855
0	9359	104.796984032804	9855
0	9364	104.842627028914	9855
0	9370	104.895740039593	9855
0	9375	104.919435557118	9855
0	9381	105	9855
0	9387	105.053500449137	9855
0	9390	105.060603442541	9855
0	9393	105.067706435945	9855
0	9400	105.091011899922	9855
0	9405	105.186506826707	9855
0	9412	105.220558781737	9855
0	9418	105.239146909811	9855
0	9423	105.265675920127	9855
0	9428	105.286927836972	9854
0	9438	105.434813445157	9854
0	9446	105.664287624543	9854
0	9451	105.74323647845	9854
0	9454	105.750340192678	9854
0	9461	105.824080177221	9854
0	9466	105.836705191415	9854
0	9471	105.857247296187	9854
0	9476	105.901394895808	9854
0	9481	105.953118593446	9854
0	9486	105.981414336673	9854
0	9491	106.072038625794	9853
0	9496	106.088670832105	9853
0	9501	106.183928589359	9853
0	9506	106.253154415161	9853
0	9511	106.278498622125	9853
0	9516	106.344879806023	9853
0	9522	106.433288472622	9853
0	9528	106.632312515285	9853
0	9533	106.712196776312	9853
0	9538	106.838716825225	9852
0	9543	106.847871394113	9852
0	9548	107.205845536098	9852
0	9555	107.3264160531	9852
0	9560	107.353464641738	9852
0	9565	107.388395504926	9852
0	9569	107.395500661239	9852
0	9576	107.431152727842	9852
0	9581	107.45476167166	9852
0	9587	107.490454247014	9851
0	9591	107.5	9851
0	9815	110	9641
0	10022	112.5	8685
0	10210	115	8638
0	10426	117.5	8757
0	10609	120	8713
0	10924	122.5	8519
0	11115	125	8770
0	11382	127.5	9658
0	11409	128	9543
0	11410	128.007335219533	9542
0	11413	128.014671207795	9540
0	11416	128.022008734	9538
0	11419	128.029347798793	9537
0	11422	128.036687633122	9535
0	11425	128.044029007008	9533
0	11428	128.051371921096	9532
0	11433	128.058715605527	9530
0	11440	128.06606083113	9528
0	11445	128.073407598552	9527
0	11448	128.080755137127	9525
0	11451	128.088104218492	9523
0	11454	128.095454843295	9521
0	11457	128.102807012185	9520
0	11460	128.110159953361	9518
0	11463	128.117514439598	9516
0	11471	128.208610718463	9496
0	11476	128.410647417195	9449
0	11481	128.473847554007	9435
0	11486	128.591388401236	9408
0	11491	128.652838887976	9394
0	11497	128.662733293332	9391
0	11502	128.670187238599	9390
0	11505	128.677641977683	9388
0	11513	128.809138756488	9358
0	11519	128.979634813839	9319
0	11522	128.987146349411	9317
0	11529	129.000908518617	9314
0	11534	129.013215537148	9311
0	11539	129.025555684346	9308
0	11544	129.161306332573	9277
0	11550	129.231869916206	9261
0	11555	129.240000385864	9259
0	11558	129.24756059755	9258
0	11565	129.277367245136	9251
0	11570	129.295811734146	9246
0	11575	129.381451016026	9227
0	11580	129.603011439299	9176
0	11585	129.652673548604	9165
0	11590	129.713883152286	9151
0	11596	129.792549480106	9133
0	11601	129.836672414649	9123
0	11606	129.849526869957	9120
0	11611	129.879968629322	9113
0	11616	129.911835680469	9105
0	11620	130	9085
0	11793	132.5	8640
0	11994	135	9329
0	12164	137.5	8790
0	12420	140	9397
0	12616	142.5	9450
0	12800	145	9504
0	13047	147.5	9557
0	13234	150	8751
0	13446	152.5	9154
0	13589	155	8885
0	13842	157.5	8428
0	14006	160	8064
0	14200	162.5	8070
0	14440	165	8076
0	14654	167.5	8081
0	14898	170	8087
0	15075	172.5	9703
0	15095	173	9183
0	15096	173.007622781226	9175
0	15101	173.015252209019	9167
0	15106	173.02288829498	9159
0	15109	173.030531050739	9151
0	15112	173.038180487959	9143
0	15115	173.045836618332	9135
0	15118	173.053499453581	9127
0	15122	173.06116900546	9119
0	15125	173.068845285754	9111
0	15128	173.076528306279	9103
0	15136	173.107746322415	9069
0	15141	173.125780223141	9045
0	15146	173.17086749186	8986
0	15149	173.178657387253	8976
0	15157	173.298394632961	8820
0	15162	173.312527376757	8801
0	15169	173.842373355071	8222
0	15174	173.850888302691	8222
0	15177	173.859402046306	8222
0	15184	173.868793245872	8223
0	15189	173.878057778295	8223
0	15194	173.947457782781	8224
0	15200	174.11944859862	8227
0	15203	174.127957167965	8228
0	15210	174.136736884019	8228
0	15214	174.145244419265	8228
0	15219	174.153751954511	8228
0	15224	174.162259489757	8228
0	15232	174.272706906609	8230
0	15237	174.295542234392	8231
0	15240	174.304046668847	8231
0	15247	174.321420972663	8231
0	15252	174.517380998804	8235
0	15257	174.535048399389	8235
0	15263	174.620745198234	8237
0	15268	174.704051794493	8239
0	15273	174.735145201359	8239
0	15278	175	8244
0	15501	177.5	8292
0	15691	180	8340
0	15912	182.5	8367
0	16112	185	8303
0	16309	187.5	8348
0	16480	190	8393
0	16674	192.5	8438
0	16938	195	9513
0	16958	195.5	9467
0	16959	195.507394105841	9465
0	16962	195.514789774092	9462
0	16965	195.522187787197	9460
0	16968	195.529587364364	9458
0	16971	195.536988506254	9456
0	16974	195.54439121353	9454
0	16977	195.551795486853	9452
0	16984	195.76408546266	9394
0	16989	195.820218579811	9379
0	16994	195.828683091927	9376
0	16999	195.861971575921	9367
0	17004	195.942876171008	9345
0	17009	196.008147468751	9327
0	17014	196.111374732678	9299
0	17019	196.120638075139	9297
0	17024	196.148651817649	9289
0	17029	196.173897551293	9282
0	17034	196.187050531942	9278
0	17039	196.232263894343	9266
0	17042	196.239818394667	9264
0	17049	196.296964405608	9248
0	17054	196.379808438932	9226
0	17059	196.398658272891	9220
0	17064	196.434818669499	9210
0	17069	196.452979924691	9205
0	17074	196.528026551825	9185
0	17077	196.535647673219	9183
0	17084	196.679070884631	9144
0	17089	196.782869161472	9115
0	17094	196.792379632761	9113
0	17097	196.800060967119	9110
0	17104	196.945005457886	9071
0	17109	196.971842220969	9063
0	17114	197.003665816423	9055
0	17119	197.015566022154	9051
0	17125	197.037419683982	9045
0	17130	197.079221008766	9034
0	17135	197.251168821656	8987
0	17140	197.487869284724	8922
0	17144	197.5	8919
0	17375	200	8844
0	17577	202.5	9076
0	17759	205	9172
0	17965	207.5	8796
0	18232	210	9420
0	18249	210.5	9709
0	18250	210.507209805335	9708
0	18253	210.514420353337	9708
0	18258	210.521630901339	9707
0	18261	210.52884219216	9707
0	18264	210.536053482981	9706
0	18267	210.543265516775	9706
0	18275	210.575077717493	9703
0	18278	210.582291981123	9703
0	18285	210.60636383241	9701
0	18291	210.718253700757	9693
0	18296	210.725710479018	9692
0	18301	210.735804288376	9692
0	18306	210.767715139888	9689
0	18311	210.781415381501	9688
0	18317	210.892758077261	9680
0	18322	210.91044164785	9679
0	18327	210.954869668258	9676
0	18333	211.084442191248	9666
0	18338	211.140693303996	9662
0	18343	211.154567734468	9661
0	18348	211.181333151041	9659
0	18353	211.277161885749	9652
0	18358	211.288762629145	9651
0	18363	211.387793644595	9644
0	18369	211.438437295747	9640
0	18374	211.595491952977	9629
0	18379	211.643639920865	9625
0	18384	211.651008045827	9625
0	18389	211.838599036994	9611
0	18394	211.853297773218	9610
0	18397	211.860581852302	9609
0	18404	211.935358942833	9604
0	18409	212.072417030597	9594
0	18414	212.085506447499	9593
0	18420	212.241603991043	9581
0	18425	212.261844029357	9580
0	18430	212.278359511155	9579
0	18435	212.289304198834	9578
0	18438	212.296612613952	9577
0	18443	212.303921792192	9577
0	18452	212.416857260465	9568
0	18457	212.456272350583	9566
0	18462	212.467378150825	9565
0	18465	212.474696498969	9564
0	18471	212.5	9562
0	18759	215	9337
0	19002	217.5	8913
0	19160	220	9049
0	19342	222.5	9333
0	19516	225	9535
0	19533	225.5	9564
0	19534	225.507319113342	9564
0	19537	225.514638226684	9565
0	19540	225.521956574828	9565
0	19543	225.529274922972	9565
0	19546	225.536593271116	9566
0	19549	225.543910854223	9566
0	19552	225.55122843733	9567
0	19559	225.563964756414	9567
0	19564	225.675564618604	9574
0	19569	225.717853352016	9576
0	19574	225.740594295869	9578
0	19579	225.804992931243	9581
0	19584	225.859907610616	9585
0	19587	225.867210688342	9585
0	19594	225.897462044734	9587
0	19599	225.922520861671	9588
0	19604	226.066395797926	9596
0	19609	226.096017173459	9598
0	19614	226.108465264465	9599
0	19619	226.150714478057	9601
0	19626	226.222500236976	9606
0	19633	226.33578921141	9634
0	19638	226.546938066301	9693
0	19644	226.646445159892	9721
0	19649	226.658007515104	9724
0	19652	226.665206198773	9726
0	19657	226.672403402145	9728
0	19664	226.682264811405	9731
0	19670	226.753260798802	9751
0	19675	226.781668829561	9759
0	19680	226.872286187765	9784
0	19685	226.915334723458	9796
0	19690	226.955800026448	9808
0	19696	227.011835113305	9823
0	19704	227.068283409387	9839
0	19709	227.07764039461	9842
0	19714	227.091987808278	9846
0	19719	227.163488894268	9866
0	19725	227.202335082222	9877
0	19732	227.33519811101	9854
0	19737	227.342329980227	9850
0	19742	227.357524327407	9841
0	19747	227.380789671811	9827
0	19752	227.427366466922	9800
0	19757	227.44747634733	9788
0	19761	227.5	9758
0	19775	228	9466
0	19776	228.007394886964	9462
0	19779	228.014792900069	9458
0	19782	228.022194041959	9453
0	19785	228.029599098555	9449
0	19788	228.037007289898	9445
0	19796	228.08626968643	9416
0	19801	228.117058209456	9398
0	19806	228.159599398655	9373
0	19812	228.216963261486	9340
0	19815	228.224457908167	9335
0	19823	228.399839739079	9233
0	19829	228.443275047004	9208
0	19834	228.451848281592	9203
0	19839	228.536296820998	9154
0	19844	228.686268773099	9066
0	19847	228.693989929066	9062
0	19852	228.70171449318	9057
0	19859	228.725243127066	9043
0	19864	228.764564322742	9021
0	19867	228.772323994619	9016
0	19874	228.806096740813	8996
0	19879	228.815953644771	8991
0	19884	228.830066820323	8982
0	19887	228.83786018483	8978
0	19894	228.858915282538	8966
0	19899	228.874297381024	8957
0	19904	228.910623723413	8935
0	19909	228.946957435835	8914
0	19914	229.06720032179	8844
0	19920	229.161246547368	8789
0	19928	229.347397699804	8774
0	19933	229.416956962852	8827
0	19938	229.460860973338	8860
0	19943	229.513997711128	8900
0	19948	229.636457034878	8992
0	19953	229.895179138908	9188
0	19958	229.9513950142	9230
0	19963	229.988778114307	9258
0	19967	230	9267
0	20204	232.5	9619
0	20225	233	9640
0	20226	233.007261410788	9640
0	20229	233.014522821576	9641
0	20232	233.021783479184	9641
0	20235	233.029044136792	9641
0	20240	233.0363047944	9641
0	20243	233.043565452008	9642
0	20246	233.050825356592	9642
0	20249	233.058085261176	9642
0	20256	233.108075460813	9644
0	20261	233.183356722478	9647
0	20267	233.28816875875	9652
0	20273	233.402158243488	9656
0	20278	233.484580791332	9660
0	20283	233.505752448698	9661
0	20288	233.548841784804	9662
0	20294	233.567941434495	9663
0	20299	233.604693111898	9665
0	20302	233.611935739937	9665
0	20309	233.655110009181	9667
0	20314	233.868539058901	9675
0	20319	233.941713430766	9678
0	20324	233.963632401615	9679
0	20329	234.117402647964	9686
0	20334	234.132884133014	9686
0	20339	234.190472867734	9689
0	20342	234.197697555524	9689
0	20349	234.325981205409	9694
0	20354	234.359689756842	9696
0	20360	234.432180021551	9699
0	20365	234.531385958073	9703
0	20368	234.538600221703	9703
0	20375	234.558736776898	9704
0	20380	234.600425072428	9705
0	20385	234.691373730378	9709
0	20390	234.711626952815	9710
0	20395	234.800830563559	9714
0	20400	234.820973608465	9714
0	20405	234.986392735256	9721
0	20409	235	9722
0	20440	235.5	9742
0	20441	235.507185382878	9743
0	20444	235.514370028264	9743
0	20447	235.52155467365	9743
0	20450	235.528739319036	9743
0	20453	235.535923964422	9744
0	20456	235.543107872468	9744
0	20459	235.550291780514	9744
0	20462	235.55747568856	9745
0	20465	235.564658859417	9745
0	20468	235.571842030274	9745
0	20471	235.579025201131	9746
0	20474	235.58620763495	9746
0	20481	235.615008807917	9747
0	20486	235.666455152015	9749
0	20492	235.749521753553	9752
0	20497	235.761879043648	9753
0	20502	235.769056322434	9753
0	20505	235.77623360122	9754
0	20512	235.853766007574	9757
0	20518	236.011425943043	9763
0	20523	236.04749628042	9765
0	20528	236.093716173431	9767
0	20534	236.159570615493	9769
0	20537	236.166736139088	9770
0	20544	236.239763402107	9773
0	20550	236.350823828825	9777
0	20555	236.39913352702	9779
0	20563	236.644325876596	9789
0	20568	236.715903547752	9792
0	20573	236.7516213063	9794
0	20578	236.812144404745	9796
0	20581	236.81929017853	9796
0	20588	236.88336654744	9799
0	20593	236.890869460726	9799
0	20596	236.898013046806	9800
0	20603	236.926294155833	9801
0	20608	237.011283918088	9804
0	20614	237.141326609928	9809
0	20619	237.181839860197	9811
0	20624	237.191452709477	9812
0	20629	237.204005810389	9812
0	20635	237.30823871032	9816
0	20640	237.330637311248	9817
0	20643	237.337767799177	9818
0	20652	237.389682032851	9822
0	20657	237.426363755662	9827
0	20662	237.5	9837
0	20867	240	8499
0	21068	242.5	9474
0	21286	245	8828
0	21601	247.5	8182
0	21831	250	9303
0	22031	252.5	9785
0	22056	253	9746
0	22057	253.007182433819	9745
0	22060	253.014365604676	9745
0	22063	253.021548775533	9744
0	22066	253.028732683579	9744
0	22069	253.035916591625	9743
0	22072	253.043101237011	9743
0	22075	253.050285882397	9742
0	22078	253.057471265275	9741
0	22081	253.064657385797	9741
0	22084	253.071843506319	9740
0	22089	253.079030364635	9740
0	22092	253.086217222951	9739
0	22099	253.118089087266	9737
0	22104	253.20429306279	9730
0	22109	253.269943305497	9725
0	22112	253.277141248942	9724
0	22120	253.285852245784	9724
0	22126	253.392536560394	9715
0	22129	253.399741912942	9715
0	22134	253.40694726549	9714
0	22142	253.428438504279	9712
0	22147	253.437239488208	9712
0	22152	253.491558314006	9707
0	22157	253.50247849674	9707
0	22162	253.542481209441	9703
0	22165	253.549695473071	9703
0	22172	253.613414389546	9698
0	22177	253.659158654148	9694
0	22182	253.761943251007	9686
0	22187	253.789567920086	9684
0	22192	253.829785633513	9681
0	22197	253.839062407024	9680
0	22202	253.847713132303	9680
0	22207	253.969542422454	9670
0	22212	254.083621348298	9661
0	22217	254.125959032976	9658
0	22222	254.177297634127	9654
0	22227	254.203025471977	9652
0	22232	254.283835465183	9645
0	22237	254.329485136873	9642
0	22242	254.402663763983	9636
0	22248	254.502059276335	9628
0	22253	254.708978827454	9612
0	22258	254.720226216726	9611
0	22263	254.741225825581	9610
0	22268	254.861676124693	9600
0	22273	254.934985347182	9595
0	22278	254.987818294631	9590
0	22284	255	9589
0	22519	257.5	9717
0	22770	260	9618
0	22994	262.5	9519
0	23236	265	8930
0	23436	267.5	9272
0	23635	270	8459
0	23836	272.5	8500
0	24024	275	8542
0	24193	277.5	8584
0	24418	280	8983
0	24632	282.5	9890
0	24654	283	9885
0	24655	283.00708143652	9884
0	24658	283.014163589495	9884
0	24661	283.02124574247	9884
0	24664	283.028327895445	9884
0	24667	283.03541004842	9884
0	24670	283.042492201395	9884
0	24673	283.04957435437	9884
0	24676	283.056656507345	9884
0	24679	283.06373866032	9884
0	24686	283.081210658336	9884
0	24691	283.090615704165	9884
0	24696	283.123184867469	9883
0	24701	283.209746238595	9882
0	24707	283.354708423826	9881
0	24713	283.469695765563	9880
0	24719	283.511709434799	9879
0	24724	283.699106275912	9877
0	24729	283.757294342915	9876
0	24735	283.948944381668	9874
0	24740	284.05632592908	9873
0	24745	284.12985218035	9872
0	24750	284.179741190425	9872
0	24755	284.20040433966	9872
0	24758	284.20749510141	9872
0	24763	284.21458586316	9872
0	24771	284.446179833751	9869
0	24776	284.475860281883	9869
0	24781	284.492790065878	9869
0	24786	284.572048920563	9868
0	24791	284.646426022997	9867
0	24798	284.815872698527	9865
0	24804	284.858078301713	9865
0	24809	284.865309482924	9865
0	24814	284.904403619027	9864
0	24819	284.951288489028	9864
0	24824	284.96806662635	9864
0	24828	285	9863
0	24844	285.5	8711
0	24845	285.508035816783	8711
0	24848	285.516071633566	8710
0	24851	285.524108372946	8710
0	24854	285.532145112326	8710
0	24857	285.540181851706	8710
0	24864	285.559346562908	8710
0	24870	285.671351142443	8709
0	24875	285.708528509848	8708
0	24880	285.754408252963	8708
0	24885	285.798856013563	8707
0	24890	285.832012498214	8707
0	24895	285.843758055301	8707
0	24900	285.864009452265	8706
0	24903	285.872049884151	8706
0	24911	285.913535876155	8706
0	24916	285.970627303482	8705
0	24921	286.097552548711	8704
0	24926	286.173166119743	8703
0	24932	286.192461667211	8703
0	24937	286.212800473058	8702
0	24942	286.254453834	8702
0	24947	286.29597676167	8701
0	24952	286.312014236749	8701
0	24957	286.502304276734	8699
0	24963	286.526976590386	8699
0	24966	286.535023492329	8699
0	24971	286.543070394272	8699
0	24978	286.557809235516	8699
0	24983	286.837445117171	8695
0	24986	286.845495720966	8695
0	24993	286.894818158458	8695
0	24998	286.998373909888	8693
0	25003	287.07756277562	8693
0	25008	287.369115872362	8689
0	25011	287.377172035327	8689
0	25018	287.385762793946	8689
0	25023	287.413116298929	8689
0	25028	287.49675192065	8688
0	25029	287.5	8688
0	25273	290	8659
0	25468	292.5	8631
0	25712	295	8698
0	25972	297.5	8778
0	26181	300	8857
0	26405	302.5	8937
0	26648	305	9101
0	26877	307.5	9462
0	27093	310	9181
0	27302	312.5	8165
0	27496	315	8426
0	27705	317.5	8299
0	27952	320	9353
0	28143	322.5	9279
0	28386	325	9204
0	28576	327.5	8118
0	28766	330	8340
0	29009	332.5	8660
0	29239	335	8866
0	29432	337.5	8984
0	29601	340	8469
0	29862	342.5	9163
0	30053	345	9397
0	30246	347.5	9587
0	30262	348	9331
0	30263	348.007501875469	9327
0	30266	348.015006968211	9323
0	30269	348.022515280986	9319
0	30272	348.030026816558	9315
0	30276	348.037541577696	9312
0	30283	348.045058759827	9308
0	30286	348.052579172375	9304
0	30289	348.060102818119	9300
0	30297	348.124612444985	9267
0	30303	348.188904947272	9234
0	30308	348.227310770056	9230
0	30313	348.240540006874	9228
0	30320	348.28975993094	9223
0	30325	348.297558196309	9222
0	30328	348.305148740659	9221
0	30335	348.461490396306	9203
0	30340	348.483787278292	9200
0	30346	349.076766296097	9131
0	30351	349.213842644993	9115
0	30356	349.232716152747	9112
0	30361	349.254871502208	9110
0	30366	349.276423780959	9107
0	30371	349.312683811282	9103
0	30376	349.323502429579	9102
0	30382	349.374095589379	9096
0	30387	349.410810060045	9091
0	30393	349.497818624131	9081
0	30398	349.618343634933	9067
0	30403	349.63545528168	9065
0	30408	349.707995599742	9057
0	30411	349.715724428272	9056
0	30418	349.824900333065	9043
0	30423	349.942755633397	9029
0	30428	349.958319323235	9027
0	30433	350	9023
0	30612	352.5	8730
0	30884	355	8438
0	31083	357.5	8145
0	31295	360	9829
0	31323	360.5	9795
0	31324	360.507146503318	9795
0	31327	360.514293006636	9794
0	31330	360.521440239636	9794
0	31333	360.528587472636	9793
0	31336	360.535735435467	9793
0	31341	360.542883398298	9792
0	31344	360.550032091108	9792
0	31350	360.557180783918	9791
0	31353	360.564330206857	9791
0	31356	360.571479629796	9790
0	31359	360.578629783014	9790
0	31362	360.585779936232	9789
0	31365	360.592930819877	9789
0	31368	360.600081703522	9788
0	31376	360.826056655815	9773
0	31381	360.878372509609	9770
0	31384	360.885537299783	9769
0	31391	360.923018084826	9767
0	31396	360.944517680338	9765
0	31402	360.995348832342	9762
0	31409	361.109938391616	9754
0	31414	361.139100386408	9752
0	31419	361.203775253866	9748
0	31424	361.363593479573	9737
0	31429	361.468751470483	9730
0	31434	361.491059463594	9728
0	31439	361.55583940312	9724
0	31444	361.699079915002	9714
0	31449	361.784591084485	9709
0	31454	361.867076653743	9703
0	31459	361.907822050991	9700
0	31464	361.93520125973	9699
0	31469	361.948956819668	9698
0	31474	361.985772332036	9695
0	31479	362.085417423528	9689
0	31484	362.209135755758	9680
0	31489	362.259470633433	9677
0	31494	362.271412129886	9676
0	31499	362.280426991932	9675
0	31504	362.2904801573	9675
0	31509	362.38853290297	9668
0	31514	362.438806440437	9665
0	31518	362.5	9661
0	31715	365	9493
0	31972	367.5	8877
0	32169	370	8164
0	32431	372.5	9039
0	32665	375	9585
0	32874	377.5	9721
0	33116	380	9854
0	33122	380.082627236309	9807
0	33123	380.089764995053	9799
0	33131	380.163700496642	9718
0	33136	380.174813246954	9706
0	33142	380.194095388128	9684
0	33147	380.203492828734	9674
0	33155	380.296850707958	9571
0	33160	380.336949751986	9527
0	33165	380.407738113068	9449
0	33170	380.442202941781	9411
0	33175	380.472804542969	9377
0	33182	380.533618312958	9310
0	33185	380.54113710995	9302
0	33193	380.748868278039	9110
0	33199	380.763343638586	9108
0	33202	380.77102918975	9106
0	33210	380.861566906063	9092
0	33215	380.902189317954	9085
0	33220	380.919329187105	9082
0	33225	381.02058803918	9066
0	33232	381.38934857247	9005
0	33237	381.415016401806	9001
0	33242	381.486064286795	8989
0	33247	381.517540330782	8984
0	33252	381.556456288772	8978
0	33255	381.564253125484	8977
0	33262	381.614312283361	8968
0	33267	381.659369630123	8961
0	33272	381.716000558677	8952
0	33275	381.723820040357	8950
0	33283	381.927454635316	8917
0	33288	381.949039493718	8914
0	33293	381.959625197182	8912
0	33298	382.025682802023	8901
0	33303	382.044762685628	8898
0	33308	382.127907437292	8884
0	33315	382.202095347077	8872
0	33320	382.220800665554	8869
0	33325	382.237255665279	8866
0	33330	382.283872399016	8859
0	33335	382.406887345069	8839
0	33340	382.4513780306	8831
0	33345	382.476905932974	8827
0	33349	382.5	8823
0	33579	385	8553
0	33823	387.5	8756
0	34100	390	8734
0	34301	392.5	8590
0	34588	395	8446
0	34789	397.5	8437
0	34993	400	8672
1	858	10	9578
1	1109	12.5	9291
1	1310	15	8291
1	1561	17.5	8970
1	1762	20	9105
1	1976	22.5	9202
1	2187	25	9148
1	2421	27.5	9093
1	2670	30	8906
1	2911	32.5	8621
1	3063	35	8336
1	3252	37.5	8115
1	3533	40	9441
1	3787	42.5	9414
1	4027	45	9387
1	4201	47.5	9436
1	4525	50	9512
1	4740	52.5	9431
1	4897	55	8763
1	5130	57.5	8562
1	5312	60	8446
1	5529	62.5	8354
1	5783	65	9119
1	5976	67.5	9165
1	6159	70	8785
1	6389	72.5	8404
1	6644	75	8974
1	6833	77.5	8922
1	7031	80	8677
1	7284	82.5	8297
1	7495	85	8655
1	7783	87.5	9013
1	8016	90	9258
1	8210	92.5	9444
1	8399	95	9365
1	8628	97.5	8664
1	8915	100	9129
1	9124	102.5	8947
1	9381	105	8654
1	9591	107.5	9173
1	9815	110	9709
1	10022	112.5	9713
1	10210	115	9503
1	10426	117.5	9293
1	10609	120	9438
1	10924	122.5	9828
1	10927	122.537154634657	9833
1	10942	122.880644846607	9887
1	10947	122.897402120728	9890
1	10955	122.989382505074	9904
1	10961	123.042679551203	9912
1	10966	123.058469204999	9915
1	10972	123.142429578744	9758
1	10977	123.182843226172	9596
1	10982	123.198981457873	9531
1	10987	123.280759857774	9204
1	10993	123.338893881948	9054
1	10998	123.448776260754	8995
1	11003	123.510012409833	8962
1	11008	123.525605326958	8954
1	11013	123.703622706583	8857
1	11018	123.71225138787	8853
1	11023	123.802630747606	8804
1	11029	123.963116311238	8717
1	11036	124.076285240852	8700
1	11041	124.142943641634	8713
1	11048	124.183393735402	8721
1	11053	124.308780168663	8746
1	11058	124.321079867106	8748
1	11063	124.336947740821	8752
1	11070	124.665526871905	8816
1	11075	124.673792774518	8818
1	11080	124.682104085045	8819
1	11085	124.707981084974	8824
1	11090	124.746238988129	8832
1	11095	124.763716297133	8835
1	11098	124.771639330523	8837
1	11103	124.779560570763	8838
1	11111	124.945264453544	8871
1	11115	125	8882
1	11382	127.5	9373
1	11620	130	9864
1	11634	130.5	9880
1	11635	130.507085020243	9880
1	11638	130.514170040486	9880
1	11641	130.521255060729	9881
1	11644	130.528339363937	9881
1	11651	130.644210959944	9881
1	11656	130.762660961363	9881
1	11661	130.829383894544	9881
1	11667	130.887070120898	9881
1	11673	131.016206052853	9882
1	11676	131.023289639172	9882
1	11683	131.048787590356	9882
1	11689	131.121197331633	9882
1	11695	131.276485351615	9882
1	11700	131.423192602117	9883
1	11705	131.440583808252	9883
1	11711	131.485196837491	9883
1	11716	131.495507078778	9883
1	11721	131.52174531014	9883
1	11726	131.614493682675	9883
1	11731	131.622182597829	9883
1	11737	131.838934670422	9884
1	11742	131.923300281446	9884
1	11745	131.930382434421	9884
1	11752	132.056923684473	9884
1	11755	132.064005837448	9884
1	11760	132.071087990423	9884
1	11767	132.092538462993	9884
1	11772	132.177912118682	9884
1	11777	132.222698787033	9884
1	11780	132.229780940008	9884
1	11788	132.296830015192	9885
1	11793	132.5	9885
1	11811	133	9886
1	11812	133.00708072021	9886
1	11815	133.01416144042	9886
1	11818	133.02124216063	9886
1	11823	133.02832288084	9886
1	11826	133.03540360105	9886
1	11829	133.04248432126	9886
1	11832	133.04956504147	9886
1	11835	133.05664576168	9886
1	11842	133.125297573969	9886
1	11847	133.143844635381	9887
1	11852	133.154560577965	9887
1	11857	133.260227390583	9887
1	11862	133.385883437436	9887
1	11867	133.638302034653	9888
1	11872	133.727458415663	9888
1	11878	133.819239661742	9888
1	11883	133.94839583092	9888
1	11888	133.992307853291	9888
1	11893	134.201059505166	9889
1	11896	134.208138077317	9889
1	11903	134.256281695108	9889
1	11908	134.294648274712	9889
1	11913	134.331443306003	9889
1	11918	134.366045843309	9889
1	11923	134.405864703823	9889
1	11928	134.419463386929	9889
1	11933	134.55498490838	9890
1	11938	134.588040826853	9890
1	11943	134.60208424963	9890
1	11948	134.628651644953	9890
1	11954	134.656885513526	9890
1	11959	134.667610456732	9890
1	11964	134.729098651427	9890
1	11969	134.764035171296	9890
1	11974	134.839568931605	9890
1	11979	134.857862691264	9890
1	11982	134.864940547685	9890
1	11989	134.905640604869	9891
1	11994	135	9891
1	12015	135.5	9892
1	12016	135.507076425394	9892
1	12019	135.514152850788	9892
1	12022	135.521229276182	9892
1	12025	135.528305701576	9892
1	12028	135.53538212697	9892
1	12031	135.542458552364	9892
1	12034	135.549534977758	9892
1	12042	135.740272405927	9892
1	12047	135.854827435324	9893
1	12052	135.921089049708	9893
1	12058	136.117926260454	9893
1	12063	136.134810604516	9893
1	12066	136.141886314614	9893
1	12073	136.155308725584	9893
1	12078	136.215098902011	9894
1	12081	136.222173896957	9894
1	12089	136.592466656932	9894
1	12094	136.619545952067	9894
1	12103	136.884365258318	9895
1	12108	136.988517445168	9895
1	12113	137.043995420354	9895
1	12118	137.063325642363	9895
1	12123	137.071545029856	9895
1	12128	137.099123611539	9896
1	12133	137.151631506673	9896
1	12139	137.237618741588	9896
1	12142	137.244692306665	9896
1	12149	137.309175915345	9896
1	12154	137.322482934305	9896
1	12160	137.354388890212	9896
1	12164	137.5	9896
1	12182	138	9898
1	12183	138.007072135785	9898
1	12186	138.01414427157	9898
1	12189	138.021216407355	9898
1	12192	138.02828854314	9898
1	12195	138.035360678925	9898
1	12200	138.04243281471	9898
1	12203	138.049504950495	9898
1	12208	138.05657708628	9898
1	12211	138.063649222065	9898
1	12218	138.132946310384	9898
1	12225	138.168640680444	9898
1	12230	138.192638102869	9898
1	12235	138.223603186411	9898
1	12240	138.317747437248	9898
1	12243	138.324819573033	9898
1	12248	138.331891708818	9898
1	12255	138.500930342011	9899
1	12260	138.530816648113	9899
1	12265	138.623591518728	9899
1	12270	138.638592975862	9899
1	12275	138.679769005313	9899
1	12281	138.748837871162	9899
1	12286	138.772589796514	9899
1	12290	138.77966121787	9899
1	12297	138.791089912246	9899
1	12302	138.821442768092	9899
1	12307	138.832354916617	9899
1	12312	138.851786619058	9900
1	12317	138.868291557884	9900
1	12322	138.910646408315	9900
1	12327	138.925594742025	9900
1	12332	138.951432272391	9900
1	12337	139.025642808176	9900
1	12342	139.099177188292	9900
1	12347	139.187262283062	9900
1	12350	139.194332990133	9900
1	12357	139.215859860331	9900
1	12362	139.276165033701	9901
1	12367	139.286582946128	9901
1	12372	139.30230936424	9901
1	12378	139.364402730046	9901
1	12384	139.383179361268	9901
1	12389	139.407462073185	9901
1	12394	139.504105076311	9901
1	12400	139.665620214771	9901
1	12406	139.852448464482	9902
1	12411	139.945705961647	9902
1	12416	139.968542086326	9902
1	12420	140	9902
1	12432	140.5	9903
1	12433	140.507068565081	9903
1	12436	140.514137130162	9903
1	12439	140.521205695243	9903
1	12442	140.528274260324	9903
1	12449	140.536144750918	9903
1	12452	140.543213315999	9903
1	12459	140.623304609321	9904
1	12464	140.760384757658	9904
1	12469	140.770559356062	9904
1	12474	140.778156602724	9904
1	12479	140.811464405435	9904
1	12484	140.865783025942	9904
1	12489	140.999714632498	9904
1	12494	141.026008293915	9904
1	12498	141.033076145288	9901
1	12505	141.040146138218	9898
1	12510	141.047218274003	9895
1	12513	141.054292553942	9891
1	12521	141.094498371089	9872
1	12526	141.181601482499	9831
1	12531	141.215913728399	9815
1	12537	141.326776125618	9763
1	12542	141.422950457866	9718
1	12547	141.450030693865	9705
1	12552	141.604223707226	9632
1	12557	141.621226978236	9624
1	12562	141.642554974243	9614
1	12567	141.683379565395	9595
1	12572	141.712880578105	9581
1	12577	141.722793091076	9576
1	12582	141.762756781191	9558
1	12587	141.820330679902	9531
1	12592	141.873556656447	9506
1	12597	141.954267591161	9468
1	12602	142.201831923688	9351
1	12607	142.274868694252	9317
1	12612	142.346575473937	9283
1	12616	142.5	9211
1	12800	145	8321
1	13047	147.5	8611
1	13234	150	8300
1	13446	152.5	8342
1	13589	155	8366
1	13842	157.5	8390
1	14006	160	8560
1	14200	162.5	8783
1	14440	165	9007
1	14654	167.5	9231
1	14671	168	9275
1	14672	168.007547169811	9276
1	14675	168.015093525999	9277
1	14678	168.022639068739	9277
1	14681	168.030184611479	9278
1	14684	168.037729340947	9279
1	14687	168.045273257317	9279
1	14694	168.110117715559	9285
1	14699	168.207352434596	9294
1	14702	168.214884175504	9295
1	14709	168.291240224428	9301
1	14714	168.300808117978	9302
1	14720	168.421533747609	9313
1	14725	168.506239641718	9321
1	14732	168.663681319842	9335
1	14737	168.671179980795	9335
1	14740	168.678678641748	9336
1	14747	168.713311444912	9339
1	14752	168.752595678695	9343
1	14757	168.767492651695	9344
1	14762	168.916937487861	9357
1	14767	168.936174247303	9359
1	14772	168.947349322416	9360
1	14777	169.019956921065	9367
1	14782	169.027429964729	9367
1	14785	169.034903008393	9368
1	14792	169.05793959716	9370
1	14797	169.181904788884	9381
1	14802	169.215763997829	9384
1	14808	169.251034924615	9387
1	14813	169.296489042393	9391
1	14818	169.338365757869	9395
1	14823	169.376531784515	9399
1	14828	169.423129767788	9403
1	14833	169.494968235788	9409
1	14838	169.557198548757	9415
1	14843	169.604028452119	9419
1	14848	169.629402519068	9421
1	14853	169.676300302726	9425
1	14856	169.683727358429	9426
1	14863	169.748711015337	9432
1	14868	169.771707899659	9434
1	14873	169.816045562031	9438
1	14878	169.827091182512	9439
1	14881	169.834507222347	9440
1	14888	169.879673712949	9444
1	14894	169.979716455451	9453
1	14898	170	9454
1	15075	172.5	9634
1	15278	175	9235
1	15298	175.5	9156
1	15301	175.507645259939	9154
1	15304	175.515292190243	9153
1	15307	175.522939956003	9152
1	15310	175.530588557402	9151
1	15313	175.538237994622	9149
1	15316	175.545889104033	9148
1	15319	175.553541049813	9147
1	15322	175.561193832146	9146
1	15327	175.568847451214	9145
1	15334	175.594633285147	9140
1	15339	175.658887453205	9130
1	15344	175.679956958921	9127
1	15352	175.854441071184	9099
1	15358	175.895243908081	9092
1	15363	175.931975021775	9087
1	15369	175.996184152553	9076
1	15374	176.039290621251	9069
1	15379	176.076378593604	9064
1	15384	176.219888701234	9041
1	15390	176.38403913198	9014
1	15395	176.401012930258	9012
1	15400	176.530659742885	8991
1	15405	176.548998003369	8988
1	15410	176.621633199214	8976
1	15415	176.781283821785	8951
1	15420	176.821647437185	8945
1	15425	176.849698933358	8940
1	15430	176.858171134442	8939
1	15435	176.946778983203	8925
1	15440	176.977130628197	8920
1	15446	177.002047287005	8916
1	15451	177.07517248477	8904
1	15456	177.089936340186	8902
1	15461	177.110055098761	8898
1	15466	177.13221632123	8895
1	15469	177.140085910887	8894
1	15476	177.181235009241	8887
1	15481	177.324326827836	8864
1	15486	177.33937167001	8862
1	15491	177.413448067579	8850
1	15497	177.492008623707	8838
1	15501	177.5	8836
1	15691	180	8850
1	15912	182.5	8534
1	16112	185	8783
1	16309	187.5	9089
1	16480	190	9259
1	16674	192.5	9430
1	16938	195	9095
1	17144	197.5	9128
1	17375	200	9224
1	17577	202.5	9047
1	17759	205	8897
1	17965	207.5	8945
1	18232	210	8993
1	18471	212.5	9041
1	18759	215	9010
1	19002	217.5	9198
1	19160	220	9535
1	19177	220.5	9361
1	19178	220.507477833565	9359
1	19181	220.514957265128	9356
1	19187	220.52243909497	9354
1	19190	220.529922524519	9351
1	19193	220.537408354911	9348
1	19196	220.544896587688	9346
1	19199	220.552386422912	9343
1	19206	220.563687778928	9339
1	19211	220.623381330994	9319
1	19216	220.644237177416	9311
1	19221	220.680831655946	9299
1	19226	220.887737282011	9227
1	19231	220.944510049857	9207
1	19236	220.959896273093	9202
1	19241	221.012091995634	9184
1	19244	221.019713946854	9181
1	19251	221.10156155256	9153
1	19256	221.125220141717	9145
1	19261	221.173337427437	9128
1	19266	221.215228144012	9113
1	19271	221.264478424847	9096
1	19275	221.27217411526	9094
1	19283	221.319960876575	9077
1	19288	221.369117292682	9060
1	19293	221.383903050633	9055
1	19298	221.508326258811	9012
1	19304	221.577350179327	8988
1	19309	221.650542529069	8962
1	19316	221.895226320206	8878
1	19321	221.953751883413	8857
1	19326	222.110069212191	8803
1	19331	222.297431017483	8738
1	19336	222.313500951531	8733
1	19342	222.5	8668
1	19516	225	9016
1	19761	227.5	8175
1	19967	230	9032
1	20204	232.5	9445
1	20409	235	9674
1	20662	237.5	8357
1	20867	240	8853
1	21068	242.5	9468
1	21286	245	8422
1	21601	247.5	9312
1	21831	250	9247
1	22031	252.5	9343
1	22284	255	9439
1	22519	257.5	9535
1	22770	260	9166
1	22994	262.5	9106
1	23236	265	9581
1	23436	267.5	8987
1	23635	270	9843
1	23652	270.5	9824
1	23653	270.507125407166	9824
1	23656	270.514250814332	9823
1	23659	270.521376946878	9823
1	23662	270.528503079424	9823
1	23667	270.53562921197	9823
1	23670	270.542755344516	9822
1	23673	270.54988220259	9822
1	23676	270.557009060664	9822
1	23684	270.682020197313	9817
1	23687	270.689150685242	9817
1	23694	270.701137761127	9816
1	23699	270.73391561761	9815
1	23702	270.741047558517	9815
1	23709	270.758783443869	9814
1	23714	270.778429756671	9814
1	23719	270.797064358456	9813
1	23724	270.845341369061	9811
1	23729	270.939397029317	9808
1	23734	270.975538569243	9806
1	23739	271.034207274159	9804
1	23744	271.06903772563	9803
1	23749	271.103799553085	9801
1	23755	271.167512987501	9799
1	23758	271.174656573581	9799
1	23765	271.317115542648	9794
1	23770	271.518136586279	9786
1	23775	271.530474157605	9786
1	23780	271.726721039124	9778
1	23785	271.75243649406	9777
1	23790	271.76715617873	9777
1	23795	271.796340260767	9776
1	23798	271.803500653566	9775
1	23803	271.810661778886	9775
1	23810	271.854190114332	9774
1	23815	271.986902560633	9769
1	23820	272.168363818428	9762
1	23825	272.330051198907	9756
1	23832	272.474792413259	9751
1	23836	272.5	9750
1	23852	273	9731
1	23853	273.007193505292	9731
1	23856	273.014387010584	9730
1	23859	273.021581255188	9730
1	23864	273.028775499792	9730
1	23869	273.035969744396	9730
1	23872	273.043163989	9729
1	23879	273.168965860017	9725
1	23884	273.272143010985	9721
1	23889	273.31275393809	9719
1	23894	273.472034332327	9713
1	23899	273.480467087385	9713
1	23904	273.506860985824	9712
1	23909	273.523996079805	9712
1	23914	273.720994813372	9704
1	23919	273.740438558135	9703
1	23924	273.836097210526	9700
1	23929	273.844009520969	9700
1	23934	273.870179769905	9699
1	23940	273.907490159897	9697
1	23947	274.021699740463	9693
1	23952	274.17035242293	9687
1	23959	274.231819349284	9685
1	23965	274.298118158453	9683
1	23970	274.333605990817	9681
1	23973	274.340836648807	9681
1	23980	274.374200705742	9679
1	23983	274.381432857824	9679
1	23990	274.570930858747	9671
1	23995	274.590329220472	9671
1	24000	274.611134635288	9670
1	24005	274.638164856472	9669
1	24010	274.70462915408	9666
1	24015	274.794596848016	9662
1	24020	274.892439661595	9658
1	24024	275	9653
1	24193	277.5	9550
1	24217	278.004381832761	9529
1	24218	278.011727829193	9528
1	24221	278.019074596615	9528
1	24224	278.026421364037	9528
1	24227	278.033768131459	9527
1	24230	278.041115670034	9527
1	24233	278.048463208609	9527
1	24236	278.055810747184	9526
1	24243	278.083527570859	9525
1	24248	278.178590726815	9521
1	24253	278.198594502573	9521
1	24258	278.274133559031	9517
1	24263	278.292450016351	9517
1	24268	278.304095601676	9516
1	24273	278.328439175202	9515
1	24278	278.479030526739	9509
1	24286	278.529992909259	9507
1	24296	278.581716185776	9505
1	24305	278.716869494351	9499
1	24310	278.74610835745	9498
1	24315	278.757743953994	9497
1	24320	278.773247383306	9497
1	24326	278.792930866425	9496
1	24334	278.884751613291	9492
1	24339	278.937042105102	9490
1	24349	279.148857074242	9481
1	24354	279.185201993501	9480
1	24361	279.265001457154	9476
1	24369	279.300580336945	9475
1	24374	279.357055870788	9472
1	24381	279.460189030728	9468
1	24387	279.640337775186	9461
1	24396	279.794863087389	9454
1	24403	279.8694615915	9451
1	24408	279.908848173192	9449
1	24413	279.945428687953	9448
1	24418	280	9446
1	24632	282.5	9786
1	24828	285	9800
1	25029	287.5	8839
1	25273	290	8220
1	25468	292.5	8369
1	25712	295	8283
1	25972	297.5	8196
1	26181	300	8110
1	26405	302.5	8864
1	26648	305	9693
1	26877	307.5	9638
1	26901	308	9600
1	26902	308.007291666667	9599
1	26905	308.014584092961	9599
1	26908	308.021876519255	9598
1	26911	308.029169705335	9598
1	26914	308.036462891415	9597
1	26917	308.04375683744	9596
1	26920	308.051051543568	9596
1	26923	308.058346249696	9595
1	26926	308.065641716085	9595
1	26929	308.072937182474	9594
1	26936	308.090865743944	9593
1	26941	308.157277982836	9588
1	26946	308.345476419494	9574
1	26951	308.481747636607	9563
1	26956	308.527254340717	9560
1	26959	308.534576516449	9559
1	26966	308.596332894948	9555
1	26972	308.641663897584	9551
1	26977	308.683335837759	9548
1	26985	308.873670936905	9533
1	26990	308.893678391993	9532
1	26995	308.913217445264	9531
1	27000	308.933442189477	9529
1	27005	308.953241494537	9528
1	27010	308.975803491639	9526
1	27015	309.013902120238	9523
1	27020	309.026608378218	9522
1	27026	309.203657686426	9509
1	27032	309.342978216745	9498
1	27037	309.439849372258	9491
1	27042	309.557133528191	9482
1	27047	309.576113701068	9481
1	27052	309.613267297889	9478
1	27057	309.629072845514	9477
1	27062	309.65653377271	9475
1	27067	309.669818731509	9474
1	27073	309.83770873847	9461
1	27078	309.871406985686	9459
1	27083	309.886497520201	9458
1	27088	309.985483645121	9450
1	27093	310	9449
1	27302	312.5	9262
1	27496	315	9074
1	27705	317.5	8807
1	27952	320	9575
1	28143	322.5	9456
1	28386	325	9390
1	28576	327.5	9325
1	28766	330	9302
1	28793	330.5	9309
1	28794	330.507519604684	9309
1	28797	330.515039209368	9309
1	28802	330.522558814052	9309
1	28805	330.530078418736	9309
1	28808	330.53759802342	9309
1	28811	330.545117628104	9309
1	28814	330.552637232788	9309
1	28817	330.560156837472	9310
1	28820	330.567675634464	9310
1	28823	330.575194431456	9310
1	28826	330.582713228448	9310
1	28829	330.59023202544	9310
1	28836	330.664054347292	9311
1	28841	330.701820600703	9311
1	28846	330.72526802646	9312
1	28851	330.809180340963	9313
1	28857	330.878065263689	9314
1	28862	330.885580831651	9314
1	28865	330.893096399613	9314
1	28872	330.914250444111	9314
1	28877	331.081740974514	9317
1	28882	331.106452428544	9317
1	28887	331.12072931422	9317
1	28893	331.177097357855	9318
1	28898	331.186854941292	9318
1	28905	331.27661036544	9319
1	28908	331.284121901012	9319
1	28913	331.291633436584	9319
1	28920	331.353452231133	9320
1	28925	331.36377500361	9320
1	28930	331.388004349371	9321
1	28935	331.45363645482	9322
1	28941	331.498542562255	9322
1	28946	331.57899944129	9323
1	28952	331.822572670612	9327
1	28957	331.87580597921	9327
1	28962	331.883823606642	9327
1	28968	332.127606044572	9331
1	28973	332.178141950913	9331
1	28978	332.219666195121	9332
1	28983	332.240332448687	9332
1	28988	332.249123703928	9332
1	28994	332.298467195528	9333
1	28999	332.368024575277	9334
1	29005	332.490307446059	9336
1	29009	332.5	9336
1	29239	335	9370
1	29432	337.5	9404
1	29436	338	9410
1	29442	338.159648309987	9413
1	29447	338.222729932916	9413
1	29452	338.244923518683	9414
1	29457	338.306308958981	9415
1	29462	338.314303029663	9415
1	29467	338.368991087486	9415
1	29472	338.406157866291	9416
1	29477	338.588483469825	9418
1	29482	338.622669736496	9419
1	29489	338.740103131231	9420
1	29494	338.896978753157	9423
1	29499	338.953586437092	9423
1	29504	338.962232860554	9423
1	29509	338.971047505449	9424
1	29512	338.978475349252	9424
1	29519	339.004385350025	9424
1	29522	339.011813193828	9424
1	29530	339.205751226245	9427
1	29535	339.346535587918	9429
1	29540	339.354310561599	9429
1	29545	339.390112004582	9429
1	29548	339.397535909556	9429
1	29555	339.406171856926	9430
1	29558	339.413594974635	9430
1	29566	339.462117994274	9430
1	29571	339.520566672545	9431
1	29577	339.566849200773	9432
1	29582	339.589566088448	9432
1	29587	339.602835326198	9432
1	29592	339.742648978271	9434
1	29597	339.798083882377	9435
1	29601	340	9438
1	29628	340.5	9444
1	29629	340.507412113511	9444
1	29632	340.514824227022	9445
1	29635	340.522235555767	9445
1	29638	340.529646884512	9445
1	29641	340.537058213257	9445
1	29644	340.544469542002	9445
1	29647	340.551880870747	9445
1	29650	340.559292199492	9445
1	29653	340.566703528237	9445
1	29656	340.574114856982	9445
1	29659	340.581526185727	9445
1	29666	340.642618318497	9446
1	29671	340.652777609784	9446
1	29676	340.66148679359	9447
1	29681	340.681246222633	9447
1	29686	340.698566522832	9447
1	29691	340.727845668341	9447
1	29694	340.735255428053	9448
1	29701	340.749292989902	9448
1	29706	340.770884768979	9448
1	29711	340.78508210582	9448
1	29716	340.859813208079	9449
1	29721	340.948293496423	9450
1	29724	340.95570090383	9451
1	29731	340.978738304722	9451
1	29736	341.000067400811	9451
1	29739	341.007474024449	9451
1	29746	341.055536228682	9452
1	29751	341.102244829936	9453
1	29756	341.196207023658	9454
1	29762	341.204252413432	9454
1	29767	341.475974290166	9458
1	29772	341.502519429067	9458
1	29777	341.535845094853	9458
1	29782	341.663981311777	9460
1	29788	341.708242635562	9461
1	29793	341.735884929695	9461
1	29798	341.859661963296	9463
1	29803	341.919725346694	9464
1	29808	341.957657429302	9464
1	29813	342.001027504849	9465
1	29818	342.015464780217	9465
1	29823	342.024355631515	9465
1	29828	342.156503883586	9467
1	29833	342.21933392538	9468
1	29838	342.297751808038	9469
1	29843	342.414042909945	9470
1	29848	342.442429892487	9471
1	29851	342.449820875488	9471
1	29858	342.48842263635	9471
1	29862	342.5	9471
1	29885	343	9478
1	29886	343.007385524372	9478
1	29889	343.014771048744	9478
1	29892	343.022156573116	9479
1	29895	343.029541318342	9479
1	29898	343.036926063568	9479
1	29901	343.044310808794	9479
1	29904	343.05169555402	9479
1	29907	343.059080299246	9479
1	29910	343.066465044472	9479
1	29913	343.073849789698	9479
1	29920	343.236344670553	9481
1	29923	343.24372785798	9482
1	29929	343.251110266755	9482
1	29936	343.3235626944	9483
1	29941	343.385708785222	9483
1	29946	343.502815429391	9485
1	29951	343.550221215567	9486
1	29956	343.586452965489	9486
1	29959	343.593832261293	9486
1	29966	343.620830011729	9487
1	29972	343.730929324599	9488
1	29978	343.750512117331	9488
1	29983	343.781913190636	9489
1	29986	343.789290153435	9489
1	29994	343.82553878828	9489
1	29999	343.837908859532	9490
1	30004	343.91544835349	9491
1	30009	344.149763469606	9494
1	30014	344.226868718076	9495
1	30019	344.348042282677	9497
1	30024	344.443792513965	9498
1	30029	344.462388554266	9498
1	30032	344.469758526892	9498
1	30039	344.66871100809	9501
1	30044	344.870516453376	9504
1	30049	344.898021129375	9504
1	30053	345	9505
1	30069	345.5	9512
1	30070	345.507359125315	9512
1	30073	345.51471825063	9512
1	30076	345.522077375945	9512
1	30079	345.52943650126	9513
1	30082	345.536794852989	9513
1	30085	345.544153204718	9513
1	30092	345.664846476118	9514
1	30097	345.737901204281	9515
1	30102	345.761698490324	9516
1	30107	345.850730547752	9517
1	30112	345.923658953195	9518
1	30117	345.939282129193	9518
1	30122	345.963787604696	9518
1	30128	346.079769576329	9520
1	30131	346.087122517505	9520
1	30138	346.1268983308	9521
1	30143	346.156821513318	9521
1	30148	346.172723878667	9521
1	30153	346.220844034423	9522
1	30158	346.424463151564	9525
1	30163	346.432339194993	9525
1	30168	346.585859268517	9527
1	30174	346.688174177401	9528
1	30179	346.763814685999	9529
1	30184	346.805087922141	9530
1	30189	346.851733901244	9530
1	30194	346.867758291894	9531
1	30199	346.895204454528	9531
1	30205	346.949105547218	9532
1	30211	347.07746795514	9534
1	30216	347.17204535124	9535
1	30221	347.261140277197	9536
1	30226	347.284956562331	9536
1	30232	347.372420156285	9538
1	30237	347.444954518646	9539
1	30242	347.487369663246	9539
1	30246	347.5	9539
1	30433	350	8240
1	30612	352.5	9858
1	30637	353	9747
1	30640	353.007181696932	9745
1	30643	353.014364867789	9743
1	30648	353.021549513175	9742
1	30651	353.028734896053	9740
1	30654	353.035921754369	9739
1	30657	353.043109350631	9737
1	30660	353.050298423241	9735
1	30663	353.057488972804	9734
1	30666	353.064680261072	9732
1	30669	353.071873027204	9731
1	30672	353.079066532496	9729
1	30675	353.086261516564	9727
1	30678	353.093457980016	9726
1	30685	353.109230068431	9722
1	30690	353.129677315561	9718
1	30695	353.142620775513	9715
1	30698	353.149826128061	9713
1	30705	353.172178061495	9708
1	30710	353.227214290163	9696
1	30715	353.331896294172	9673
1	30720	353.348353981491	9669
1	30725	353.365131878333	9665
1	30730	353.49312715016	9637
1	30735	353.517299451561	9631
1	30740	353.570995769294	9619
1	30745	353.596206157783	9614
1	30750	353.611249087035	9610
1	30755	353.708128788161	9589
1	30760	353.715428819447	9587
1	30765	353.722730373635	9586
1	30771	353.730032689512	9584
1	30774	353.737336529245	9582
1	30779	353.74464189347	9581
1	30786	353.790431427132	9571
1	30791	353.838677767322	9560
1	30796	353.869039196694	9553
1	30801	353.881908701989	9550
1	30807	353.942033562246	9537
1	30812	354.010908590528	9521
1	30817	354.029501083925	9517
1	30820	354.036856342935	9516
1	30827	354.179278327812	9484
1	30832	354.209901057045	9477
1	30837	354.295763973122	9458
1	30842	354.31196140634	9454
1	30845	354.319365679663	9453
1	30852	354.413601214326	9432
1	30857	354.505523577389	9411
1	30862	354.513738287428	9409
1	30867	354.723302271832	9363
1	30872	354.731013230496	9361
1	30878	354.902304310883	9323
1	30883	354.993568138016	9303
1	30884	355	9301
1	31083	357.5	8744
1	31295	360	9098
1	31518	362.5	9448
1	31715	365	8882
1	31972	367.5	8315
1	32169	370	8152
1	32431	372.5	8152
1	32665	375	9388
1	32874	377.5	9516
1	33116	380	9264
1	33349	382.5	9209
1	33579	385	9103
1	33823	387.5	8678
1	34100	390	8253
1	34301	392.5	8530
1	34588	395	8947
1	34789	397.5	8612
1	34993	400	8459
2	858	10	9176
2	1109	12.5	8319
2	1310	15	8544
2	1561	17.5	8722
2	1762	20	8929
2	1976	22.5	8519
2	2187	25	8489
2	2421	27.5	8876
2	2670	30	9370
2	2911	32.5	9462
2	3063	35	9554
2	3252	37.5	9646
2	3533	40	9738
2	3555	40.5	9757
2	3556	40.507174336374	9757
2	3559	40.514348672748	9757
2	3562	40.521523009122	9757
2	3565	40.528697345496	9758
2	3568	40.535870946644	9758
2	3571	40.543044547792	9758
2	3574	40.55021814894	9758
2	3577	40.557391750088	9759
2	3580	40.56456461616	9759
2	3587	40.591827083223	9760
2	3593	40.681971850846	9763
2	3598	40.750593288081	9766
2	3603	40.768612792898	9766
2	3608	40.780400506052	9767
2	3614	40.808486893246	9768
2	3617	40.815653150412	9768
2	3624	40.865977678615	9770
2	3627	40.873142468789	9770
2	3634	40.885676834048	9771
2	3639	41.019241873415	9776
2	3644	41.047045275067	9777
2	3649	41.05564045635	9777
2	3654	41.068808546004	9778
2	3660	41.159436242077	9781
2	3665	41.196391399104	9782
2	3671	41.351938315631	9788
2	3674	41.359089929852	9788
2	3681	41.430030207661	9791
2	3686	41.526535278606	9794
2	3691	41.567032337025	9796
2	3694	41.57417811081	9796
2	3701	41.609872995971	9797
2	3706	41.653765716319	9799
2	3711	41.782351698345	9804
2	3716	41.804338775855	9805
2	3721	41.84455268845	9806
2	3726	41.896252737958	9808
2	3731	41.928376999024	9809
2	3736	42.120665528801	9816
2	3741	42.132143291555	9817
2	3746	42.194377997201	9819
2	3752	42.233072506671	9820
2	3755	42.240200816243	9821
2	3763	42.327083581593	9824
2	3768	42.360853093702	9825
2	3773	42.409626995373	9827
2	3778	42.452430052341	9828
2	3783	42.462881761963	9829
2	3787	42.5	9830
2	3816	43	9849
2	3819	43.00710732054	9849
2	3822	43.01421464108	9849
2	3825	43.02132196162	9849
2	3828	43.02842928216	9850
2	3831	43.035535881145	9850
2	3834	43.04264248013	9850
2	3837	43.049749079115	9850
2	3840	43.0568556781	9851
2	3843	43.063961555676	9851
2	3846	43.071067433252	9851
2	3849	43.078173310828	9851
2	3852	43.085279188404	9852
2	3855	43.092384344717	9852
2	3862	43.146965279255	9854
2	3867	43.198861565821	9856
2	3873	43.245951786996	9858
2	3876	43.253052618808	9858
2	3883	43.288388606034	9859
2	3888	43.433229591864	9865
2	3893	43.561474893289	9869
2	3896	43.568567810505	9869
2	3903	43.60348816554	9871
2	3908	43.700168085487	9874
2	3913	43.777445803992	9877
2	3918	43.903243980403	9882
2	3923	43.933796129615	9883
2	3926	43.940878999189	9883
2	3934	44.080315479421	9888
2	3940	44.11365501421	9848
2	3946	44.183930835907	9749
2	3951	44.222389248623	9694
2	3956	44.294552075653	9592
2	3961	44.346630274574	9518
2	3966	44.370455131575	9485
2	3971	44.446033601812	9378
2	3976	44.530860601584	9258
2	3979	44.538421629884	9247
2	3986	44.593153277396	9170
2	3992	44.672024603281	9058
2	3997	44.688492414601	9035
2	4002	44.775886027296	8911
2	4007	44.786385730189	8896
2	4010	44.794254435225	8885
2	4017	44.882467963741	8760
2	4022	44.904582940118	8729
2	4027	45	8594
2	4201	47.5	8187
2	4525	50	8370
2	4740	52.5	8550
2	4897	55	8730
2	5130	57.5	9468
2	5139	58	9637
2	5140	58.007263671267	9639
2	5143	58.014525835392	9642
2	5150	58.051505900798	9654
2	5155	58.087575179581	9667
2	5160	58.161655972144	9692
2	5163	58.16887842365	9694
2	5170	58.222832459264	9712
2	5175	58.243618458914	9719
2	5180	58.310485952817	9742
2	5185	58.320403533556	9745
2	5190	58.356003367652	9757
2	5195	58.388427529508	9768
2	5200	58.459886416712	9792
2	5205	58.468331126038	9795
2	5210	58.496851506216	9805
2	5215	58.552449822234	9824
2	5218	58.5595752294	9826
2	5225	58.587728102939	9836
2	5232	58.781247067962	9384
2	5237	58.916695675407	8886
2	5240	58.924573235614	8857
2	5248	59.127344587506	8301
2	5251	59.135777306456	8306
2	5258	59.176010490759	8331
2	5263	59.409465096183	8477
2	5268	59.428745514355	8489
2	5273	59.438389316789	8495
2	5278	59.492212497635	8528
2	5283	59.510173677811	8539
2	5288	59.646416284255	8624
2	5293	59.660981010497	8633
2	5298	59.692307688762	8653
2	5303	59.744345209892	8685
2	5308	59.792533416207	8715
2	5312	60	8844
2	5529	62.5	9185
2	5783	65	8271
2	5976	67.5	8445
2	6159	70	8646
2	6389	72.5	8694
2	6644	75	8827
2	6833	77.5	9848
2	6855	78	9472
2	6856	78.007390202703	9460
2	6859	78.01478977987	9447
2	6862	78.022199539582	9435
2	6865	78.029618723472	9422
2	6868	78.037048143977	9410
2	6871	78.04448703877	9397
2	6874	78.05193622468	9385
2	6877	78.059394935389	9372
2	6884	78.1493459825	9221
2	6890	78.262437859352	9031
2	6893	78.270188938967	9018
2	6901	78.43044918895	8748
2	6906	78.484860975388	8657
2	6911	78.730857032948	8243
2	6919	78.864284001893	9796
2	6924	78.894913711655	9775
2	6929	78.986015860559	9714
2	6934	79.014730454823	9694
2	6939	79.028990407089	9685
2	6944	79.03858705989	9678
2	6949	79.125475827327	9619
2	6955	79.194774299341	9573
2	6960	79.207348168485	9564
2	6966	79.271508031987	9521
2	6971	79.408923465181	9428
2	6976	79.527780782948	9347
2	6981	79.535269816863	9342
2	6986	79.542762859038	9337
2	6989	79.550259913766	9332
2	6996	79.581454829789	9311
2	7001	79.639380977771	9272
2	7006	79.691585772393	9236
2	7011	79.720504524967	9217
2	7016	79.737093786013	9206
2	7019	79.744697522706	9201
2	7026	79.754296075457	9194
2	7031	80	9028
2	7284	82.5	8184
2	7495	85	8179
2	7783	87.5	8307
2	8016	90	9522
2	8210	92.5	9211
2	8399	95	9114
2	8628	97.5	8744
2	8915	100	8533
2	9124	102.5	9006
2	9381	105	9635
2	9591	107.5	9343
2	9815	110	8783
2	10022	112.5	8405
2	10210	115	8027
2	10426	117.5	8028
2	10609	120	8041
2	10924	122.5	8055
2	11115	125	8068
2	11382	127.5	8760
2	11620	130	9658
2	11793	132.5	9135
2	11994	135	8405
2	12164	137.5	8295
2	12420	140	9013
2	12616	142.5	9465
2	12800	145	9546
2	12822	145.5	9490
2	12823	145.507376185458	9489
2	12826	145.514753148257	9488
2	12829	145.522130888561	9487
2	12832	145.529509406533	9486
2	12835	145.536888702337	9486
2	12838	145.544267998141	9485
2	12845	145.551648071942	9484
2	12848	145.559028923903	9483
2	12853	145.566410554189	9482
2	12856	145.573792962964	9481
2	12859	145.581176150391	9481
2	12862	145.588559337818	9480
2	12867	145.595943304063	9479
2	12874	145.612552336221	9477
2	12879	145.634688289506	9475
2	12884	145.71929094695	9465
2	12891	145.89032107954	9446
2	12896	145.915518122216	9443
2	12901	146.047015661159	9428
2	12906	146.102543030535	9422
2	12911	146.220643096946	9409
2	12916	146.278918424784	9402
2	12921	146.342424213288	9395
2	12926	146.363705998817	9393
2	12931	146.389028122046	9390
2	12936	146.426100419169	9386
2	12941	146.473857645309	9380
2	12946	146.543130360027	9373
2	12952	146.644447357432	9361
2	12957	146.733590123491	9351
2	12960	146.741075953883	9350
2	12967	146.802333477303	9343
2	12972	146.899223084972	9333
2	12977	146.928463213224	9329
2	12982	146.935966696984	9328
2	12985	146.943470985149	9328
2	12992	147.034617965927	9317
2	12997	147.173380886651	9302
2	13003	147.272260324815	9291
2	13008	147.27979449767	9290
2	13013	147.287329481524	9289
2	13016	147.29486527655	9288
2	13023	147.341644381772	9283
2	13028	147.433391715828	9273
2	13033	147.475275640734	9268
2	13036	147.482828510825	9267
2	13041	147.490382195944	9266
2	13047	147.5	9265
2	13234	150	8442
2	13446	152.5	8346
2	13589	155	8345
2	13842	157.5	9179
2	14006	160	8184
2	14200	162.5	8775
2	14440	165	9139
2	14654	167.5	9006
2	14898	170	9004
2	15075	172.5	8926
2	15278	175	8733
2	15501	177.5	8539
2	15691	180	8346
2	15912	182.5	8961
2	16112	185	9055
2	16309	187.5	9385
2	16480	190	9303
2	16674	192.5	9249
2	16938	195	8883
2	17144	197.5	8985
2	17375	200	9538
2	17577	202.5	8580
2	17759	205	8428
2	17965	207.5	8775
2	18232	210	9210
2	18471	212.5	9393
2	18759	215	9435
2	19002	217.5	9725
2	19160	220	9199
2	19342	222.5	9547
2	19516	225	8932
2	19761	227.5	8898
2	19967	230	8786
2	20204	232.5	8655
2	20409	235	9166
2	20662	237.5	9028
2	20867	240	9233
2	21068	242.5	9438
2	21286	245	9300
2	21601	247.5	8983
2	21831	250	8667
2	22031	252.5	8350
2	22284	255	8354
2	22519	257.5	9759
2	22542	258.006829858516	9680
2	22543	258.014061263475	9679
2	22546	258.021293415557	9678
2	22549	258.028526314916	9677
2	22552	258.035759961707	9675
2	22555	258.042995103826	9674
2	22559	258.05023099384	9673
2	22562	258.057467631905	9672
2	22565	258.064705018175	9671
2	22570	258.071943152804	9670
2	22577	258.174461872261	9654
2	22582	258.183360131695	9652
2	22587	258.199102355137	9650
2	22590	258.206356241147	9649
2	22597	258.227835125265	9645
2	22602	258.30080804072	9634
2	22607	258.374742202228	9622
2	22612	258.437240740348	9613
2	22617	258.467170506795	9608
2	22622	258.494985397129	9604
2	22627	258.502274026867	9603
2	22630	258.5095634156	9601
2	22641	258.535812556994	9597
2	22648	258.555483641922	9594
2	22661	258.698820012841	9572
2	22664	258.70613300908	9571
2	22673	258.73423323833	9566
2	22685	259.005490175456	9524
2	22692	259.029720563248	9520
2	22700	259.101047360568	9509
2	22708	259.374573656701	9466
2	22713	259.408500396711	9461
2	22718	259.470539948505	9451
2	22726	259.621881486857	9428
2	22731	259.649223679779	9423
2	22737	259.69922974929	9393
2	22740	259.706682107429	9388
2	22747	259.780222996623	9333
2	22753	259.873250542201	9263
2	22759	259.915657292079	9232
2	22766	259.989532779498	9177
2	22770	260	9169
2	22994	262.5	8305
2	23236	265	8426
2	23436	267.5	8566
2	23635	270	8805
2	23836	272.5	8982
2	24024	275	9138
2	24193	277.5	9294
2	24418	280	9348
2	24632	282.5	8614
2	24828	285	9172
2	25029	287.5	9783
2	25051	288.004809010889	9761
2	25052	288.011980407262	9761
2	25055	288.019151803635	9761
2	25058	288.026323200008	9761
2	25061	288.033494596381	9760
2	25064	288.040666727529	9760
2	25069	288.047838858677	9760
2	25072	288.055010989825	9759
2	25075	288.062183855897	9759
2	25082	288.142976273477	9756
2	25087	288.252269958625	9751
2	25092	288.288661869297	9749
2	25097	288.453120542467	9742
2	25102	288.476904562746	9741
2	25107	288.486092687725	9741
2	25112	288.495024043564	9741
2	25118	288.513039598808	9740
2	25131	288.571949892995	9737
2	25136	288.605410400444	9736
2	25142	288.673745541929	9733
2	25145	288.680937569053	9733
2	25154	288.83369699408	9726
2	25157	288.840894197452	9726
2	25162	288.848091400824	9725
2	25169	288.861470796518	9725
2	25174	288.941620662462	9721
2	25180	288.980983535373	9720
2	25189	289.02843443081	9718
2	25194	289.045817297808	9717
2	25201	289.082492542379	9715
2	25211	289.208071822668	9688
2	25217	289.291954015557	9633
2	25223	289.315471972151	9618
2	25232	289.371550789733	9581
2	25241	289.526665830752	9479
2	25244	289.534050575978	9475
2	25255	289.75399572736	9330
2	25260	289.786592152399	9309
2	25266	289.822447268271	9285
2	25273	290	9169
2	25468	292.5	8686
2	25712	295	8638
2	25972	297.5	8591
2	26181	300	9285
2	26405	302.5	8797
2	26648	305	8295
2	26877	307.5	8405
2	27093	310	9039
2	27302	312.5	9352
2	27496	315	8465
2	27705	317.5	8968
2	27952	320	8861
2	28143	322.5	9621
2	28386	325	9662
2	28395	325.5	9671
2	28396	325.507238134629	9671
2	28399	325.514476269258	9671
2	28404	325.521714403887	9671
2	28411	325.651128493664	9673
2	28414	325.658365131729	9673
2	28421	325.691586487728	9674
2	28424	325.698822377742	9674
2	28431	325.852356726805	9677
2	28438	326.201839542651	9682
2	28441	326.209069453826	9682
2	28449	326.218608393991	9683
2	28454	326.294868617741	9684
2	28459	326.317355700687	9684
2	28464	326.503900365039	9687
2	28469	326.517923371411	9687
2	28474	326.555967038002	9688
2	28481	326.713917262046	9691
2	28486	326.731487385528	9691
2	28491	326.794822769869	9692
2	28497	326.858070519459	9693
2	28502	326.900188031457	9694
2	28507	326.929061524443	9694
2	28512	326.978000866513	9695
2	28517	327.002799418523	9695
2	28522	327.025751770227	9696
2	28527	327.052284607141	9696
2	28532	327.109426890386	9697
2	28537	327.141254867014	9698
2	28542	327.173897169935	9698
2	28547	327.209865127879	9699
2	28552	327.223195879859	9699
2	28557	327.23413790907	9699
2	28562	327.298270359229	9700
2	28567	327.36594178312	9701
2	28572	327.394030798416	9702
2	28576	327.5	9704
2	28599	328	9712
2	28602	328.007207578254	9712
2	28605	328.014415156508	9712
2	28608	328.021622734762	9712
2	28611	328.028830313016	9712
2	28614	328.03603789127	9712
2	28617	328.043245469524	9713
2	28620	328.050452305723	9713
2	28623	328.057659141922	9713
2	28626	328.064865978121	9713
2	28629	328.07207281432	9713
2	28636	328.203897259978	9715
2	28641	328.245720110731	9716
2	28647	328.340230608405	9717
2	28653	328.519730279622	9579
2	28658	328.624800877958	9499
2	28663	328.650786062884	9479
2	28668	328.835429242244	9338
2	28674	328.914811289131	9277
2	28680	328.944356121413	9254
2	28686	329.108087961696	9129
2	28692	329.160149463275	9089
2	28695	329.167851080615	9083
2	28702	329.23852915977	9029
2	28707	329.294895170814	8986
2	28712	329.362047061364	8935
2	28717	329.411736829075	8897
2	28722	329.595112654996	8756
2	28728	329.635936322933	8725
2	28734	329.656346351435	8709
2	28739	329.699276532667	8676
2	28744	329.719941120724	8661
2	28749	329.750469540756	8637
2	28755	329.900534928292	8522
2	28760	329.909284552492	8516
2	28766	330	8502
2	29009	332.5	8647
2	29239	335	8662
2	29432	337.5	8586
2	29601	340	8509
2	29862	342.5	8433
2	30053	345	8650
2	30246	347.5	8959
2	30433	350	9200
2	30612	352.5	8881
2	30884	355	8763
2	31083	357.5	8739
2	31295	360	9454
2	31518	362.5	8792
2	31715	365	8901
2	31972	367.5	8907
2	32169	370	8623
2	32431	372.5	9728
2	32453	373	9696
2	32458	373.007219471947	9689
2	32461	373.014444159737	9683
2	32464	373.021673324252	9676
2	32467	373.02890771863	9670
2	32470	373.036146601774	9663
2	32473	373.043390728857	9657
2	32478	373.050639356795	9650
2	32481	373.057893242805	9644
2	32484	373.06515164181	9637
2	32489	373.072415313077	9631
2	32492	373.079683509526	9624
2	32495	373.086956992485	9617
2	32498	373.09423576965	9611
2	32505	373.194601342675	9520
2	32510	373.262446993108	9459
2	32515	373.318795349852	9408
2	32521	373.370540975005	9362
2	32526	373.381291775599	9352
2	32531	373.405385387095	9330
2	32536	373.442531078368	9297
2	32542	373.550089066507	9200
2	32545	373.557697762159	9193
2	32552	373.572673766177	9179
2	32558	373.879326950665	8903
2	32563	373.897437676238	8886
2	32566	373.905315236445	8879
2	32573	373.95022388661	8839
2	32578	373.969573650842	8821
2	32583	374.008603703469	8786
2	32588	374.075885789043	8725
2	32593	374.111318263826	8693
2	32598	374.1290526943	8677
2	32603	374.139213622864	8668
2	32608	374.245916492315	8572
2	32613	374.288065473233	8534
2	32618	374.308179798225	8516
2	32623	374.326166609008	8500
2	32628	374.379040862543	8452
2	32633	374.408913440427	8425
2	32639	374.509329932684	8351
2	32644	374.588688657434	8344
2	32650	374.689703335141	8333
2	32656	374.855450068301	8317
2	32661	374.990243371984	8304
2	32665	375	8303
2	32874	377.5	8233
2	33116	380	8045
2	33349	382.5	8198
2	33579	385	8350
2	33823	387.5	8503
2	34100	390	8656
2	34301	392.5	9032
2	34588	395	9431
2	34789	397.5	9039
2	34993	400	8480
3	858	10	8634
3	1109	12.5	8841
3	1310	15	9048
3	1561	17.5	9255
3	1762	20	8633
3	1976	22.5	8901
3	2187	25	9199
3	2421	27.5	8153
3	2670	30	8510
3	2911	32.5	8138
3	3063	35	9406
3	3252	37.5	9817
3	3276	38	9451
3	3277	38.007406623638	9445
3	3280	38.014817952383	9440
3	3283	38.02223320662	9434
3	3286	38.02965317694	9429
3	3289	38.037077081914	9424
3	3292	38.044504925717	9418
3	3295	38.051937501635	9413
3	3298	38.059374025591	9407
3	3301	38.066815292732	9402
3	3304	38.074260517152	9396
3	3309	38.081710495866	9391
3	3316	38.152946396727	9339
3	3321	38.160441845919	9333
3	3324	38.167942113786	9328
3	3331	38.200224208268	9304
3	3336	38.288556457748	9239
3	3341	38.310350990882	9223
3	3346	38.319886981661	9216
3	3351	38.448550109532	9122
3	3354	38.456223865287	9116
3	3361	38.470832608528	9106
3	3364	38.478519847711	9100
3	3371	38.544347807421	9052
3	3376	38.611241052735	9003
3	3381	38.711018999575	8929
3	3386	38.727910440923	8917
3	3391	38.761864113421	8892
3	3396	38.794603576307	8868
3	3401	38.878295721783	8807
3	3406	38.927196821637	8771
3	3411	39.03337401103	8693
3	3416	39.151577464966	8606
3	3422	39.180166179922	8585
3	3427	39.258072918058	8528
3	3430	39.266281173217	8522
3	3437	39.283074564817	8510
3	3442	39.300828677212	8497
3	3447	39.309286750277	8491
3	3452	39.363066502578	8451
3	3455	39.371349546005	8445
3	3462	39.405314976769	8420
3	3467	39.426852655872	8404
3	3472	39.467010828191	8375
3	3477	39.485249121745	8362
3	3482	39.522055467121	8335
3	3487	39.55859933444	8308
3	3492	39.603214325947	8275
3	3498	39.672198809212	8283
3	3503	39.707204235474	8312
3	3508	39.778574010554	8373
3	3514	39.893464546013	8470
3	3519	39.913468746316	8487
3	3524	39.947558975341	8516
3	3529	39.976234054592	8541
3	3533	40	8561
3	3787	42.5	8758
3	4027	45	9441
3	4201	47.5	9456
3	4525	50	8852
3	4740	52.5	8604
3	4897	55	9438
3	5130	57.5	9203
3	5312	60	8968
3	5529	62.5	9114
3	5783	65	9607
3	5976	67.5	9720
3	5991	68	9743
3	5992	68.007184645386	9743
3	5997	68.014369290772	9743
3	6000	68.021553936158	9744
3	6003	68.028737844204	9744
3	6006	68.03592175225	9744
3	6011	68.043105660296	9745
3	6014	68.050288831153	9745
3	6024	68.27499735116	9755
3	6029	68.322198338088	9757
3	6034	68.44544148712	9763
3	6039	68.503764425229	9765
3	6044	68.545680639246	9767
3	6049	68.574300504303	9769
3	6055	68.727631567303	9775
3	6060	68.774501694702	9778
3	6065	68.821273796432	9780
3	6070	68.829006515195	9780
3	6075	68.983082472917	9787
3	6080	69.051579404328	9790
3	6085	69.157860603487	9795
3	6090	69.178167071456	9796
3	6095	69.385227679218	9805
3	6098	69.392366893904	9805
3	6105	69.539244360947	9812
3	6110	69.546648929237	9812
3	6113	69.553783050721	9813
3	6118	69.560916445198	9813
3	6123	69.568049839675	9813
3	6130	69.58995906172	9814
3	6135	69.619531787822	9816
3	6140	69.636516133973	9816
3	6145	69.818888029381	9825
3	6150	69.868527584797	9827
3	6155	69.889930559957	9828
3	6159	70	9833
3	6177	70.5	9848
3	6178	70.507108042242	9848
3	6181	70.514216084484	9849
3	6184	70.521323405024	9849
3	6189	70.528430725564	9849
3	6192	70.535538046104	9849
3	6197	70.542645366644	9849
3	6202	70.549752687184	9849
3	6205	70.556860007724	9849
3	6208	70.563967328264	9849
3	6211	70.571074648804	9849
3	6218	70.611615433951	9850
3	6223	70.636150485706	9850
3	6229	70.670967860985	9851
3	6234	70.72990215205	9851
3	6237	70.737008029626	9851
3	6244	70.761576119753	9852
3	6249	70.833111254278	9853
3	6254	70.978254337928	9855
3	6259	70.99530752254	9855
3	6264	71.121774344044	9857
3	6267	71.12887589624	9857
3	6274	71.158365805535	9857
3	6277	71.165467357731	9857
3	6284	71.205815177737	9858
3	6287	71.212916009549	9858
3	6295	71.248220072743	9858
3	6300	71.391204169134	9860
3	6305	71.403431292067	9860
3	6310	71.484228929379	9861
3	6315	71.518459288664	9862
3	6321	71.655462930729	9863
3	6326	71.667925127902	9864
3	6331	71.734916242315	9865
3	6337	71.810275978241	9866
3	6342	71.855442157363	9866
3	6347	71.899857288848	9867
3	6352	71.921640118112	9867
3	6357	71.944829769035	9867
3	6363	72.316584376158	9872
3	6366	72.323675137908	9872
3	6373	72.343753439644	9872
3	6378	72.398327681936	9873
3	6383	72.436493889198	9874
3	6388	72.499325424527	9875
3	6389	72.5	9875
3	6403	73.006414032122	9881
3	6404	73.01349833533	9881
3	6407	73.020582638538	9881
3	6411	73.027666941746	9881
3	6414	73.034751244954	9882
3	6421	73.04923980087	9882
3	6426	73.073088545665	9882
3	6431	73.093904278654	9882
3	6436	73.162335747152	9883
3	6441	73.175751690652	9883
3	6444	73.182834560226	9883
3	6451	73.335649701112	9885
3	6456	73.391724526093	9886
3	6461	73.413923276878	9886
3	6466	73.452887920486	9887
3	6472	73.483860127782	9887
3	6477	73.503904632766	9888
3	6488	73.564058377266	9888
3	6494	73.580399450847	9889
3	6503	73.713193084739	9890
3	6509	73.756549218991	9891
3	6514	73.790551336582	9891
3	6519	73.818076414741	9892
3	6528	73.976124298498	9894
3	6535	74.012710028869	9894
3	6540	74.066511179064	9895
3	6547	74.091213213736	9895
3	6553	74.125128530615	9896
3	6565	74.336517611089	9899
3	6570	74.390421753075	9899
3	6575	74.399015149364	9899
3	6580	74.425279516731	9900
3	6583	74.432350223802	9900
3	6591	74.495593404628	9901
3	6597	74.520833464972	9901
3	6603	74.584219924623	9902
3	6610	74.637866277911	9903
3	6615	74.741329791039	9904
3	6620	74.805913218604	9905
3	6625	74.836840071604	9905
3	6631	74.867215909629	9906
3	6634	74.874282334018	9906
3	6644	75	9907
3	6655	75.303521344663	9911
3	6666	75.554047960917	9915
3	6671	75.580069929141	9915
3	6676	75.615737890143	9915
3	6682	75.692418017893	9916
3	6688	75.858903295188	9918
3	6695	75.91980083269	9919
3	6700	75.986692843934	9920
3	6705	76.087308927913	9921
3	6710	76.105920695309	9922
3	6715	76.330269603991	9925
3	6721	76.380085242797	9925
3	6727	76.512409291025	9927
3	6733	76.701109144187	9930
3	6739	76.787887598516	9931
3	6744	76.795115094582	9931
3	6749	76.867004177853	9932
3	6754	76.886070338336	9932
3	6759	76.91059339759	9932
3	6762	76.917641323486	9932
3	6769	76.925318632063	9932
3	6775	77.012277944232	9934
3	6780	77.019324451178	9934
3	6783	77.026370958124	9934
3	6790	77.034091136902	9934
3	6795	77.042949049896	9934
3	6800	77.076916822998	9934
3	6806	77.095034123207	9899
3	6811	77.13932232776	9778
3	6817	77.262237317156	9441
3	6823	77.351227721638	9197
3	6828	77.363091627714	9165
3	6833	77.5	9102
3	7031	80	8891
3	7284	82.5	8721
3	7495	85	8599
3	7783	87.5	8894
3	8016	90	9380
3	8210	92.5	9569
3	8399	95	9758
3	8628	97.5	9251
3	8915	100	9171
3	9124	102.5	9084
3	9381	105	9378
3	9591	107.5	9053
3	9815	110	8728
3	10022	112.5	8403
3	10210	115	9131
3	10426	117.5	9213
3	10609	120	8311
3	10924	122.5	9046
3	11115	125	9140
3	11382	127.5	8838
3	11620	130	8739
3	11793	132.5	9661
3	11994	135	9422
3	12164	137.5	9182
3	12420	140	8942
3	12616	142.5	8702
3	12800	145	8492
3	13047	147.5	9206
3	13234	150	9275
3	13446	152.5	8557
3	13589	155	8620
3	13842	157.5	8682
3	14006	160	8745
3	14200	162.5	8807
3	14440	165	8673
3	14654	167.5	8165
3	14898	170	8910
3	15075	172.5	9670
3	15278	175	8436
3	15501	177.5	8651
3	15691	180	8964
3	15912	182.5	9164
3	16112	185	8954
3	16309	187.5	8744
3	16480	190	8534
3	16674	192.5	9390
3	16938	195	9195
3	17144	197.5	8999
3	17375	200	8815
3	17577	202.5	8933
3	17759	205	9444
3	17965	207.5	9942
3	17990	208	9824
3	17991	208.007125407166	9822
3	17994	208.01425226524	9820
3	17997	208.021380574812	9819
3	18002	208.028509610355	9817
3	18007	208.035640098284	9815
3	18010	208.042772039191	9814
3	18013	208.049904706809	9812
3	18016	208.057038828293	9810
3	18019	208.064174404236	9808
3	18022	208.071311435231	9807
3	18027	208.078449193975	9805
3	18030	208.085588408661	9803
3	18033	208.092729079884	9802
3	18036	208.099870479598	9800
3	18043	208.108074468604	9798
3	18048	208.352288058576	9740
3	18053	208.418381285958	9725
3	18058	208.427714484078	9723
3	18061	208.434913908124	9721
3	18068	208.570938904102	9689
3	18073	208.627739224777	9675
3	18078	208.635168568497	9674
3	18083	208.662804942404	9667
3	18088	208.673493841871	9665
3	18093	208.760453093989	9644
3	18098	208.831940027827	9627
3	18103	208.849010461719	9623
3	18106	208.856284700522	9621
3	18113	208.86388227584	9620
3	18118	208.913943509346	9608
3	18121	208.921229104683	9606
3	18128	208.953444287241	9599
3	18134	208.994408150049	9589
3	18140	209.072629985385	9570
3	18146	209.122171115297	9559
3	18151	209.260732737208	9526
3	18156	209.275546900086	9523
3	18161	209.363693948909	9502
3	18166	209.411711076968	9490
3	18172	209.525414354413	9464
3	18177	209.60133390862	9446
3	18180	209.608744452766	9444
3	18187	209.620589093741	9441
3	18192	209.642869917218	9436
3	18195	209.650288314844	9434
3	18202	209.686952919717	9425
3	18207	209.793647958081	9400
3	18212	209.8259144196	9393
3	18217	209.937264722595	9366
3	18222	209.953044476706	9363
3	18227	209.981502587085	9356
3	18232	210	9352
3	18471	212.5	9117
3	18759	215	9062
3	19002	217.5	9007
3	19160	220	8743
3	19342	222.5	9603
3	19353	223	9670
3	19354	223.007238883144	9671
3	19357	223.014477017773	9672
3	19360	223.021714404043	9673
3	19363	223.028951042108	9674
3	19370	223.203029850172	9697
3	19375	223.243168104843	9703
3	19381	223.463792326278	9732
3	19384	223.47098509241	9733
3	19391	223.502208072357	9737
3	19397	223.55813223164	9745
3	19404	223.61725065913	9753
3	19410	223.888324616292	9789
3	19415	223.906903077287	9792
3	19420	224.009161315196	9805
3	19426	224.023201416463	9804
3	19431	224.04818733585	9793
3	19436	224.083884005219	9778
3	19441	224.093779811163	9774
3	19446	224.111090470452	9767
3	19451	224.203055366006	9728
3	19456	224.317935491992	9680
3	19461	224.399675591368	9646
3	19464	224.406932485417	9643
3	19471	224.608050153691	9558
3	19476	224.628528068798	9549
3	19481	224.753218942178	9497
3	19486	224.764954420119	9492
3	19491	224.813624689743	9472
3	19494	224.821014892446	9468
3	19499	224.82840821733	9465
3	19506	224.869035233555	9448
3	19511	224.908676108966	9432
3	19516	225	9397
3	19761	227.5	8525
3	19967	230	9274
3	20204	232.5	9143
3	20409	235	8144
3	20662	237.5	9127
3	20867	240	8886
3	21068	242.5	9003
3	21286	245	9121
3	21601	247.5	9238
3	21831	250	9404
3	22031	252.5	9610
3	22284	255	8155
3	22519	257.5	8821
3	22770	260	9176
3	22994	262.5	9626
3	23012	263.005857688164	9627
3	23013	263.013128904535	9627
3	23016	263.020400120906	9627
3	23019	263.027671337277	9628
3	23022	263.034941798432	9628
3	23025	263.042212259587	9628
3	23030	263.049482720742	9628
3	23038	263.279012622188	9628
3	23043	263.301402610385	9629
3	23048	263.319197706337	9629
3	23053	263.336320913886	9629
3	23058	263.417382083423	9629
3	23064	263.436920520138	9629
3	23069	263.448495923113	9629
3	23074	263.471494919771	9629
3	23079	263.509810555026	9629
3	23091	263.588137163212	9630
3	23096	263.644205147232	9630
3	23101	263.694731266197	9630
3	23106	263.706608218678	9630
3	23113	263.799972276814	9630
3	23121	263.847508453686	9630
3	23129	263.953895285824	9631
3	23137	264.034450608199	9631
3	23144	264.14551628757	9632
3	23151	264.211568374701	9632
3	23157	264.243700493795	9632
3	23162	264.303476805375	9632
3	23168	264.336292311306	9632
3	23173	264.343991791727	9632
3	23180	264.500429169276	9633
3	23187	264.688376625933	9634
3	23194	264.753417238177	9634
3	23199	264.762530625683	9634
3	23202	264.769796558836	9634
[...]
21	16421	189.222331659597	0.87606175606674
21	16487	190.098393415664	4.4068659490538
21	16903	194.505259364718	0.98663025837274
21	16957	195.491889623091	4.4661431570037
21	17373	199.958032780095	2.2217815092785
21	17556	202.179814289373	3.1909639217887
21	17774	205.370778211162	6.9758605017895
21	18450	212.346638712951	0.31098129837197
21	18487	212.657620011323	7.0254177062207
21	19142	219.683037717544	0.30307877653036
21	19159	219.986116494074	0.53086832904459
21	19186	220.516984823119	0.80191826174657
21	19281	221.318903084866	1.0679738269862
21	19340	222.386876911852	4.621707039762
21	19694	227.008583951614	0.056808935722111
21	19702	227.065392887336	0.1093228705379
21	19723	227.174715757874	1.2520511781996
21	19827	228.426766936074	1.838349475002
21	19978	230.265116411076	2.1489325487024
21	20188	232.414048959778	1.9882756571201
21	20358	234.402324616898	0.59816509434225
21	20410	235.00048971124	1.1477304003919
21	20532	236.148220111632	7.2082079621631
21	21137	243.356428073795	9.9266505759847
21	22115	253.28307864978	0.13739984187845
21	22140	253.420478491658	2.3715456631246
21	22376	255.792024154783	1.3785123477652
21	22470	257.170536502548	2.4910810131701
21	22735	259.661617515718	1.2361988432705
21	22856	260.897816358988	1.7080632369898
21	22999	262.605879595978	4.8589041905876
21	23430	267.464783786566	3.1805859436672
21	23682	270.645369730233	9.0658441176437
21	24393	279.711213847877	3.7832006859551
21	24717	283.494414533832	2.688575249453
21	24930	286.182989783285	2.9895682007513
21	25207	289.172557984036	2.1036708038978
21	25358	291.276228787934	0.68400129634766
21	25431	291.960230084282	7.6942945797673
21	26155	299.654524664049	0.65827737038759
21	26197	300.312802034437	0.22522252202023
21	26223	300.538024556457	5.6145069908601
21	26739	306.152531547317	5.0222124473151
21	27183	311.174743994632	1.0294079046215
21	27271	312.204151899253	1.5195563816163
21	27397	313.723708280869	2.4014336588241
21	27598	316.125141939693	0.070138628219987
21	27599	316.195280567913	0.66229776739992
21	27658	316.857578335313	1.8456268677224
21	27851	318.703205203035	2.4469187343929
21	28046	321.150123937428	0.940896399422
21	28121	322.09102033685	6.2484538519318
21	28645	328.339474188782	1.5921570156928
21	28764	329.931631204475	3.6077880801025
21	29111	333.539419284578	10.154275731826
21	29970	343.693695016404	3.291200027072
21	30209	346.984895043476	1.1300566545734
21	30295	348.114951698049	3.0881994350532
21	30512	351.203151133102	1.0771264163634
21	30589	352.280277549465	4.964005833416
21	31061	357.244283382881	2.5935700301847
21	31279	359.837853413066	2.9348273964876
21	31521	362.772680809554	0.45043595099635
21	31574	363.22311676055	0.6628849668934
21	31620	363.886001727443	0.49965452261994
21	31661	364.385656250063	2.899856074574
21	31955	367.285512324637	0.36187572482602
21	31978	367.647388049463	3.7857964792885
21	32349	371.433184528751	1.2623071025507
21	32440	372.695491631302	1.7926049763685
21	32637	374.488096607671	2.6702586017472
21	32833	377.158355209418	2.3991615954015
21	33072	379.557516804819	0.0061931119847609
21	33074	379.563709916804	0.33410179210719
21	33112	379.897811708911	10.339762547261
21	34103	390.237574256172	5.1984441166045
21	34606	395.436018372776	5.8653783732536
22	1096	12.313726549034	3.1862583372779
22	1363	15.499984886312	0.48249557913301
22	1422	15.982480465445	10.018987674326
22	2254	26.001468139771	2.1716798347672
22	2479	28.173147974538	1.6944612178096
22	2659	29.867609192348	10.578273787286
22	3552	40.445882979634	0.90228066555986
22	3669	41.348163645194	5.3516756987192
22	4126	46.699839343913	1.4707337582
22	4279	48.170573102113	1.6079474280271
22	4501	49.77852053014	10.825848372382
22	5368	60.604368902522	4.1442533517777
22	5772	64.7486222543	0.91867287064434
22	5831	65.667295124944	7.3572769111096
22	6410	73.024572036054	1.1628103702879
22	6557	74.187382406342	0.97486119405509
22	6651	75.162243600397	0.35156775325492
22	6664	75.513811353652	0.96086066612019
22	6725	76.474672019772	1.0494057342004
22	6834	77.524077753972	0.72592570725655
22	6888	78.250003461229	0.95994590661269
22	6961	79.209949367842	0.9665632727378
22	7036	80.17651264058	0.47069961539469
22	7091	80.647212255975	0.79235858753533
22	7179	81.43957084351	0.52912139772893
22	7245	81.968692241239	0.52830247781598
22	7283	82.496994719055	5.4331507610799
22	7792	87.930145480135	2.6731995972103
22	8058	90.603345077345	1.6989573923134
22	8203	92.302302469658	2.6541887103624
22	8398	94.95649118002	6.1937141206312
22	9029	101.150205300651	1.2098342015302
22	9114	102.360039502181	6.5101318526832
22	9721	108.870171354864	1.3116681563967
22	9819	110.181839511261	0.67259112459458
22	9879	110.854430635856	2.5338239032597
22	10081	113.388254539116	5.8656955440101
22	10554	119.253950083126	7.8176161522971
22	11339	127.071566235423	3.9355672715841
22	11671	131.007133507007	8.836449034655
22	12404	139.843582541662	1.2450161362636
22	12519	141.088598677926	11.809727581967
22	13463	152.898326259893	1.9487482334808
22	13582	154.847074493374	0.73734609190123
22	13632	155.584420585275	2.8166073127921
22	13912	158.401027898067	15.865257109258
22	15230	174.266285007325	3.9169182748501
22	15553	178.183203282175	3.3087586650785
22	15856	181.491961947253	1.2346078007853
22	15925	182.726569748038	2.2913636997101
22	16113	185.017933447748	2.4416097452652
22	16308	187.459543193013	4.1464891592869
22	16615	191.6060323523	1.2409544370202
22	16696	192.84698678932	1.0331285850609
22	16845	193.880115374381	3.1390155621175
22	17120	197.019130936498	1.1198480092885
22	17193	198.138978945786	3.8392266098838
22	17546	201.97820555567	0.15986738708026
22	17550	202.13807294275	9.256225016453
22	18364	211.394297959203	0.79063712565201
22	18418	212.184935084855	3.6674596460812
22	18840	215.852394730936	0.66193960521858
22	18890	216.514334336155	3.7468263848137
22	19169	220.261160720969	5.9409930474139
22	19624	226.202153768383	0.42076862074789
22	19642	226.622922389131	6.2609716335039
22	20220	232.883894022635	3.7023224311994
22	20560	236.586216453834	2.9341756749721
22	20849	239.520392128806	1.2540401393417
22	20937	240.774432268148	3.3026825819097
22	21199	244.077114850058	2.486392409993
22	21493	246.563507260051	0.76081337169809
22	21579	247.324320631749	8.499947440247
22	22382	255.824268071996	2.2191950981115
22	22558	258.043463170108	0.59422897065781
22	22657	258.637692140766	1.5331996583927
22	22778	260.170891799159	3.2597713842356
22	23062	263.430663183395	0.51088862775603
22	23126	263.941551811151	8.4483585141455
22	23829	272.389910325296	0.50502704516982
22	23841	272.894937370466	2.6424482606555
22	24055	275.537385631122	0.83710577965915
22	24113	276.374491410781	0.61436485784592
22	24160	276.988856268627	12.065298264513
22	25198	289.05415453314	1.8665980004763
22	25347	290.920752533616	3.6876676456264
22	25695	294.608420179242	1.6050012337176
22	25844	296.21342141296	3.3172476771312
22	26142	299.530669090091	1.6917303038527
22	26285	301.222399393944	1.6531149545935
22	26423	302.875514348538	3.7070296323719
22	26798	306.58254398091	0.82553864917414
22	26865	307.408082630084	0.042004159567686
22	26871	307.450086789652	5.2598812079225
22	27314	312.709967997574	2.051148364348
22	27455	314.761116361922	3.6336194384459
22	27822	318.394735800368	4.6894102054842
22	28204	323.084146005852	0.48800823692163
22	28235	323.572154242774	0.5189371974841
22	28293	324.091091440258	0.78984548546715
22	28370	324.880936925725	1.3335297940629
22	28444	326.214466719788	6.1599541647163
22	29000	332.374420884504	0.8340631380041
22	29068	333.208484022508	6.230504218393
22	29564	339.438988240901	14.457035886657
22	30805	353.896024127558	2.923300004334
22	31017	356.819324131892	0.38895453056547
22	31055	357.208278662457	0.39939487707682
22	31091	357.607673539534	0.73313791883415
22	31191	358.340811458368	2.2638161471731
22	31371	360.604627605541	0.35990456876535
22	31400	360.964532174306	5.2479190285141
22	31849	366.21245120282	0.1621953014486
22	31860	366.374646504269	0.34937291361277
22	31884	366.724019417882	0.69283328497174
22	31966	367.416852702854	0.65577660925064
22	32026	368.072629312105	2.2920911801722
22	32206	370.364720492277	8.1085284854786
22	32932	378.473248977756	0.65017729126694
22	33026	379.123426269023	0.34829611986583
22	33064	379.471722388889	0.029300814333314
22	33069	379.501023203222	1.0321906486021
22	33180	380.533213851824	1.6222694190236
22	33312	382.155483270848	1.9598394818668
22	33507	384.115322752715	1.3537041572767
22	33601	385.469026909992	7.098919842925
22	34307	392.567946752917	0.37991568916569
22	34326	392.947862442083	1.5636143231781
22	34538	394.511476765261	2.9909686982136
22	34790	397.502445463475	1.4692925182006
22	34901	398.971737981676	2.2804519049435
23	1143	13.034736668212	4.7264103624311
23	1574	17.761147030643	6.6087639146457
23	2140	24.369910945289	0.25698387981324
23	2158	24.626894825102	8.8747559547331
23	2965	33.501650779835	1.9676799423511
23	3074	35.469330722186	2.2274338054403
23	3265	37.696764527626	2.1035407124729
23	3512	39.800305240099	2.4198470712186
23	3750	42.220152311318	7.8333183271819
23	4529	50.0534706385	1.2552480548093
23	4623	51.308718693309	9.8470108292533
23	5423	61.155729522562	4.807173226955
23	5850	65.962902749517	1.6328135283263
23	5979	67.595716277843	7.4928350381844
23	6648	75.088551316027	1.8694230725
23	6773	76.957974388527	2.1699481596215
23	6950	79.127922548148	5.5951807101777
23	7473	84.723103258326	1.0117484730514
23	7613	85.734851731377	0.78243511988207
23	7680	86.517286851259	3.6585540234924
23	8022	90.175840874751	0.66204143956655
23	8074	90.837882314318	0.0077577452830852
23	8075	90.845640059601	2.8999228454794
23	8291	93.74556290508	1.3502612947895
23	8403	95.095824199869	1.9910783529716
23	8595	97.086902552841	3.9880570459315
23	9025	101.074959598772	0.83583713604125
23	9092	101.910796734813	3.3916070707124
23	9432	105.302403805525	1.0433313731097
23	9517	106.345735178635	3.7736726930053
23	9818	110.11940787164	0.09696491704777
23	9822	110.216372788688	0.21041527946957
23	9833	110.426788068158	1.4747075637769
23	9960	111.901495631935	4.4055990210837
23	10338	116.307094653019	1.2743940420286
23	10429	117.581488695048	6.2760456231261
23	11027	123.857534318174	0.30791956203762
23	11046	124.165453880212	5.9204414490618
23	11630	130.085895329274	0.74877529783293
23	11662	130.834670627107	6.3763825927021
23	12137	137.211053219809	0.12643459812152
23	12158	137.337487817931	1.4379449256192
23	12287	138.77543274355	0.60519700537918
23	12382	139.380629748929	4.099925358454
23	12690	143.480555107383	4.6854281023522
23	13087	148.165983209735	0.24766164116079
23	13101	148.413644850896	1.684192355915
23	13239	150.097837206811	0.32190323115279
23	13263	150.419740437964	0.57929492353295
23	13354	150.999035361497	1.2297433444377
23	13435	152.228778705935	0.41380568446897
23	13455	152.642584390404	3.1744871308823
23	13663	155.817071521286	0.31833458409627
23	13689	156.135406105382	5.3731040486679
23	14132	161.50851015405	6.244783128557
23	14664	167.753293282607	0.80908334030217
23	14729	168.562376622909	3.8951614315318
23	15074	172.457538054441	3.4128834920311
23	15356	175.870421546472	0.090702695307817
23	15367	175.96112424178	1.0174956655909
23	15441	176.978619907371	10.244045539457
23	16284	187.222665446828	0.8800007974928
23	16352	188.102666244321	2.1203502308745
23	16499	190.223016475196	4.7647216285009
23	16932	194.987738103697	3.5063177475746
23	17219	198.494055851272	1.4651173942576
23	17374	199.95917324553	1.150489956651
23	17464	201.109663202181	7.9688117187596
23	18141	209.078474920941	1.0974267698376
23	18237	210.175901690779	0.095407149334544
23	18239	210.271308840114	8.6944337525099
23	19096	218.965742592624	0.74649923933879
23	19148	219.712241831963	1.8468383355019
23	19302	221.559080167465	0.93029798846885
23	19341	222.489378155934	1.0726479175845
23	19398	223.562026073518	4.3817709920057
23	19768	227.943797065524	2.940881227557
23	20053	230.884678293081	5.0220186382318
23	20516	235.906696931313	1.5434690573537
23	20661	237.450165988667	0.67559839915206
23	20701	238.125764387819	9.5472025767415
23	21630	247.672966964561	0.68651255572848
23	21690	248.359479520289	0.53893243789133
23	21737	248.89841195818	0.53530907118271
23	21784	249.433721029363	12.89104317806
23	22991	262.324764207423	0.1904147668719
23	22998	262.515178974295	2.9488033209119
23	23273	265.463982295207	8.4601758597095
23	23944	273.924158154916	2.2278402025234
23	24107	276.151998357439	1.4278871512703
23	24199	277.579885508709	0.072708087690866
23	24206	277.6525935964	19.513402438353
23	25949	297.165996034753	4.3017237421261
23	26306	301.467719776879	3.8014209672883
23	26659	305.269140744167	0.98271039958125
23	26746	306.251851143748	0.45311123977492
23	26804	306.704962383523	1.1700598858348
23	26894	307.875022269358	2.117207271648
23	27089	309.992229541006	0.32525983383521
23	27110	310.317489374841	1.1111220201725
23	27200	311.428611395014	1.1105716854345
23	27307	312.539183080449	1.9557037114527
23	27444	314.494886791902	2.3257940164798
23	27651	316.820680808382	1.2928351641891
23	27778	318.113515972571	1.6725855930733
23	27936	319.786101565644	2.9417870336787
23	28155	322.727888599323	0.081947667614225
23	28160	322.809836266937	0.9757492220558
23	28267	323.785585488993	5.9909525187844
23	28753	329.776538007777	1.8618330577714
23	28950	331.638371065548	1.7194044024024
23	29098	333.35777546795	0.70698901227447
23	29141	334.064764480224	7.6272798665052
23	29786	341.692044346729	8.270103597299
23	30429	349.962147944028	1.1343987175462
23	30511	351.096546661574	1.1748339385351
23	30588	352.271380600109	6.8689864144534
23	31242	359.140367014562	6.5587768336816
23	31788	365.699143848244	0.84779475157283
23	31877	366.546938599817	1.8862767116866
23	32056	368.433215311504	0.56608662390043
23	32092	368.999301935404	1.0487609279302
23	32181	370.048062863334	9.1509283866574
23	33035	379.198991249991	0.14734917338462
23	33042	379.346340423376	1.9086831573429
23	33230	381.255023580719	0.94253897186399
23	33313	382.197562552583	3.4010931269022
23	33632	385.598655679485	13.764848575909
23	34950	399.363504255394	2.2968674919385
24	1623	18.527692622347	1.136312442241
24	1725	19.664005064588	4.9691999851495
24	2162	24.633205049738	1.368739580575
24	2255	26.001944630313	1.5640173326607
24	2433	27.565961962974	0.082737600254544
24	2441	27.648699563229	4.1187299545198
24	2855	31.767429517749	2.7625316337105
24	3031	34.52996115146	0.5561904462513
24	3068	35.086151597711	1.0402724223642
24	3156	36.126424020075	1.3230792072979
24	3241	37.449503227373	2.185892604752
24	3496	39.635395832125	1.1726517232226
24	3612	40.808047555348	1.4676321738589
24	3761	42.275679729207	4.0039198901016
24	4114	46.279599619309	3.2559217815913
24	4482	49.5355214009	2.9895969590251
24	4743	52.525118359925	0.72482296041573
24	4803	53.249941320341	0.78170289814831
24	4835	54.031644218489	6.3409074038718
24	5330	60.372551622361	1.640075420557
24	5497	62.012627042918	0.7486085676486
24	5538	62.761235610567	7.5199347381347
24	6170	70.281170348702	6.8008974670721
24	6801	77.082067815774	0.30041601859835
24	6832	77.382483834372	4.6084497551525
24	7246	81.990933589524	0.74265444667327
24	7295	82.733588036197	4.061540111629
24	7721	86.795128147826	1.325461285887
24	7811	88.120589433713	7.2457673522617
24	8414	95.366356785975	2.1254981710325
24	8627	97.491854957008	0.61587309071447
24	8672	98.107728047722	3.6927082923893
24	9081	101.800436340111	1.9702036678518
24	9248	103.770640007963	0.50016799301304
24	9311	104.270808000976	8.795126105117
24	10065	113.065934106093	3.6346466942043
24	10370	116.700580800297	2.3242603046111
24	10532	119.024841104908	5.5418110307764
24	11068	124.566652135684	0.98909763641697
24	11158	125.555749772101	0.23148820329919
24	11186	125.7872379754	1.1828913083509
24	11333	126.970129283751	4.2441387864774
24	11693	131.214268070228	0.60739445388582
24	11735	131.821662524114	13.09960706888
24	12789	144.921269592994	3.8798340161506
24	13113	148.801103609145	3.08008989844
24	13413	151.881193507585	0.1866080830828
24	13434	152.067801590668	12.248143436004
24	14376	164.315945026672	0.056110250993108
24	14387	164.372055277665	0.22901846975062
24	14399	164.601073747416	2.9295932399941
24	14655	167.53066698741	5.2270311308637
24	15086	172.757698118274	0.30235737852638
24	15121	173.0600554968	1.9267514638326
24	15277	174.986806960633	0.40457432938258
24	15288	175.391381290016	0.86818227511691
24	15388	176.259563565133	5.6999689120054
24	15882	181.959532477138	9.6346577706683
24	16614	191.594190247806	0.69238437905666
24	16662	192.286574626863	7.616598849035
24	17367	199.903173475898	2.043111736338
24	17542	201.946285212236	0.0056532962066554
24	17543	201.951938508443	5.5188740086072
24	17964	207.47081251705	3.3683102349399
24	18315	210.83912275199	8.1574770427615
24	19097	218.996599794752	0.25627948262597
24	19119	219.252879277378	2.0168205130649
24	19274	221.269699790443	0.45164377882488
24	19313	221.721343569268	2.2954959569992
24	19424	224.016839526267	0.9254649761773
24	19515	224.942304502444	3.3053458574979
24	19821	228.247650359942	2.3260738149217
24	20026	230.573724174864	0.69656594612208
24	20087	231.270290120986	2.2832561322795
24	20289	233.553546253265	1.4577644804479
24	20411	235.011310733713	0.27848251767652
24	20423	235.28979325139	0.95403532855715
24	20545	236.243828579947	0.20836712329088
24	20559	236.452195703238	1.4680301882665
24	20676	237.920225891505	11.760705543552
24	21810	249.680931435057	2.4423447763296
24	21987	252.123276211387	2.8740211849861
24	22282	254.997297396373	4.0919656807329
24	22698	259.089263077106	1.3126989046598
24	22788	260.401961981766	0.39045562263864
24	22846	260.792417604405	1.399332737069
24	22975	262.191750341474	3.5939657937966
24	23296	265.785716135271	1.8089193890224
24	23441	267.594635524293	3.5186560109185
24	23753	271.113291535211	1.3389846896797
24	23830	272.452276224891	0.11337912623309
24	23838	272.565655351124	3.1152101174667
24	24064	275.680865468591	8.1605239234703
24	24733	283.841389392061	5.3093335860346
24	25206	289.150722978096	0.15722010785414
24	25221	289.30794308595	4.8999416861423
24	25666	294.207884772092	4.6225584725876
24	26087	298.83044324468	0.93498117546078
24	26158	299.765424420141	2.335906697984
24	26368	302.101331118125	9.6351430133372
24	27228	311.736474131462	0.13254819418527
24	27250	311.869022325647	0.21996142587365
24	27257	312.088983751521	7.1557920936216
24	27899	319.244775845143	1.9209151899983
24	28049	321.165691035141	1.0972475027147
24	28127	322.262938537856	3.933950673347
24	28436	326.196889211203	2.9415884448522
24	28690	329.138477656055	0.81650474046415
24	28765	329.954982396519	0.44716585837115
24	28790	330.40214825489	1.0864035934234
24	28939	331.488551848313	4.1059911861323
24	29282	335.594543034445	1.8276979847793
24	29423	337.422241019224	1.2453608616508
24	29487	338.667601880875	5.0781251304372
24	29976	343.745727011312	1.4517194100089
24	30062	345.197446421321	2.6324939762444
24	30255	347.829940397565	0.43489293370715
24	30317	348.264833331272	1.2200409555645
24	30391	349.484874286836	1.4368487052697
24	30505	350.921722992106	5.6781351432112
24	30998	356.599858135317	0.34827997058374
24	31026	356.948138105901	4.0980197480612
24	31406	361.046157853962	1.7534223799808
24	31522	362.799580233943	2.0866864734204
24	31709	364.886266707363	1.5555579092047
24	31876	366.441824616568	1.1764403713086
24	31977	367.618264987877	3.0747807320248
24	32281	370.693045719902	1.0766508149597
24	32362	371.769696534862	3.7101989580674
24	32676	375.479895492929	0.050122703236757
24	32692	375.530018196166	0.77612876190453
24	32747	376.306146958071	1.7502714170063
24	32911	378.056418375077	0.77213211135867
24	32972	378.828550486436	2.9182526578219
24	33281	381.746803144258	3.9558401374603
24	33654	385.702643281718	4.6291849933707
24	34106	390.331828275089	0.18522421603475
24	34125	390.517052491124	1.986050967834
24	34304	392.503103458958	1.6561412703911
24	34507	394.159244729349	0.77745542384972
24	34580	394.936700153199	3.661067350749
24	34876	398.597767503948	3.240049630835

