version 2
run Exponential-capacity-42-20210216-13:46:24-14672
attr configname Exponential-capacity
attr datetime 20210216-13:46:24
attr experiment Exponential-capacity
attr inifile aerocom.ini
attr iterationvars "$0=2, $1=50, $2=4, $3=0.5"
attr iterationvarsf 2,50,4,0.5-
attr measurement "$0=2, $1=50, $2=4, $3=0.5"
attr network Aerocom
attr processid 14672
attr repetition 0
attr replication #0
attr resultdir results
attr runnumber 42
attr seedset 0
param **.t 2s
param **.k 50ms
param **.X 4s
param **.m 0.5s
param **.tDistribution "\"exponential\""
param **.operationMode 0
param **.s "70 byte"
param **.dimPoolMax 10000
param **.dimPoolMin 8000
param **.nDL 10
param **.nA 1
param **.DLMaxCapacity 0
param **.trasmitting false

vector 0 Aerocom.aircraft[0].dataLink[0] actualCapacity:vector ETV
attr "" ""
attr source computeActualCapacity
vector 1 Aerocom.aircraft[0].dataLink[1] actualCapacity:vector ETV
attr "" ""
attr source computeActualCapacity
vector 2 Aerocom.aircraft[0].dataLink[2] actualCapacity:vector ETV
attr "" ""
attr source computeActualCapacity
vector 3 Aerocom.aircraft[0].dataLink[3] actualCapacity:vector ETV
attr "" ""
attr source computeActualCapacity
vector 4 Aerocom.aircraft[0].dataLink[4] actualCapacity:vector ETV
attr "" ""
attr source computeActualCapacity
vector 5 Aerocom.aircraft[0].dataLink[5] actualCapacity:vector ETV
attr "" ""
attr source computeActualCapacity
vector 6 Aerocom.aircraft[0].dataLink[6] actualCapacity:vector ETV
attr "" ""
attr source computeActualCapacity
vector 7 Aerocom.aircraft[0].dataLink[7] actualCapacity:vector ETV
attr "" ""
attr source computeActualCapacity
vector 8 Aerocom.aircraft[0].dataLink[8] actualCapacity:vector ETV
attr "" ""
attr source computeActualCapacity
vector 9 Aerocom.aircraft[0].dataLink[9] actualCapacity:vector ETV
attr "" ""
attr source computeActualCapacity
vector 10 Aerocom.aircraft[0].packetGenerator arrivalTime:vector ETV
attr "" ""
attr source computeArrivalTime
vector 11 Aerocom.aircraft[0].linkSelector waitingTime:vector ETV
attr "" ""
attr source computeWaitingTime
vector 12 Aerocom.aircraft[0].linkSelector queueLength:vector ETV
attr "" ""
attr source computeQueueLength
vector 13 Aerocom.aircraft[0].linkSelector serviceTime:vector ETV
attr "" ""
attr source computeServiceTime
vector 14 Aerocom.aircraft[0].linkSelector responseTime:vector ETV
attr "" ""
attr source computeResponseTime
vector 15 Aerocom.aircraft[0].dataLink[1] tDistribution:vector ETV
attr "" ""
attr source computeTDistribution
vector 16 Aerocom.aircraft[0].dataLink[2] tDistribution:vector ETV
attr "" ""
attr source computeTDistribution
vector 17 Aerocom.aircraft[0].dataLink[7] tDistribution:vector ETV
attr "" ""
attr source computeTDistribution
vector 18 Aerocom.aircraft[0].dataLink[5] tDistribution:vector ETV
attr "" ""
attr source computeTDistribution
vector 19 Aerocom.aircraft[0].dataLink[0] tDistribution:vector ETV
attr "" ""
attr source computeTDistribution
vector 20 Aerocom.aircraft[0].dataLink[8] tDistribution:vector ETV
attr "" ""
attr source computeTDistribution
vector 21 Aerocom.aircraft[0].dataLink[9] tDistribution:vector ETV
attr "" ""
attr source computeTDistribution
vector 22 Aerocom.aircraft[0].dataLink[3] tDistribution:vector ETV
attr "" ""
attr source computeTDistribution
vector 23 Aerocom.aircraft[0].dataLink[4] tDistribution:vector ETV
attr "" ""
attr source computeTDistribution
vector 24 Aerocom.aircraft[0].dataLink[6] tDistribution:vector ETV
attr "" ""
attr source computeTDistribution
0	1099	10	8730
0	1156	10.5	8820
0	1200	11	8910
0	1233	11.5	9042
0	1289	12	9193
0	1328	12.5	9344
0	1357	13	9254
0	1395	13.5	9142
0	1421	14	9031
0	1446	14.5	9192
0	1474	15	9561
0	1488	15.5	9888
0	1513	16	9344
0	1764	16.5	8800
0	1787	17	8256
0	1869	17.5	8278
0	1941	18	8360
0	2001	18.5	8441
0	2032	19	8523
0	2071	19.5	8605
0	2140	20	8687
0	2167	20.5	8769
0	2254	21	8843
0	2276	21.5	8895
0	2302	22	8947
0	2327	22.5	8999
0	2351	23	9052
0	2500	23.5	9069
0	2527	24	9044
0	2561	24.5	9019
0	2596	25	8993
0	2769	25.5	8968
0	2821	26	8943
0	2890	26.5	8918
0	2940	27	8892
0	2961	27.5	8867
0	2978	28	8842
0	3053	28.5	8817
0	3102	29	8791
0	3119	29.5	8766
0	3148	30	8891
0	3176	30.5	8720
0	3196	31	8248
0	3225	31.5	8305
0	3409	32	8506
0	3437	32.5	8707
0	3478	33	8824
0	3508	33.5	8941
0	3683	34	9057
0	3753	34.5	9174
0	3814	35	9290
0	3884	35.5	9406
0	3912	36	9523
0	3936	36.5	9397
0	4054	37	9268
0	4114	37.5	9301
0	4134	38	9369
0	4154	38.5	9437
0	4155	38.5	9437
0	4176	39	9504
0	4202	39.5	9572
0	4232	40	9639
0	4233	40.007337526205	9640
0	4234	40.014598936993	9641
0	4237	40.021859594601	9642
0	4240	40.029119499185	9643
0	4243	40.036378650901	9644
0	4246	40.043637049906	9645
0	4249	40.050894696355	9646
0	4252	40.058151590404	9647
0	4255	40.06540773221	9648
0	4258	40.072663121928	9649
0	4263	40.079917759714	9650
0	4266	40.087171645724	9651
0	4269	40.094424780114	9652
0	4272	40.10167716304	9653
0	4277	40.108928794657	9654
0	4280	40.116179675121	9655
0	4283	40.123429804588	9656
0	4286	40.130679183213	9657
0	4289	40.137927811151	9658
0	4294	40.145175688558	9659
0	4297	40.15242281559	9660
0	4300	40.159669192402	9661
0	4303	40.166914819149	9662
0	4307	40.174159695986	9663
0	4310	40.181403823069	9663
0	4313	40.188647950152	9663
0	4316	40.195892077235	9664
0	4319	40.203135454718	9664
0	4322	40.210378832201	9664
0	4325	40.217622209684	9665
0	4328	40.224864837723	9665
0	4331	40.232107465762	9666
0	4334	40.239349344512	9666
0	4337	40.246591223262	9666
0	4341	40.253833102012	9667
0	4344	40.261074231628	9667
0	4347	40.268315361244	9667
0	4352	40.27555649086	9668
0	4355	40.282796871497	9668
0	4358	40.290037252134	9668
0	4361	40.297277632771	9669
0	4364	40.304517264584	9669
0	4367	40.311756896397	9669
0	4370	40.31899652821	9670
0	4373	40.326235411354	9670
0	4378	40.333474294498	9671
0	4383	40.340712429127	9671
0	4390	40.382775487981	9673
0	4396	40.5	9679
0	4435	41	9704
0	4436	41	9704
0	4472	41.5	9729
0	4473	41.5	9729
0	4492	42	9753
0	4644	42.5	9778
0	4713	43	9803
0	4716	43.021608950262	9804
0	4721	43.076418578312	9807
0	4727	43.207200624933	9813
0	4732	43.243619503585	9815
0	4737	43.339806432118	9820
0	4743	43.3673965382	9821
0	4748	43.401822232602	9823
0	4753	43.442271217359	9825
0	4758	43.470187556822	9826
0	4763	43.487104862757	9827
0	4767	43.5	9828
0	4770	43.573560844641	9832
0	4775	43.634867455253	9835
0	4780	43.701881253352	9838
0	4785	43.728676193119	9839
0	4790	43.758309064016	9841
0	4796	43.780666059146	9842
0	4802	43.954198313173	9851
0	4808	44	9853
0	4831	44.5	9630
0	4832	44.5	9630
0	4844	45	9189
0	4920	45.5	8747
0	4976	46	8558
0	5007	46.5	8715
0	5033	47	8871
0	5060	47.5	9028
0	5083	48	8981
0	5102	48.5	8742
0	5304	49	8502
0	5320	49.5	8263
0	5345	50	8289
0	5447	50.5	8333
0	5509	51	8377
0	5559	51.5	8422
0	5616	52	8466
0	5667	52.5	8510
0	5703	53	8554
0	5738	53.5	8598
0	5879	54	8643
0	5902	54.5	8687
0	5972	55	8731
0	6032	55.5	8628
0	6052	56	8513
0	6079	56.5	8397
0	6099	57	8282
0	6217	57.5	8166
0	6249	58	8134
0	6325	58.5	8119
0	6360	59	8104
0	6393	59.5	8123
0	6419	60	8088
0	6569	60.5	8890
0	6620	61	8857
0	6645	61.5	8824
0	6671	62	8791
0	6702	62.5	8758
0	6712	63	8725
0	6846	63.5	8692
0	6880	64	8659
0	6919	64.5	8617
0	6946	65	8545
0	6963	65.5	8473
0	7094	66	8614
0	7172	66.5	9386
0	7176	66.671676827198	9651
0	7181	66.769832991676	9803
0	7187	66.883281446007	9861
0	7190	66.890380117541	9861
0	7197	66.902109202488	9861
0	7202	66.933911726044	9861
0	7207	66.965957497204	9861
0	7210	66.973056168738	9861
0	7217	67	9861
0	7234	67.5	9860
0	7235	67.5	9860
0	7274	68	9859
0	7275	68.00444348003	9859
0	7276	68.011543591603	9859
0	7279	68.018643703176	9859
0	7282	68.025743814749	9859
0	7285	68.032843926322	9859
0	7288	68.039944037895	9859
0	7293	68.047044149468	9859
0	7296	68.054144261041	9859
0	7299	68.061244372614	9859
0	7304	68.068344484187	9859
0	7307	68.07544459576	9859
0	7310	68.082544707333	9859
0	7313	68.089644818906	9859
0	7320	68.096744930479	9859
0	7323	68.103845042052	9859
0	7326	68.110945153625	9859
0	7329	68.118045265198	9859
0	7334	68.125145376771	9859
0	7337	68.132245488344	9859
0	7340	68.139345599917	9859
0	7345	68.14644571149	9859
0	7348	68.153545823063	9859
0	7351	68.160645934636	9859
0	7354	68.167746046209	9859
0	7357	68.174846157782	9859
0	7360	68.181946269355	9859
0	7363	68.189046380928	9859
0	7368	68.196146492501	9859
0	7371	68.203246604074	9859
0	7380	68.246776150151	9859
0	7383	68.253876261724	9859
0	7390	68.299496198336	9858
0	7395	68.385909166984	9858
0	7399	68.5	9858
0	7402	68.508574459059	9858
0	7408	68.561556706219	9858
0	7413	68.617262443042	9858
0	7418	68.682056333867	9858
0	7423	68.701640560861	9858
0	7428	68.740133657652	9858
0	7433	68.759139609219	9857
0	7436	68.766241161415	9857
0	7443	68.854575827979	9857
0	7448	68.880538514223	9857
0	7453	68.955300070129	9857
0	7458	68.981291167373	9857
0	7463	68.997796502076	9857
0	7464	69	9857
0	7470	69.017156375438	9857
0	7475	69.079731823286	9857
0	7478	69.086833375482	9857
0	7485	69.122480809133	9857
0	7491	69.189309229999	9857
0	7496	69.214822187517	9857
0	7499	69.221923739713	9857
0	7506	69.258479486716	9856
0	7512	69.305088823744	9856
0	7515	69.312191096471	9856
0	7522	69.370280907047	9856
0	7527	69.425063400559	9856
0	7532	69.475427034978	9856
0	7535	69.482529307705	9856
0	7542	69.5	9856
0	7554	70	9855
0	7555	70.003464731109	9855
0	7556	70.010567724513	9855
0	7559	70.01493007311	9855
0	7560	70.017670717917	9855
0	7565	70.022033066514	9855
0	7572	70.024773711321	9855
0	7575	70.029136059918	9855
0	7578	70.031876704725	9855
0	7589	70.061327022185	9855
0	7596	70.199732025069	9854
0	7602	70.225628197323	9854
0	7615	70.384499728396	9854
0	7621	70.421635915881	9854
0	7630	70.5	9854
0	7649	71	9853
0	7650	71	9853
0	7696	71.5	9852
0	7697	71.507099391481	9852
0	7699	71.514204547794	9852
0	7702	71.521309704107	9852
0	7708	71.52841486042	9852
0	7711	71.535520016733	9852
0	7714	71.542625173046	9852
0	7719	71.549730329359	9852
0	7724	71.556835485672	9852
0	7729	71.563940641985	9852
0	7732	71.571045798298	9852
0	7735	71.578150954611	9852
0	7738	71.585256110924	9852
0	7741	71.592361267237	9852
0	7747	71.59946642355	9852
0	7750	71.606571579863	9852
0	7753	71.613676736176	9852
0	7756	71.620781892489	9852
0	7759	71.627887048802	9852
0	7762	71.634992205115	9852
0	7765	71.642097361428	9851
0	7769	71.649203239004	9851
0	7772	71.65630911658	9851
0	7775	71.663414994156	9851
0	7778	71.670520871732	9851
0	7781	71.677626749308	9851
0	7784	71.684732626884	9851
0	7787	71.69183850446	9851
0	7790	71.698944382036	9851
0	7793	71.706050259612	9851
0	7796	71.713156137188	9851
0	7801	71.720262014764	9851
0	7804	71.72736789234	9851
0	7807	71.734473769916	9851
0	7810	71.741579647492	9851
0	7817	71.79388376133	9851
0	7823	71.902004008466	9851
0	7828	71.932481967508	9851
0	7833	72	9851
0	7866	72.5	9850
0	7867	72.5	9850
0	7891	73	9849
0	7892	73.004898054272	9849
0	7893	73.012005374812	9849
0	7896	73.019112695352	9849
0	7899	73.024257927634	9849
0	7900	73.026220015892	9849
0	7904	73.031365248174	9849
0	7907	73.033327336432	9849
0	7910	73.038472568714	9849
0	7913	73.040434656972	9849
0	7916	73.045579889254	9849
0	7919	73.047541977512	9849
0	7924	73.052687209794	9849
0	7927	73.054649298052	9849
0	7930	73.059794530334	9849
0	7933	73.061756618592	9849
0	7936	73.066901850874	9849
0	7939	73.068863939132	9849
0	7942	73.074009171414	9849
0	7945	73.075971259672	9849
0	7948	73.081116491954	9849
0	7951	73.083078580212	9849
0	7954	73.086833375482	9849
0	7955	73.088223812494	9849
0	7959	73.090185900752	9848
0	7973	73.10999979316	9831
0	7978	73.120703902893	9822
0	7990	73.339203890464	9636
0	7999	73.464311789591	9530
0	8007	73.5	9499
0	8048	74	9165
0	8077	74.5	8925
0	8101	75	8685
0	8249	75.5	8445
0	8272	76	8420
0	8297	76.5	8584
0	8406	77	8748
0	8419	77.5	8779
0	8441	78	8765
0	8535	78.5	8752
0	8584	79	8739
0	8607	79.5	8726
0	8642	80	8713
0	8747	80.5	8505
0	8777	81	8210
0	8795	81.5	8442
0	8910	82	8674
0	8949	82.5	8906
0	8992	83	8840
0	9021	83.5	8867
0	9211	84	9158
0	9238	84.5	9449
0	9266	85	9658
0	9267	85.007343684431	9655
0	9268	85.014593813898	9653
0	9271	85.021845445515	9650
0	9274	85.029099331525	9648
0	9277	85.036354721243	9645
0	9280	85.043612367692	9643
0	9283	85.050871519408	9640
0	9286	85.058132930196	9638
0	9291	85.065395847814	9635
0	9294	85.072661026849	9633
0	9297	85.079927714278	9630
0	9300	85.087196665472	9628
0	9303	85.094467126627	9625
0	9306	85.1017398539	9623
0	9309	85.109014092703	9620
0	9312	85.11629059998	9618
0	9315	85.123568620358	9615
0	9318	85.13084891157	9613
0	9321	85.138130717458	9610
0	9324	85.145414796542	9608
0	9327	85.152700391879	9605
0	9330	85.15998826278	9603
0	9337	85.243866233264	9574
0	9342	85.310699285202	9551
0	9347	85.413603844085	9516
0	9350	85.420959876031	9513
0	9355	85.42831822776	9511
0	9363	85.481615333857	9492
0	9368	85.5	9486
0	9388	86	9314
0	9468	86.5	9142
0	9531	87	8971
0	9588	87.5	8799
0	9612	88	8627
0	9643	88.5	8709
0	9739	89	8916
0	9756	89.5	9122
0	9785	90	9329
0	9814	90.5	9536
0	9958	91	9742
0	9987	91.5	8576
0	10015	92	9219
0	10109	92.5	9370
0	10136	93	9386
0	10160	93.5	9402
0	10280	94	9418
0	10316	94.5	9434
0	10340	95	9450
0	10365	95.5	9466
0	10461	96	9482
0	10493	96.5	9498
0	10524	97	9514
0	10527	97.007178014766	9515
0	10528	97.014534819811	9515
0	10531	97.021891624856	9515
0	10536	97.029248429901	9515
0	10539	97.036605234946	9516
0	10542	97.043961266892	9516
0	10545	97.051317298838	9516
0	10548	97.058673330784	9516
0	10551	97.06602936273	9517
0	10554	97.07338462174	9517
0	10557	97.08073988075	9517
0	10560	97.08809513976	9517
0	10563	97.09545039877	9518
0	10566	97.102804885007	9518
0	10569	97.110159371244	9518
0	10572	97.117513857481	9518
0	10575	97.124868343718	9518
0	10578	97.132222829955	9519
0	10581	97.13957654358	9519
0	10584	97.146930257205	9519
0	10588	97.15428397083	9519
0	10591	97.161637684455	9520
0	10594	97.168990625631	9520
0	10597	97.176343566807	9520
0	10600	97.183696507983	9520
0	10605	97.191049449159	9521
0	10613	97.22271038981	9522
0	10618	97.256495505598	9523
0	10623	97.321930263585	9525
0	10628	97.32927934495	9525
0	10631	97.336628426315	9525
0	10638	97.345703035914	9526
0	10643	97.451372950128	9529
0	10648	97.5	9530
0	10663	98	9547
0	10678	98.5	9563
0	10711	99	9230
0	10818	99.5	8641
0	10845	100	8751
0	10882	100.5	8872
0	11009	101	8993
0	11044	101.5	9114
0	11073	102	9235
0	11185	102.5	9114
0	11239	103	8977
0	11258	103.5	8840
0	11339	104	8702
0	11384	104.5	8565
0	11415	105	8428
0	11445	105.5	8291
0	11601	106	8154
0	11625	106.5	8063
0	11654	107	8065
0	11681	107.5	8067
0	11707	108	8068
0	11739	108.5	8070
0	11750	109	8072
0	11942	109.5	8074
0	11969	110	8076
0	11993	110.5	8077
0	12104	111	8079
0	12129	111.5	8081
0	12180	112	8083
0	12255	112.5	8084
0	12299	113	8086
0	12317	113.5	8341
0	12332	114	8984
0	12428	114.5	8813
0	12454	115	9703
0	12483	115.5	8883
0	12484	115.5	8883
0	12529	116	8225
0	12555	116.5	8240
0	12574	117	8254
0	12607	117.5	8268
0	12829	118	8283
0	12858	118.5	8297
0	12880	119	8311
0	12980	119.5	8326
0	13022	120	8340
0	13064	120.5	8354
0	13115	121	8369
0	13186	121.5	8383
0	13211	122	8318
0	13297	122.5	9272
0	13357	123	8294
0	13375	123.5	8307
0	13390	124	8321
0	13408	124.5	8334
0	13453	125	8348
0	13495	125.5	8361
0	13520	126	8375
0	13544	126.5	8388
0	13563	127	8402
0	13588	127.5	8416
0	13813	128	8429
0	13882	128.5	8443
0	13904	129	8978
0	13951	129.5	9429
0	14013	130	9513
0	14016	130.007784645856	9515
0	14021	130.056170897762	9523
0	14027	130.13505995597	9536
0	14032	130.143444783401	9537
0	14038	130.161325063828	9537
0	14043	130.1903917153	9525
0	14048	130.271063660606	9492
0	14053	130.311260933589	9476
0	14059	130.351058297037	9459
0	14064	130.363988460524	9454
0	14069	130.396047155321	9441
0	14074	130.408931096539	9435
0	14079	130.465146976319	9412
0	14084	130.480673758703	9406
0	14087	130.488115816964	9403
0	14093	130.5	9398
0	14096	130.59543248897	9359
0	14099	130.602911920533	9356
0	14106	130.642407024101	9340
0	14111	130.659685110937	9332
0	14114	130.667186182519	9329
0	14121	130.870106076452	9246
0	14126	130.881577452529	9241
0	14129	130.889152390306	9238
0	14135	131	9193
0	14206	131.5	8987
0	14226	132	8782
0	14298	132.5	8728
0	14340	133	8797
0	14365	133.5	8867
0	14399	134	8937
0	14419	134.5	9006
0	14447	135	9076
0	14465	135.5	9145
0	14638	136	9215
0	14665	136.5	9189
0	14700	137	9138
0	14726	137.5	9063
0	14894	138	8724
0	14964	138.5	8841
0	15006	139	8978
0	15042	139.5	9158
0	15062	140	9420
0	15086	140.5	9691
0	15087	140.507010515774	9690
0	15088	140.514234457982	9689
0	15091	140.521459145772	9688
0	15094	140.528684579298	9687
0	15097	140.535910758714	9687
0	15100	140.54313693813	9686
0	15103	140.550363863589	9685
0	15110	140.557591535246	9684
0	15116	140.564819953255	9684
0	15119	140.572048371264	9683
0	15122	140.579277535779	9682
0	15125	140.586507446954	9681
0	15128	140.593738104944	9680
0	15133	140.600969509903	9680
0	15136	140.608200914862	9679
0	15139	140.615433066944	9678
0	15142	140.622665966303	9677
0	15147	140.629899613094	9676
0	15150	140.637134007472	9676
0	15155	140.64436840185	9675
0	15163	140.764114573208	9662
0	15168	140.780145206076	9660
0	15173	140.789457768671	9659
0	15178	140.849964100878	9652
0	15183	140.857216483804	9651
0	15186	140.864469618194	9651
0	15193	140.881616330957	9649
0	15199	140.984920657394	9637
0	15203	141	9636
0	15206	141.013136664848	9634
0	15211	141.042529103836	9631
0	15216	141.080407535318	9627
0	15221	141.115304798215	9623
0	15226	141.14710982042	9619
0	15231	141.185941473148	9615
0	15236	141.245806863148	9609
0	15241	141.297665457289	9603
0	15246	141.336690376757	9599
0	15251	141.357835432548	9596
0	15256	141.39691691893	9592
0	15259	141.404214667053	9591
0	15267	141.457259179439	9585
0	15272	141.476423249707	9583
0	15277	141.5	9581
0	15301	142	9526
0	15318	142.5	9471
0	15319	142.5	9471
0	15344	143	9416
0	15365	143.5	9179
0	15394	144	8706
0	15575	144.5	8651
0	15592	145	8913
0	15622	145.5	8922
0	15641	146	8935
0	15765	146.5	9020
0	15810	147	9106
0	15863	147.5	9191
0	15866	147.507335988262	9192
0	15873	147.562643737299	9202
0	15878	147.574946950146	9204
0	15883	147.591712582292	9207
0	15888	147.610180267683	9210
0	15891	147.617780701994	9211
0	15898	147.651029174359	9217
0	15904	147.770272356521	9237
0	15909	147.782809724999	9239
0	15915	147.844540056306	9250
0	15920	147.910007186413	9261
0	15926	147.957768696365	9269
0	15929	147.965320751603	9270
0	15936	148	9276
0	15958	148.5	9362
0	15981	149	9447
0	16084	149.5	9491
0	16128	150	9535
0	16145	150.5	9578
0	16146	150.5	9578
0	16184	151	9680
0	16185	151	9680
0	16220	151.5	9890
0	16221	151.5	9890
0	16242	152	9466
0	16243	152	9466
0	16265	152.5	9029
0	16437	153	8889
0	16467	153.5	9455
0	16492	154	9558
0	16493	154	9558
0	16513	154.5	9589
0	16644	155	9619
0	16648	155.026160379325	9621
0	16651	155.033436130286	9622
0	16659	155.100121544188	9626
0	16664	155.111072886412	9626
0	16669	155.13771674621	9628
0	16674	155.154640367821	9629
0	16680	155.21654413957	9633
0	16685	155.24614020724	9635
0	16691	155.324141534891	9639
0	16694	155.331403699016	9640
0	16701	155.349831406497	9641
0	16706	155.448038770814	9647
0	16711	155.5	9650
0	16715	155.641848005103	9659
0	16721	155.704720587987	9663
0	16726	155.757162646112	9666
0	16731	155.830863586933	9670
0	16736	155.937294361739	9677
0	16739	155.94452800853	9677
0	16746	155.982661015404	9680
0	16750	156	9681
0	16753	156.017464811614	9682
0	16758	156.085127738568	9686
0	16761	156.092354664027	9687
0	16768	156.165106023765	9691
0	16773	156.181119080857	9692
0	16779	156.300552587285	9699
0	16784	156.427182438838	9707
0	16789	156.435328963306	9708
0	16794	156.5	9712
0	16817	157	9742
0	16818	157	9742
0	16840	157.5	9773
0	16841	157.507610350076	9773
0	16842	157.514772940887	9774
0	16845	157.521934798878	9774
0	16848	157.529096656869	9775
0	16851	157.536257782189	9775
0	16854	157.543418907509	9776
0	16857	157.550579300308	9776
0	16860	157.557739693107	9777
0	16863	157.564899353535	9777
0	16866	157.572059013963	9777
0	16871	157.579218674391	9778
0	16874	157.586377602597	9778
0	16877	157.593536530803	9779
0	16880	157.600694726938	9779
0	16883	157.607852923073	9780
0	16886	157.615010387286	9780
0	16894	157.640451564193	9782
0	16900	157.727128191368	9787
0	16906	157.794127659375	9791
0	16911	157.818218661637	9793
0	16916	157.936705209682	9800
0	16920	158	9804
0	16924	158.073205582601	9808
0	16929	158.153643848313	9813
0	16935	158.185348922485	9815
0	16940	158.203969571203	9816
0	16945	158.216134305276	9817
0	16952	158.250635387382	9820
0	16957	158.286777049967	9828
0	16963	158.347274207095	9840
0	16968	158.398915005414	9850
0	16973	158.406365351319	9852
0	16978	158.425605822245	9855
0	16983	158.436388828255	9858
0	16986	158.443489660067	9859
0	16993	158.474833080753	9865
0	16999	158.5	9870
0	17025	159	9868
0	17026	159	9868
0	17038	159.5	8472
0	17039	159.5	8472
0	17066	160	8499
0	17088	160.5	8916
0	17123	161	9333
0	17332	161.5	9538
0	17353	162	9345
0	17376	162.5	9151
0	17398	163	8957
0	17526	163.5	8763
0	17587	164	8569
0	17632	164.5	8376
0	17676	165	8182
0	17706	165.5	8269
0	17739	166	8712
0	17865	166.5	9156
0	17893	167	9599
0	17913	167.5	9883
0	17947	168	9824
0	17948	168.000809354392	9824
0	17949	168.007934761558	9823
0	17952	168.014604884848	9822
0	17953	168.015060894104	9822
0	17956	168.021731742922	9822
0	17959	168.022187752178	9822
0	17962	168.028858600996	9821
0	17965	168.029314610252	9821
0	17968	168.035986184745	9820
0	17971	168.036442194001	9820
0	17974	168.043114494317	9819
0	17977	168.043570503573	9819
0	17982	168.05024352986	9818
0	17985	168.050699539116	9818
0	17988	168.057373291522	9817
0	17991	168.057829300778	9817
0	17994	168.064503779451	9817
0	17997	168.064959788707	9817
0	18000	168.07163426738	9816
0	18003	168.072090276636	9816
0	18006	168.078765481724	9815
0	18009	168.07922149098	9815
0	18013	168.085897422631	9814
0	18027	168.196250701747	9801
0	18033	168.206498261482	9800
0	18036	168.213641118625	9799
0	18043	168.235096946028	9797
0	18049	168.273808778015	9792
0	18054	168.31050567295	9788
0	18060	168.456108387943	9771
0	18065	168.486164782874	9767
0	18070	168.5	9765
0	18084	169	9707
0	18085	169.001865023491	9707
0	18086	169.007177278786	9706
0	18087	169.009076314312	9706
0	18090	169.01438931258	9705
0	18093	169.016288348106	9705
0	18098	169.021602089499	9704
0	18108	169.048443048914	9701
0	18111	169.055658799868	9700
0	18118	169.137038534775	9691
0	18123	169.218759803099	9681
0	18128	169.27597870594	9674
0	18131	169.283214595954	9674
0	18138	169.305450608607	9671
0	18143	169.318908044594	9669
0	18147	169.5	9648
0	18150	169.52092433683	9646
0	18155	169.529232786293	9645
0	18160	169.582754601364	9638
0	18165	169.59375696277	9637
0	18170	169.664588629696	9629
0	18176	169.702160838045	9624
0	18179	169.709434321004	9624
0	18186	169.758946023575	9618
0	18191	169.805920446583	9612
0	18196	169.837694678605	9609
0	18201	169.982888776572	9591
0	18208	170	9589
0	18224	170.5	9531
0	18252	171	9472
0	18280	171.5	9605
0	18398	172	9698
0	18412	172.5	9668
0	18413	172.5	9668
0	18456	173	9638
0	18484	173.5	9608
0	18516	174	9579
0	18547	174.5	9549
0	18773	175	9519
0	18823	175.5	9490
0	18855	176	9765
0	18874	176.5	9138
0	18996	177	8541
0	19095	177.5	8815
0	19147	178	9089
0	19225	178.5	9363
0	19256	179	9371
0	19288	179.5	8866
0	19309	180	8459
0	19459	180.5	8471
0	19492	181	8484
0	19507	181.5	8496
0	19533	182	8509
0	19560	182.5	8521
0	19584	183	8534
0	19740	183.5	8546
0	19792	184	8559
0	19825	184.5	8571
0	19841	185	8584
0	19921	185.5	8596
0	19944	186	8609
0	19985	186.5	8878
0	20042	187	9218
0	20067	187.5	9587
0	20156	188	9895
0	20184	188.5	9887
0	20185	188.50754554274	9887
0	20186	188.514625546786	9887
0	20191	188.521705550832	9887
0	20194	188.528785554878	9887
0	20197	188.535865558924	9887
0	20200	188.54294556297	9887
0	20203	188.550025567016	9886
0	20206	188.557106287226	9886
0	20209	188.564187007436	9886
0	20212	188.571267727646	9886
0	20215	188.578348447856	9886
0	20218	188.585429168066	9886
0	20221	188.592509888276	9886
0	20228	188.613157676171	9885
0	20233	188.789115055247	9883
0	20239	188.87203763324	9881
0	20244	188.88167292925	9881
0	20247	188.888757232458	9881
0	20252	188.895841535666	9881
0	20257	188.902925838874	9881
0	20265	188.961050665666	9880
0	20270	188.984724024632	9879
0	20276	189	9879
0	20305	189.5	9871
0	20306	189.5	9871
0	20329	190	9863
0	20330	190	9863
0	20356	190.5	8708
0	20357	190.5	8708
0	20395	191	8699
0	20553	191.5	8691
0	20583	192	8682
0	20602	192.5	8673
0	20632	193	8665
0	20666	193.5	8656
0	20840	194	8648
0	20880	194.5	8639
0	20940	195	8631
0	20966	195.5	8643
0	20992	196	8667
0	21127	196.5	8691
0	21171	197	8714
0	21225	197.5	8738
0	21249	198	8762
0	21275	198.5	8786
0	21311	199	8810
0	21336	199.5	8833
0	21489	200	8857
0	21516	200.5	8881
0	21545	201	8905
0	21650	201.5	8929
0	21677	202	8952
0	21754	202.5	8976
0	21800	203	9025
0	21866	203.5	9140
0	21892	204	9251
0	21929	204.5	9356
0	22049	205	9462
0	22091	205.5	9567
0	22114	206	9560
0	22154	206.5	9190
0	22323	207	9209
0	22351	207.5	8947
0	22382	208	8478
0	22502	208.5	8033
0	22527	209	8502
0	22582	209.5	8464
0	22627	210	8426
0	22700	210.5	8388
0	22728	211	8350
0	22771	211.5	8312
0	22910	212	8274
0	22935	212.5	8047
0	23041	213	9368
0	23062	213.5	9345
0	23085	214	9323
0	23116	214.5	9301
0	23147	215	9279
0	23341	215.5	9256
0	23358	216	9234
0	23381	216.5	9212
0	23399	217	9190
0	23432	217.5	9167
0	23589	218	8752
0	23637	218.5	8043
0	23668	219	8142
0	23694	219.5	8241
0	23727	220	8340
0	23834	220.5	8439
0	23886	221	8536
0	23938	221.5	8629
0	23955	222	8722
0	23992	222.5	8815
0	24019	223	8894
0	24033	223.5	8853
0	24188	224	8811
0	24213	224.5	8770
0	24237	225	8984
0	24261	225.5	9363
0	24423	226	9743
0	24426	226.097596285541	9817
0	24432	226.265113821901	8899
0	24437	226.275395131339	8828
0	24444	226.438934199271	8374
0	24449	226.460363745051	8383
0	24454	226.472630148942	8388
0	24459	226.496950217306	8398
0	24462	226.5	8399
0	24497	227	8608
0	24525	227.5	8816
0	24552	228	9024
0	24572	228.5	9233
0	24680	229	9374
0	24724	229.5	9385
0	24736	230	9397
0	24761	230.5	9408
0	24853	231	9419
0	24873	231.5	9634
0	24874	231.502338257395	9636
0	24875	231.507403490217	9639
0	24876	231.509602682468	9640
0	24881	231.514665654342	9643
0	24884	231.516864093256	9644
0	24887	231.521924806058	9647
0	24890	231.524122492261	9648
0	24893	231.529180947864	9651
0	24896	231.531377881979	9652
0	24903	231.538257844443	9656
0	24912	231.571304072345	9660
0	24917	231.736272975712	9533
0	24922	231.815492272342	9473
0	24927	231.832162085474	9460
0	24933	231.895111299189	9411
0	24938	231.910375013623	9400
0	24943	231.920079668061	9392
0	24948	231.940365979333	9377
0	24952	232	9331
0	25011	232.5	9169
0	25026	233	9081
0	25102	233.5	8993
0	25126	234	8906
0	25191	234.5	8818
0	25223	235	8730
0	25250	235.5	8642
0	25279	236	8555
0	25296	236.5	8467
0	25316	237	8379
0	25343	237.5	8292
0	25539	238	8204
0	25570	238.5	8116
0	25661	239	8370
0	25704	239.5	9384
0	25758	240	9829
0	25761	240.035561409911	9825
0	25766	240.119146894565	9817
0	25771	240.210224965522	9807
0	25776	240.240551557748	9804
0	25783	240.377600452056	9791
0	25788	240.397420468955	9789
0	25794	240.405077239771	9788
0	25799	240.412520036303	9787
0	25804	240.427532999007	9785
0	25809	240.476624910829	9781
0	25813	240.5	9778
0	25878	241	9728
0	25881	241.007616974973	9727
0	25886	241.076628346294	9720
0	25891	241.096226643455	9718
0	25896	241.14295899144	9713
0	25901	241.272221525623	9700
0	25904	241.279438020468	9700
0	25911	241.46166310613	9681
0	25916	241.488826793663	9679
0	25921	241.5	9677
0	25938	242	9627
0	25965	242.5	9577
0	25978	243	9526
0	26014	243.5	9476
0	26045	244	9306
0	26082	244.5	9092
0	26111	245	8877
0	26145	245.5	8663
0	26169	246	8449
0	26392	246.5	8235
0	26572	247	8395
0	26627	247.5	8737
0	26678	248	8918
0	26729	248.5	9099
0	26763	249	9281
0	26806	249.5	9462
0	26847	250	9585
0	26865	250.5	9626
0	26990	251	9666
0	27024	251.5	9707
0	27046	252	9748
0	27047	252.004184286133	9749
0	27048	252.011364509746	9749
0	27051	252.018544733359	9750
0	27054	252.025724220538	9750
0	27057	252.032903707717	9751
0	27061	252.040082458614	9751
0	27064	252.047261209511	9752
0	27067	252.054439224277	9753
0	27070	252.061616503063	9753
0	27073	252.068793781849	9754
0	27076	252.075970324806	9754
0	27079	252.083146867763	9755
0	27082	252.090322675041	9756
0	27085	252.091580285217	9756
0	27086	252.097497746792	9756
0	27089	252.098755356968	9756
0	27092	252.098787121416	9756
0	27093	252.104672818543	9757
0	27096	252.105930428719	9757
0	27099	252.105962193167	9757
0	27106	252.111847154917	9757
0	27109	252.113104765093	9757
0	27112	252.113136529541	9757
0	27115	252.119021491291	9758
0	27129	252.212509393083	9766
0	27136	252.266990751729	9770
0	27142	252.315881495274	9774
0	27147	252.326270361478	9775
0	27150	252.333431486798	9775
0	27157	252.390165927478	9780
0	27163	252.413904795528	9782
0	27172	252.456739045607	9786
0	27178	252.5	9789
0	27194	253	9830
0	27195	253	9830
0	27240	253.5	9623
0	27241	253.5	9623
0	27277	254	9069
0	27278	254	9069
0	27300	254.5	8946
0	27325	255	8823
0	27354	255.5	8735
0	27577	256	8652
0	27608	256.5	8570
0	27630	257	8541
0	27756	257.5	8524
0	27795	258	8429
0	27867	258.5	8919
0	27910	259	9409
0	27941	259.5	9145
0	27969	260	8734
0	28001	260.5	8691
0	28100	261	8648
0	28120	261.5	8604
0	28146	262	8561
0	28172	262.5	8518
0	28200	263	8475
0	28225	263.5	8432
0	28407	264	8389
0	28458	264.5	8366
0	28485	265	8437
0	28522	265.5	8507
0	28649	266	8578
0	28696	266.5	8648
0	28739	267	8752
0	28807	267.5	9134
0	28836	268	9180
0	28855	268.5	9119
0	28884	269	9058
0	28995	269.5	8998
0	29025	270	8937
0	29045	270.5	8946
0	29079	271	8999
0	29104	271.5	9052
0	29123	272	9086
0	29302	272.5	8889
0	29375	273	8692
0	29400	273.5	8496
0	29416	274	8299
0	29509	274.5	9960
0	29512	274.509780690888	9957
0	29518	274.662593879156	9919
0	29523	274.696613602437	9911
0	29528	274.713621959522	9907
0	29533	274.749397110549	9898
0	29538	274.766617600596	9893
0	29543	274.792057950622	9887
0	29549	274.917112440235	9431
0	29552	274.924534770847	9391
0	29558	275	8986
0	29628	275.5	8839
0	29699	276	8922
0	29723	276.5	9004
0	29750	277	9087
0	29841	277.5	9170
0	29925	278	9252
0	29946	278.5	9335
0	29974	279	9417
0	30003	279.5	9500
0	30028	280	9583
0	30054	280.5	9665
0	30241	281	8168
0	30250	281.5	8220
0	30268	282	8273
0	30341	282.5	8325
0	30411	283	8378
0	30452	283.5	8430
0	30546	284	8483
0	30600	284.5	8535
0	30624	285	8587
0	30656	285.5	8640
0	30766	286	8914
0	30798	286.5	9203
0	30818	287	9492
0	30836	287.5	9622
0	30964	288	9238
0	30992	288.5	8853
0	31010	289	8763
0	31115	289.5	8727
0	31137	290	8690
0	31166	290.5	8653
0	31232	291	8616
0	31303	291.5	8579
0	31327	292	8542
0	31348	292.5	8506
0	31453	293	8469
0	31467	293.5	8432
0	31504	294	8395
0	31628	294.5	8374
0	31664	295	8367
0	31694	295.5	8359
0	31714	296	8624
0	31851	296.5	8816
0	31869	297	8814
0	31892	297.5	8813
0	31980	298	8914
0	32013	298.5	9034
0	32032	299	9153
0	32144	299.5	9272
0	32184	300	9391
0	32217	300.5	9510
0	32237	301	9630
0	32240	301.007073565077	9631
0	32242	301.014341761526	9633
0	32245	301.021608448955	9635
0	32248	301.02887362799	9636
0	32251	301.036138053063	9638
0	32254	301.043400970681	9640
0	32257	301.050662381469	9642
0	32260	301.057922286053	9643
0	32263	301.065181437769	9645
0	32266	301.072439084218	9647
0	32269	301.079695226024	9649
0	32272	301.08694986381	9650
0	32275	301.09420374982	9652
0	32278	301.101456132746	9654
0	32281	301.10870701321	9656
0	32284	301.115956391835	9657
0	32287	301.123205019773	9659
0	32291	301.130452146805	9661
0	32296	301.137697773552	9662
0	32299	301.144942650389	9664
0	32302	301.152186027872	9666
0	32305	301.159427906622	9668
0	32308	301.166668287259	9669
0	32311	301.173907919072	9671
0	32318	301.223959558709	9683
0	32323	301.242549552968	9687
0	32328	301.296532835907	9700
0	32333	301.415899929142	9729
0	32338	301.487159237044	9746
0	32343	301.5	9749
0	32369	302	9868
0	32370	302	9868
0	32387	302.5	9871
0	32388	302.507453151618	9864
0	32391	302.514549664189	9857
0	32396	302.521651216385	9850
0	32399	302.52875781537	9844
0	32402	302.535868745886	9837
0	32405	302.542984736534	9831
0	32408	302.550105070172	9824
0	32411	302.557230477338	9817
0	32414	302.564360965267	9811
0	32419	302.571495813906	9804
0	32422	302.578635756786	9797
0	32425	302.585780801187	9791
0	32428	302.592930224126	9784
0	32431	302.600084762147	9777
0	32434	302.607244422575	9771
0	32437	302.614408479478	9764
0	32442	302.621577672432	9757
0	32445	302.628752008806	9751
0	32448	302.635930759703	9744
0	32451	302.643114667749	9737
0	32454	302.650303740359	9730
0	32461	302.679115745644	9704
0	32466	302.838778121566	9555
0	32471	302.894790745719	9502
0	32474	302.902157615852	9495
0	32482	303	9445
0	32508	303.5	9325
0	32509	303.5	9325
0	32538	304	9206
0	32569	304.5	9086
0	32725	305	8967
0	32751	305.5	8894
0	32787	306	9099
0	32915	306.5	9303
0	32931	307	9508
0	32932	307	9508
0	32958	307.5	9493
0	33044	308	9235
0	33137	308.5	8978
0	33167	309	8720
0	33266	309.5	8462
0	33305	310	8450
0	33339	310.5	9068
0	33371	311	9858
0	33372	311.007362221287	9857
0	33373	311.014463773483	9856
0	33376	311.02156604621	9855
0	33379	311.028669039614	9854
0	33382	311.035772753842	9853
0	33385	311.042877189039	9852
0	33388	311.049982345352	9851
0	33393	311.057088222928	9850
0	33396	311.064194821913	9849
0	33399	311.071302142453	9847
0	33402	311.078410906544	9846
0	33405	311.08552039263	9845
0	33408	311.092630600858	9844
0	33413	311.099741531374	9843
0	33416	311.106853184325	9842
0	33419	311.113965559858	9841
0	33422	311.12107865812	9840
0	33425	311.128192479258	9839
0	33428	311.135307023419	9838
0	33433	311.14242229075	9837
0	33436	311.149538281398	9836
0	33441	311.156654995509	9834
0	33444	311.16377315699	9833
0	33447	311.170892042376	9832
0	33453	311.178011651815	9831
0	33456	311.185131985453	9830
0	33459	311.192253043439	9829
0	33466	311.202109231954	9828
0	33471	311.291740888736	9814
0	33474	311.298873556354	9813
0	33481	311.310561471795	9811
0	33488	311.5	9782
0	33522	312	9706
0	33523	312	9706
0	33541	312.5	9630
0	33542	312.5	9630
0	33563	313	9554
0	33564	313	9554
0	33591	313.5	8536
0	33592	313.5	8536
0	33611	314	8798
0	33821	314.5	9047
0	33856	315	9114
0	33875	315.5	9181
0	33912	316	9248
0	34039	316.5	9207
0	34082	317	8975
0	34143	317.5	8279
0	34182	318	8444
0	34204	318.5	8609
0	34241	319	8775
0	34271	319.5	8940
0	34423	320	9105
0	34450	320.5	9270
0	34472	321	9435
0	34501	321.5	9600
0	34524	322	9766
0	34549	322.5	9931
0	34550	322.507466666667	9933
0	34553	322.514513883017	9936
0	34556	322.521558971584	9938
0	34559	322.528602642343	9940
0	34562	322.535644895864	9942
0	34565	322.542685732718	9945
0	34568	322.549724445639	9947
0	34571	322.556761743317	9949
0	34576	322.56379762632	9952
0	34579	322.570831388378	9954
0	34582	322.577863737183	9956
0	34585	322.584894673302	9959
0	34588	322.591923491456	9961
0	34591	322.598950898343	9963
0	34595	322.605976894529	9960
0	34598	322.613005006979	9957
0	34601	322.620035236968	9954
0	34604	322.627067585773	9951
0	34607	322.634102054671	9948
0	34610	322.64113864494	9945
0	34613	322.648177357861	9942
0	34616	322.655218194715	9938
0	34619	322.662261865474	9935
0	34622	322.669307663159	9932
0	34627	322.676355589055	9929
0	34630	322.683405644448	9926
0	34635	322.690457830626	9923
0	34638	322.697512148877	9919
0	34641	322.704569311897	9916
0	34644	322.711628610001	9913
0	34647	322.718690044481	9910
0	34650	322.72575361663	9907
0	34655	322.732819327743	9904
0	34660	322.739887179116	9900
0	34663	322.746957886187	9897
0	34666	322.754030736546	9894
0	34669	322.761105731492	9891
0	34674	322.768182872327	9888
0	34677	322.775262160353	9885
0	34680	322.782343596873	9881
0	34683	322.789427900081	9878
0	34688	322.796514354829	9875
0	34691	322.803602962424	9872
0	34694	322.810693724174	9869
0	34697	322.81778664139	9866
0	34700	322.824881715381	9862
0	34703	322.831979667115	9859
0	34706	322.839079778688	9856
0	34709	322.846182051415	9853
0	34712	322.853286486612	9850
0	34715	322.860393085597	9846
0	34720	322.867502571683	9843
0	34723	322.874614224634	9840
0	34731	322.925972613275	9817
0	34735	323	9784
0	34798	323.5	9560
0	34829	324	9335
0	34853	324.5	9001
0	35007	325	8694
0	35047	325.5	9377
0	35117	326	9366
0	35152	326.5	9241
0	35183	327	9116
0	35214	327.5	8991
0	35350	328	8678
0	35435	328.5	8311
0	35464	329	8374
0	35493	329.5	8437
0	35508	330	8499
0	35538	330.5	8562
0	35675	331	8624
0	35722	331.5	8687
0	35747	332	8750
0	35775	332.5	8812
0	35881	333	8875
0	35927	333.5	8931
0	35967	334	8694
0	36036	334.5	8549
0	36065	335	8404
0	36096	335.5	8259
0	36118	336	8113
0	36240	336.5	8007
0	36268	337	8009
0	36291	337.5	8011
0	36408	338	8013
0	36425	338.5	8015
0	36457	339	8017
0	36582	339.5	8020
0	36626	340	8022
0	36649	340.5	8024
0	36676	341	8212
0	36781	341.5	9585
0	36799	342	9655
0	36832	342.5	9181
0	36936	343	8707
0	36968	343.5	8233
0	36982	344	8390
0	37062	344.5	8906
0	37103	345	9239
0	37133	345.5	9169
0	37154	346	9100
0	37275	346.5	9030
0	37291	347	8961
0	37323	347.5	8884
0	37428	348	8775
0	37451	348.5	8665
0	37480	349	8555
0	37520	349.5	8448
0	37664	350	8551
0	37687	350.5	8654
0	37718	351	8758
0	37837	351.5	8861
0	37871	352	8796
0	37906	352.5	8643
0	38035	353	8490
0	38091	353.5	8337
0	38106	354	8184
0	38127	354.5	8982
0	38221	355	8953
0	38246	355.5	8899
0	38270	356	8844
0	38367	356.5	8790
0	38382	357	8779
0	38413	357.5	8787
0	38441	358	8794
0	38563	358.5	8901
0	38586	359	9075
0	38601	359.5	9163
0	38694	360	8868
0	38724	360.5	8905
0	38768	361	9131
0	38926	361.5	8912
0	39002	362	8246
0	39034	362.5	8585
0	39064	363	8680
0	39185	363.5	8674
0	39204	364	8667
0	39229	364.5	8661
0	39325	365	8655
0	39349	365.5	8648
0	39386	366	8642
0	39415	366.5	8755
0	39564	367	8878
0	39584	367.5	9001
0	39602	368	9120
0	39696	368.5	9223
0	39736	369	9327
0	39766	369.5	9430
0	39895	370	9534
0	39967	370.5	9572
0	39991	371	9544
0	40017	371.5	9517
0	40018	371.507100831812	9517
0	40021	371.514456090822	9516
0	40024	371.521812122768	9516
0	40027	371.529168154714	9515
0	40030	371.536524959759	9515
0	40033	371.543881764804	9514
0	40036	371.55123934311	9514
0	40039	371.558596921416	9514
0	40042	371.565954499722	9513
0	40045	371.573312851451	9513
0	40048	371.58067120318	9512
0	40051	371.588030328495	9512
0	40054	371.59538945381	9512
0	40057	371.602748579125	9511
0	40060	371.610108478189	9511
0	40065	371.617468377253	9510
0	40068	371.624829050229	9510
0	40071	371.632189723205	9510
0	40074	371.639550396181	9509
0	40082	371.708087653917	9505
0	40088	371.789703687526	9501
0	40093	371.798554175681	9501
0	40096	371.805921821192	9500
0	40103	371.821103354431	9499
0	40106	371.828472551189	9499
0	40113	371.912129978228	9494
0	40118	371.922585948803	9494
0	40123	371.962946099818	9491
0	40128	372	9489
0	40154	372.5	9462
0	40174	373	9435
0	40283	373.5	9407
0	40312	374	9380
0	40336	374.5	9352
0	40337	374.506444881579	9352
0	40340	374.513929911519	9351
0	40343	374.521415741911	9351
0	40346	374.528901572303	9351
0	40349	374.536387402695	9350
0	40352	374.543874033711	9350
0	40355	374.551360664727	9349
0	40359	374.558848096538	9349
0	40362	374.566335528349	9349
0	40365	374.57382296016	9348
0	40368	374.581311192937	9348
0	40372	374.588799425714	9347
0	40377	374.596288459629	9347
0	40380	374.603777493544	9347
0	40385	374.611266527459	9346
0	40388	374.618756362683	9346
0	40391	374.626246197907	9345
0	40394	374.633736834611	9345
0	40397	374.641227471315	9344
0	40400	374.648718909671	9344
0	40403	374.656210348027	9344
0	40409	374.663701786383	9343
0	40412	374.671194026563	9343
0	40415	374.678686266743	9342
0	40422	374.706936913524	9341
0	40427	374.780403783655	9337
0	40432	374.8163927837	9335
0	40437	374.848195524175	9333
0	40443	374.899372787737	9330
0	40448	375	9325
0	40451	375.025780295999	9323
0	40456	375.048547531434	9322
0	40459	375.056056649649	9322
0	40466	375.130137583274	9318
0	40469	375.137649924978	9317
0	40476	375.164212969989	9316
0	40482	375.187794604551	9314
0	40487	375.212385810955	9313
0	40490	375.219902185915	9313
0	40498	375.266059016809	9310
0	40501	375.273577813801	9310
0	40508	375.361078734135	9305
0	40513	375.402914911885	9303
0	40516	375.410439366362	9302
0	40523	375.41967947434	9302
0	40528	375.448442870397	9300
0	40533	375.497689447588	9297
0	40535	375.5	9297
0	40563	376	9270
0	40588	376.5	9242
0	40687	377	9215
0	40709	377.5	9187
0	40741	378	9160
0	40890	378.5	9133
0	40933	379	9105
0	40959	379.5	9133
0	41097	380	9197
0	41149	380.5	9261
0	41171	381	9324
0	41198	381.5	9388
0	41199	381.507124681934	9389
0	41200	381.514580215005	9390
0	41203	381.522034954089	9391
0	41206	381.529488899356	9392
0	41209	381.536942050974	9392
0	41212	381.544395202592	9393
0	41215	381.551847560731	9394
0	41218	381.55929912556	9395
0	41221	381.566749897247	9396
0	41224	381.574199875961	9397
0	41227	381.581649061871	9398
0	41230	381.589097455146	9399
0	41235	381.596545055955	9400
0	41238	381.603991864466	9401
0	41243	381.611437880847	9402
0	41246	381.618883105267	9403
0	41249	381.626327537895	9404
0	41252	381.633771178899	9405
0	41257	381.641214028447	9406
0	41260	381.648656086708	9407
0	41263	381.656097353849	9408
0	41268	381.663537830039	9409
0	41275	381.776055599377	9423
0	41280	381.811327441574	9427
0	41285	381.831732301001	9430
0	41288	381.83915541871	9431
0	41295	381.854853554688	9433
0	41300	381.87970519736	9436
0	41306	382	9451
0	41317	382.5	9515
0	41318	382.5	9515
0	41334	383	9579
0	41335	383.007263671267	9579
0	41336	383.014571323423	9580
0	41339	383.021878212776	9581
0	41342	383.029184339485	9582
0	41345	383.03648970371	9583
0	41348	383.043794305609	9584
0	41351	383.051098145342	9585
0	41354	383.058401223068	9586
0	41357	383.065703538945	9587
0	41364	383.16057720819	9599
0	41370	383.24478126559	9610
0	41376	383.339576511804	9622
0	41381	383.360848921101	9624
0	41386	383.478500384446	9639
0	41391	383.5	9642
0	41414	384	9706
0	41415	384	9706
0	41444	384.5	9769
0	41445	384.5	9769
0	41470	385	9666
0	41609	385.5	9534
0	41634	386	9402
0	41658	386.5	9035
0	41758	387	8110
0	41779	387.5	8196
0	41806	388	8283
0	41906	388.5	8369
0	41980	389	8503
0	42005	389.5	8648
0	42035	390	8792
0	42143	390.5	8937
0	42162	391	9082
0	42189	391.5	9226
0	42300	392	9371
0	42338	392.5	9269
0	42368	393	9032
0	42401	393.5	8901
0	42574	394	8944
0	42599	394.5	8988
0	42622	395	9029
0	42758	395.5	9023
0	42784	396	8903
0	42810	396.5	8621
0	42935	397	8339
0	43002	397.5	8711
0	43031	398	9380
0	43061	398.5	9853
0	43062	398.507175071751	9849
0	43063	398.514282392291	9846
0	43066	398.521391878377	9843
0	43069	398.528503531328	9839
0	43072	398.535618075489	9836
0	43075	398.5427347896	9832
0	43078	398.549854399039	9829
0	43081	398.556976181519	9826
0	43084	398.564100138368	9822
0	43087	398.571226996442	9819
0	43090	398.578356031985	9816
0	43093	398.585487246329	9812
0	43096	398.592621367813	9809
0	43099	398.599757671208	9805
0	43102	398.606896885894	9802
0	43105	398.614038285608	9799
0	43108	398.621181871688	9795
0	43111	398.628328375006	9792
0	43114	398.635477067816	9789
0	43119	398.642627951461	9785
0	43122	398.649781758308	9782
0	43125	398.656937759126	9778
0	43132	398.672882412623	9771
0	43137	398.685308629391	9765
0	43142	398.721666129573	9748
0	43145	398.72884708977	9744
0	43150	398.736030997816	9741
0	43157	398.789303326538	9716
0	43160	398.796507937489	9712
0	43165	398.803715515743	9709
0	43172	398.821303910281	9701
0	43177	398.835626126021	9694
0	43182	398.871933477626	9677
0	43187	398.880899071454	9672
0	43192	398.941243293188	9644
0	43197	399	9616
0	43227	399.5	8751
0	43251	400	8266
1	1099	10	8291
1	1156	10.5	9718
1	1159	10.527340749582	9700
1	1164	10.552557939911	9684
1	1169	10.59738748345	9655
1	1175	10.710574162243	9583
1	1180	10.753035202821	9555
1	1185	10.803968139322	9523
1	1190	10.816589138967	9515
1	1196	10.927664483891	9444
1	1200	11	9397
1	1233	11.5	9077
1	1289	12	8756
1	1328	12.5	8436
1	1357	13	8600
1	1395	13.5	9176
1	1421	14	9210
1	1446	14.5	9218
1	1474	15	9202
1	1488	15.5	9186
1	1513	16	9170
1	1764	16.5	9154
1	1787	17	9137
1	1869	17.5	9120
1	1941	18	9104
1	2001	18.5	9087
1	2032	19	9070
1	2071	19.5	8992
1	2140	20	8906
1	2167	20.5	8821
1	2254	21	8735
1	2276	21.5	8650
1	2302	22	8564
1	2327	22.5	8478
1	2351	23	8393
1	2500	23.5	8307
1	2527	24	8222
1	2561	24.5	8136
1	2596	25	8115
1	2769	25.5	8712
1	2821	26	9310
1	2890	26.5	9444
1	2940	27	9436
1	2961	27.5	9428
1	2978	28	9420
1	3053	28.5	9411
1	3102	29	9403
1	3119	29.5	9395
1	3148	30	9387
1	3176	30.5	9383
1	3196	31	9405
1	3225	31.5	9428
1	3409	32	9451
1	3437	32.5	9474
1	3478	33	9497
1	3508	33.5	9520
1	3683	34	9543
1	3753	34.5	9566
1	3757	34.525025173045	9567
1	3762	34.605446065499	9571
1	3768	34.639193614182	9572
1	3772	34.646506610421	9572
1	3780	34.674894163304	9561
1	3785	34.711471430261	9546
1	3790	34.818626415282	9503
1	3795	34.836948979874	9496
1	3800	34.870460573703	9483
1	3805	34.913543948293	9465
1	3810	34.940314165848	9455
1	3814	35	9431
1	3884	35.5	9230
1	3912	36	9030
1	3936	36.5	8829
1	4054	37	8693
1	4114	37.5	8644
1	4134	38	8595
1	4155	38.5	8546
1	4176	39	8511
1	4202	39.5	8479
1	4232	40	8446
1	4396	40.5	8414
1	4436	41	8382
1	4473	41.5	8350
1	4492	42	8404
1	4644	42.5	8651
1	4713	43	8932
1	4767	43.5	9212
1	4808	44	9394
1	4832	44.5	9280
1	4844	45	9165
1	4920	45.5	9051
1	4976	46	8937
1	5007	46.5	8823
1	5033	47	8709
1	5060	47.5	8595
1	5083	48	8480
1	5102	48.5	8366
1	5304	49	8252
1	5320	49.5	8517
1	5345	50	8974
1	5447	50.5	9093
1	5509	51	9019
1	5559	51.5	8946
1	5616	52	8873
1	5667	52.5	8799
1	5703	53	8726
1	5738	53.5	8653
1	5879	54	8579
1	5902	54.5	8385
1	5972	55	8297
1	6032	55.5	8404
1	6052	56	8511
1	6079	56.5	8619
1	6099	57	8726
1	6217	57.5	8834
1	6249	58	8941
1	6325	58.5	9048
1	6360	59	9146
1	6393	59.5	9202
1	6419	60	9258
1	6569	60.5	9313
1	6620	61	9369
1	6645	61.5	9425
1	6671	62	9481
1	6702	62.5	9492
1	6712	63	9416
1	6846	63.5	9340
1	6880	64	9092
1	6919	64.5	8838
1	6946	65	8664
1	6963	65.5	8249
1	7094	66	8411
1	7172	66.5	9142
1	7217	67	9105
1	7235	67.5	9067
1	7274	68	9005
1	7399	68.5	8918
1	7464	69	8830
1	7542	69.5	8742
1	7554	70	8654
1	7630	70.5	8798
1	7650	71	8959
1	7696	71.5	9120
1	7833	72	9280
1	7867	72.5	9441
1	7891	73	9602
1	8007	73.5	9763
1	8047	74	9839
1	8048	74	9839
1	8076	74.5	9776
1	8077	74.5	9776
1	8101	75	9713
1	8249	75.5	9650
1	8272	76	9587
1	8297	76.5	9524
1	8406	77	9461
1	8419	77.5	9398
1	8441	78	9335
1	8535	78.5	9272
1	8584	79	9209
1	8607	79.5	9321
1	8642	80	9438
1	8747	80.5	9555
1	8777	81	9672
1	8795	81.5	9789
1	8798	81.507072135785	9790
1	8799	81.514222289003	9792
1	8802	81.521370981813	9794
1	8805	81.528518214813	9795
1	8808	81.535664718131	9797
1	8813	81.542809762532	9799
1	8816	81.549953348612	9800
1	8819	81.557096205755	9802
1	8824	81.564237605469	9804
1	8827	81.571377548349	9805
1	8830	81.578516763035	9807
1	8833	81.585654521779	9809
1	8836	81.592790825174	9810
1	8840	81.599926401117	9812
1	8845	81.607060522601	9814
1	8848	81.614193190219	9815
1	8851	81.621325131126	9817
1	8854	81.628455619055	9819
1	8857	81.635584654598	9820
1	8860	81.64271296417	9822
1	8863	81.649839822244	9824
1	8866	81.65696522941	9825
1	8869	81.664089911344	9827
1	8876	81.718412689859	9840
1	8881	81.771490355674	9852
1	8886	81.844967021467	9869
1	8891	81.86831063034	9875
1	8897	81.89042418979	9880
1	8903	81.945590454925	9893
1	8908	81.994189274579	9904
1	8910	82	9906
1	8948	82.5	8832
1	8949	82.5	8832
1	8992	83	8784
1	9021	83.5	8931
1	9211	84	9078
1	9238	84.5	9226
1	9266	85	9373
1	9368	85.5	9520
1	9388	86	9668
1	9389	86.001257125952	9668
1	9390	86.008497506589	9670
1	9395	86.015736389733	9672
1	9400	86.022973776003	9675
1	9405	86.030208918122	9677
1	9408	86.037442564913	9679
1	9411	86.044674716995	9681
1	9416	86.051905374985	9683
1	9419	86.0591345395	9685
1	9422	86.066362211157	9687
1	9425	86.073588390573	9690
1	9428	86.080812332781	9692
1	9435	86.093977545708	9696
1	9441	86.232301554111	9736
1	9446	86.245979797223	9740
1	9451	86.374375933211	9778
1	9456	86.424206397169	9793
1	9461	86.440828993248	9798
1	9467	86.499995969416	9815
1	9468	86.5	9815
1	9531	87	9880
1	9534	87.016634427287	9881
1	9539	87.050487512905	9881
1	9544	87.121998480318	9881
1	9550	87.23661096161	9881
1	9555	87.258855885059	9881
1	9560	87.269116025975	9881
1	9565	87.330820027312	9882
1	9571	87.368855857404	9882
1	9577	87.413116699637	9882
1	9582	87.432862964242	9882
1	9588	87.5	9882
1	9611	88	9884
1	9612	88	9884
1	9643	88.5	9886
1	9644	88.50772797527	9886
1	9645	88.51480869548	9886
1	9648	88.52188941569	9886
1	9651	88.5289701359	9886
1	9654	88.53605085611	9886
1	9657	88.54313157632	9886
1	9662	88.55021229653	9886
1	9665	88.55729301674	9886
1	9668	88.56437373695	9886
1	9673	88.57145445716	9886
1	9676	88.57853517737	9886
1	9679	88.58561589758	9886
1	9682	88.59269661779	9886
1	9685	88.599777338	9886
1	9688	88.60685805821	9886
1	9691	88.61393877842	9886
1	9696	88.62101949863	9886
1	9699	88.62810021884	9886
1	9702	88.63518093905	9886
1	9705	88.64226165926	9886
1	9708	88.64934237947	9886
1	9711	88.65642309968	9886
1	9714	88.66350381989	9886
1	9717	88.6705845401	9886
1	9724	88.694407060496	9886
1	9729	88.860260429382	9887
1	9734	88.926830646904	9887
1	9739	89	9887
1	9755	89.5	9889
1	9756	89.5	9889
1	9784	90	9891
1	9785	90	9891
1	9814	90.5	9892
1	9815	90.507127910323	9892
1	9818	90.514204335717	9893
1	9821	90.521280045815	9893
1	9826	90.527849676128	9893
1	9827	90.528355755913	9893
1	9830	90.534925386226	9893
1	9833	90.534964220289	9893
1	9834	90.535431466011	9893
1	9839	90.542001096324	9893
1	9842	90.542039930387	9893
1	9845	90.542507176109	9893
1	9850	90.549076806422	9893
1	9853	90.549115640485	9893
1	9856	90.549582886207	9893
1	9859	90.55615251652	9893
1	9862	90.556191350583	9893
1	9865	90.556658596305	9893
1	9868	90.563228226618	9893
1	9871	90.563267060681	9893
1	9874	90.563734306403	9893
1	9877	90.570303936716	9893
1	9880	90.570342770779	9893
1	9883	90.570810016501	9893
1	9886	90.577379646814	9893
1	9889	90.577418480877	9893
1	9892	90.577885726599	9893
1	9895	90.579368675338	9893
1	9896	90.584455356912	9893
1	9899	90.584494190975	9893
1	9902	90.584961436697	9893
1	9907	90.586444385436	9893
1	9925	90.689917461957	9893
1	9930	90.700756963244	9893
1	9937	90.826143080007	9894
1	9946	90.89373418431	9894
1	9949	90.900809179256	9894
1	9958	91	9894
1	9986	91.5	9896
1	9987	91.5	9896
1	10015	92	9898
1	10016	92.007082152975	9898
1	10017	92.01415428876	9898
1	10020	92.021226424545	9898
1	10023	92.02829856033	9898
1	10026	92.035370696115	9898
1	10029	92.0424428319	9898
1	10032	92.049514967685	9898
1	10035	92.05658710347	9898
1	10038	92.063659239255	9898
1	10041	92.07073137504	9898
1	10044	92.077803510825	9898
1	10047	92.08487564661	9898
1	10050	92.091947782395	9898
1	10054	92.09901991818	9898
1	10057	92.106092053965	9898
1	10061	92.11316418975	9898
1	10064	92.120236325535	9898
1	10067	92.12730846132	9898
1	10070	92.134380597105	9898
1	10073	92.14145273289	9898
1	10076	92.148524868675	9898
1	10083	92.190503987188	9898
1	10088	92.261313661213	9898
1	10093	92.303983195524	9899
1	10098	92.322868880801	9899
1	10103	92.467843813485	9899
1	10109	92.5	9899
1	10136	93	9901
1	10160	93.5	9903
1	10161	93.507078572151	9903
1	10162	93.514147137232	9903
1	10165	93.521215702313	9903
1	10168	93.528284267394	9903
1	10171	93.535352832475	9903
1	10174	93.542421397556	9903
1	10177	93.549489962637	9903
1	10180	93.556558527718	9903
1	10183	93.563627092799	9903
1	10188	93.57069565788	9903
1	10191	93.577764222961	9903
1	10194	93.584832788042	9903
1	10197	93.591901353123	9903
1	10200	93.598969918204	9903
1	10203	93.606038483285	9903
1	10206	93.613107048366	9903
1	10209	93.620175613447	9903
1	10216	93.627244178528	9903
1	10219	93.634312743609	9903
1	10222	93.64138130869	9903
1	10227	93.648449873771	9903
1	10231	93.655518438852	9903
1	10234	93.662587003933	9903
1	10239	93.669655569014	9903
1	10246	93.729972291246	9904
1	10249	93.737040142619	9904
1	10256	93.779150257416	9904
1	10261	93.811424245967	9904
1	10266	93.882087736731	9904
1	10271	93.967833891936	9904
1	10276	93.982315676832	9904
1	10280	94	9904
1	10316	94.5	9564
1	10340	95	9211
1	10365	95.5	8858
1	10461	96	8505
1	10493	96.5	8155
1	10524	97	8687
1	10648	97.5	9237
1	10663	98	9123
1	10678	98.5	8355
1	10711	99	8954
1	10818	99.5	8886
1	10845	100	8300
1	10882	100.5	8136
1	11009	101	8296
1	11044	101.5	8340
1	11073	102	8347
1	11185	102.5	8354
1	11239	103	8361
1	11258	103.5	8369
1	11339	104	8376
1	11384	104.5	8383
1	11415	105	8390
1	11445	105.5	8403
1	11601	106	8470
1	11625	106.5	8537
1	11654	107	8604
1	11681	107.5	8672
1	11707	108	8739
1	11739	108.5	8806
1	11750	109	8873
1	11942	109.5	8940
1	11969	110	9007
1	11993	110.5	9074
1	12104	111	9141
1	12129	111.5	9208
1	12133	111.516033051437	9210
1	12139	111.623663192419	9225
1	12144	111.660256544395	9230
1	12150	111.834216254291	9253
1	12154	111.841781368308	9254
1	12161	111.880234745909	9259
1	12166	111.912206895579	9264
1	12171	111.942869421655	9268
1	12176	111.97170486941	9272
1	12180	112	9275
1	12183	112.007252382926	9276
1	12188	112.016219489094	9278
1	12193	112.129154090303	9293
1	12198	112.156700689031	9296
1	12203	112.168403541346	9298
1	12208	112.190543037448	9301
1	12213	112.214071261258	9304
1	12218	112.22300871393	9305
1	12224	112.274248876176	9312
1	12229	112.303362642734	9316
1	12234	112.366307442992	9325
1	12241	112.381552242708	9327
1	12244	112.38905733545	9328
1	12251	112.421367170712	9332
1	12255	112.5	9343
1	12299	113	9410
1	12317	113.5	9477
1	12332	114	9544
1	12333	114.007410544146	9545
1	12334	114.014744226702	9546
1	12337	114.022077141012	9547
1	12340	114.029409287236	9548
1	12343	114.036740665535	9549
1	12346	114.04407127607	9550
1	12349	114.051401119002	9551
1	12352	114.058730194491	9552
1	12355	114.066058502699	9553
1	12360	114.073386043786	9554
1	12363	114.080712817912	9555
1	12370	114.157097870959	9565
1	12375	114.203329516947	9571
1	12380	114.219438035288	9573
1	12384	114.226750267608	9574
1	12391	114.249269676268	9577
1	12396	114.293026255547	9583
1	12402	114.364682284643	9593
1	12405	114.37197927203	9594
1	12412	114.424313262773	9601
1	12417	114.43540244524	9602
1	12423	114.461990741829	9608
1	12428	114.5	9620
1	12453	115	9634
1	12454	115	9634
1	12484	115.5	9515
1	12529	116	9395
1	12555	116.5	9275
1	12574	117	9156
1	12607	117.5	9036
1	12829	118	8916
1	12858	118.5	8796
1	12880	119	8677
1	12980	119.5	8705
1	13022	120	8850
1	13064	120.5	8996
1	13115	121	8850
1	13186	121.5	8613
1	13211	122	8462
1	13297	122.5	8582
1	13357	123	8703
1	13375	123.5	8823
1	13390	124	8943
1	13408	124.5	9038
1	13453	125	9089
1	13495	125.5	9140
1	13520	126	9191
1	13544	126.5	9242
1	13563	127	9294
1	13588	127.5	9345
1	13813	128	9396
1	13882	128.5	9456
1	13904	129	9535
1	13907	129.032348558945	9540
1	13912	129.131225655894	9556
1	13917	129.18278536493	9564
1	13922	129.205029229845	9568
1	13927	129.219185656087	9570
1	13933	129.328515099141	9587
1	13938	129.347433534494	9590
1	13944	129.398323298838	9598
1	13951	129.5	9673
1	13954	129.514964614701	9685
1	13959	129.543070277796	9706
1	13965	129.670682821307	9802
1	13968	129.677824221021	9807
1	13975	129.723286175415	9841
1	13980	129.796797835162	9897
1	13984	129.803870685521	9902
1	13991	129.836817470587	9927
1	13996	129.851934320411	9938
1	14003	129.929067345564	9501
1	14008	129.938863812761	9445
1	14013	130	9095
1	14093	130.5	8670
1	14135	131	8866
1	14206	131.5	9063
1	14226	132	9259
1	14298	132.5	9313
1	14340	133	9260
1	14365	133.5	9207
1	14399	134	9153
1	14419	134.5	9100
1	14447	135	9047
1	14465	135.5	8994
1	14638	136	8941
1	14665	136.5	8893
1	14700	137	8907
1	14726	137.5	8921
1	14894	138	8936
1	14964	138.5	8950
1	15006	139	8965
1	15042	139.5	8979
1	15062	140	8993
1	15086	140.5	9008
1	15203	141	9022
1	15277	141.5	9037
1	15301	142	9051
1	15319	142.5	9036
1	15344	143	9020
1	15365	143.5	9004
1	15394	144	8988
1	15575	144.5	8973
1	15592	145	9198
1	15622	145.5	9425
1	15641	146	9652
1	15765	146.5	9621
1	15810	147	9361
1	15863	147.5	9101
1	15936	148	8841
1	15958	148.5	8581
1	15981	149	8492
1	16084	149.5	8754
1	16128	150	9016
1	16146	150.5	9278
1	16185	151	9140
1	16221	151.5	8162
1	16243	152	8212
1	16265	152.5	8504
1	16437	153	8821
1	16467	153.5	9138
1	16493	154	9307
1	16513	154.5	9376
1	16644	155	9445
1	16711	155.5	9513
1	16750	156	9582
1	16794	156.5	9651
1	16818	157	9508
1	16840	157.5	9077
1	16920	158	8645
1	16999	158.5	8233
1	17026	159	8509
1	17039	159.5	8785
1	17066	160	8853
1	17088	160.5	9037
1	17123	161	9222
1	17332	161.5	9406
1	17353	162	9553
1	17376	162.5	8912
1	17398	163	8077
1	17526	163.5	8597
1	17587	164	9123
1	17632	164.5	9354
1	17676	165	9312
1	17706	165.5	9270
1	17739	166	9227
1	17865	166.5	9238
1	17893	167	9266
1	17913	167.5	9295
1	17947	168	9324
1	18070	168.5	9353
1	18084	169	9381
1	18147	169.5	9410
1	18208	170	9439
1	18224	170.5	9468
1	18252	171	9496
1	18280	171.5	9525
1	18398	172	9554
1	18413	172.5	9583
1	18456	173	9370
1	18484	173.5	9064
1	18516	174	8820
1	18547	174.5	8963
1	18773	175	9106
1	18823	175.5	9248
1	18855	176	9391
1	18874	176.5	9534
1	18996	177	9677
1	19095	177.5	9574
1	19147	178	9222
1	19225	178.5	8870
1	19256	179	8518
1	19288	179.5	9870
1	19309	180	9843
1	19310	180.007268196449	9842
1	19311	180.014380571982	9842
1	19316	180.021492947515	9841
1	19319	180.028606045777	9841
1	19322	180.035719144039	9841
1	19325	180.042832242301	9840
1	19328	180.049946063439	9840
1	19331	180.057059884577	9839
1	19334	180.064174428738	9839
1	19337	180.071288972899	9839
1	19340	180.07840351706	9838
1	19343	180.085518784391	9838
1	19346	180.092634051722	9837
1	19349	180.09975004237	9837
1	19352	180.106866033018	9837
1	19355	180.113982023666	9836
1	19358	180.121098737777	9836
1	19361	180.128215451888	9835
1	19364	180.13533288961	9835
1	19367	180.142450327332	9835
1	19370	180.149567765054	9834
1	19373	180.156685926535	9834
1	19378	180.163804088016	9833
1	19381	180.170922973402	9833
1	19384	180.178041858788	9833
1	19387	180.185160744174	9832
1	19390	180.192280353613	9832
1	19393	180.199399963052	9831
1	19398	180.20652029669	9831
1	19401	180.213640630328	9831
1	19406	180.220760963966	9830
1	19409	180.227882021952	9830
1	19412	180.235003079938	9829
1	19415	180.242124862418	9829
1	19420	180.249246644898	9829
1	19423	180.256368427378	9828
1	19426	180.263490934501	9828
1	19433	180.322239941224	9825
1	19438	180.370867441303	9822
1	19443	180.424246155919	9819
1	19449	180.461863582377	9817
1	19454	180.487370321251	9815
1	19459	180.5	9815
1	19491	181	9787
1	19492	181	9787
1	19506	181.5	9759
1	19507	181.5	9759
1	19532	182	9731
1	19533	182	9731
1	19560	182.5	9703
1	19584	183	9674
1	19585	183.00716112532	9674
1	19586	183.014397015334	9673
1	19589	183.021633653399	9673
1	19592	183.028870291464	9672
1	19595	183.036107677734	9672
1	19598	183.043345064004	9672
1	19601	183.050582450274	9671
1	19604	183.057820584903	9671
1	19607	183.065058719532	9670
1	19610	183.072297602676	9670
1	19613	183.07953648582	9669
1	19618	183.086776117633	9669
1	19621	183.094015749446	9668
1	19624	183.101256130083	9668
1	19627	183.10849651072	9667
1	19630	183.115737640336	9667
1	19633	183.122978769952	9667
1	19636	183.130219899568	9666
1	19639	183.137461778318	9666
1	19642	183.144703657068	9665
1	19645	183.151946285107	9665
1	19648	183.159188913146	9664
1	19651	183.166432290629	9664
1	19654	183.173675668112	9663
1	19657	183.180919795195	9663
1	19660	183.188163922278	9663
1	19663	183.195408049361	9662
1	19668	183.202652926198	9662
1	19671	183.209897803035	9661
1	19674	183.217143429782	9661
1	19677	183.224389056529	9660
1	19680	183.231635433341	9660
1	19683	183.238881810153	9659
1	19686	183.246128937185	9659
1	19689	183.253376064217	9658
1	19692	183.260623941624	9658
1	19695	183.267871819031	9658
1	19698	183.275119696438	9657
1	19703	183.282368324376	9657
1	19706	183.289616952314	9656
1	19709	183.296866330939	9656
1	19712	183.304115709564	9655
1	19715	183.311365839031	9655
1	19718	183.318615968498	9654
1	19725	183.351092376639	9652
1	19731	183.452753595931	9646
1	19737	183.493930164646	9643
1	19740	183.5	9643
1	19792	184	9612
1	19825	184.5	9581
1	19841	185	9550
1	19842	185.007152344947	9549
1	19843	185.014482955482	9549
1	19846	185.021813566017	9548
1	19849	185.029144944316	9548
1	19852	185.036476322615	9547
1	19855	185.043808468839	9547
1	19858	185.051140615063	9546
1	19862	185.058473529373	9546
1	19865	185.065806443683	9545
1	19868	185.073140126239	9545
1	19871	185.080473808795	9545
1	19874	185.087807491351	9544
1	19879	185.095141942315	9544
1	19883	185.102476393279	9543
1	19886	185.109811612812	9543
1	19889	185.117146832345	9542
1	19892	185.124482820607	9542
1	19895	185.131818808869	9541
1	19898	185.139155566022	9541
1	19907	185.247859181232	9534
1	19912	185.261250792939	9533
1	19917	185.420088726662	9523
1	19921	185.5	9518
1	19924	185.610114973453	9512
1	19929	185.697054295737	9506
1	19935	185.785695739333	9501
1	19940	185.832487493998	9498
1	19944	186	9487
1	19985	186.5	9456
1	20042	187	9425
1	20067	187.5	9394
1	20156	188	8182
1	20184	188.5	9795
1	20276	189	9824
1	20306	189.5	9852
1	20330	190	9800
1	20357	190.5	9512
1	20395	191	9224
1	20553	191.5	8935
1	20583	192	8647
1	20602	192.5	8359
1	20632	193	8190
1	20666	193.5	8234
1	20840	194	8279
1	20880	194.5	8324
1	20940	195	8369
1	20966	195.5	8344
1	20992	196	8318
1	21127	196.5	8292
1	21171	197	8266
1	21225	197.5	8240
1	21249	198	8214
1	21275	198.5	8188
1	21311	199	8162
1	21336	199.5	8136
1	21489	200	8110
1	21516	200.5	8284
1	21545	201	8533
1	21650	201.5	8781
1	21677	202	9030
1	21754	202.5	9279
1	21800	203	9528
1	21803	203.054329849247	9555
1	21808	203.075274568179	9565
1	21813	203.12667471076	9591
1	21818	203.150221999281	9602
1	21824	203.186543047228	9620
1	21829	203.208787647039	9631
1	21834	203.250666310029	9652
1	21839	203.298602537581	9676
1	21844	203.337045196463	9695
1	21850	203.452379946627	9753
1	21855	203.459733648803	9756
1	21860	203.469242862197	9761
1	21866	203.5	9776
1	21892	204	9752
1	21929	204.5	9695
1	21930	204.507010515774	9694
1	21931	204.514231477193	9693
1	21934	204.521453183579	9692
1	21937	204.528675635085	9691
1	21940	204.535898831866	9691
1	21943	204.543122028647	9690
1	21946	204.550345970855	9689
1	21949	204.557570658645	9688
1	21952	204.564796092171	9687
1	21955	204.572022271587	9686
1	21960	204.579249197046	9686
1	21963	204.586476122505	9685
1	21966	204.593703794162	9684
1	21969	204.600932212171	9683
1	21972	204.608161376686	9682
1	21977	204.615391287861	9682
1	21980	204.622621199036	9681
1	21983	204.629851857026	9680
1	21988	204.637083261985	9679
1	21991	204.644315414067	9678
1	21996	204.651548313426	9677
1	21999	204.658781960217	9677
1	22002	204.666015607008	9676
1	22005	204.673250001386	9675
1	22008	204.680485143505	9674
1	22015	204.780112768514	9663
1	22020	204.826561689979	9657
1	22023	204.833810317917	9657
1	22030	204.847620981827	9655
1	22035	204.86004020186	9654
1	22040	204.903092938986	9649
1	22047	204.995565974719	9638
1	22049	205	9638
1	22090	205.5	9581
1	22091	205.5	9581
1	22114	206	9524
1	22154	206.5	9468
1	22323	207	9412
1	22351	207.5	9355
1	22382	208	9299
1	22502	208.5	9243
1	22527	209	9187
1	22582	209.5	9131
1	22627	210	9074
1	22700	210.5	9018
1	22728	211	8962
1	22771	211.5	8856
1	22910	212	8722
1	22935	212.5	9666
1	22936	212.505395169743	9676
1	22939	212.512629564121	9690
1	22943	212.519853506329	9703
1	22946	212.527067769959	9717
1	22950	212.534271639466	9724
1	22953	212.541470323135	9723
1	22956	212.548669747181	9721
1	22959	212.555870652438	9720
1	22964	212.563072298529	9719
1	22967	212.570274685606	9717
1	22974	212.585563394753	9714
1	22979	212.629965831996	9706
1	22984	212.643072697813	9704
1	22989	212.65558039621	9701
1	22994	212.676660896409	9697
1	22999	212.686873216269	9695
1	23005	212.834984953027	9668
1	23010	212.867427337744	9662
1	23015	212.884733227263	9658
1	23021	212.906762671742	9654
1	23026	212.920880194429	9652
1	23031	212.934657090146	9649
1	23036	212.978407090131	9641
1	23041	213	9637
1	23062	213.5	9543
1	23085	214	9495
1	23115	214.5	9475
1	23116	214.5	9475
1	23147	215	9456
1	23341	215.5	9436
1	23358	216	9416
1	23381	216.5	9397
1	23399	217	9377
1	23432	217.5	9358
1	23589	218	9338
1	23637	218.5	9318
1	23668	219	9299
1	23694	219.5	9292
1	23727	220	9302
1	23728	220.007256894049	9302
1	23729	220.014782157433	9302
1	23732	220.022307420817	9302
1	23737	220.029832684201	9303
1	23740	220.037357138678	9303
1	23743	220.044881593155	9303
1	23746	220.052406047632	9303
1	23749	220.059930502109	9303
1	23752	220.067454956586	9303
1	23755	220.074979411063	9303
1	23758	220.08250386554	9304
1	23761	220.090027511284	9304
1	23764	220.097551157028	9304
1	23767	220.105074802772	9304
1	23770	220.112598448516	9304
1	23773	220.12012209426	9304
1	23778	220.127645740004	9305
1	23782	220.135168577188	9305
1	23785	220.142691414372	9305
1	23788	220.150214251556	9305
1	23791	220.15773708874	9305
1	23794	220.165259925924	9305
1	23797	220.172782763108	9305
1	23802	220.180305600292	9306
1	23809	220.203083744826	9306
1	23814	220.252897337809	9307
1	23820	220.280243592752	9308
1	23823	220.2877640053	9308
1	23830	220.417024307727	9310
1	23834	220.5	9312
1	23886	221	9322
1	23938	221.5	9332
1	23955	222	9343
1	23992	222.5	9353
1	24019	223	9363
1	24033	223.5	9373
1	24188	224	9383
1	24213	224.5	9393
1	24236	225	9404
1	24237	225	9404
1	24261	225.5	9414
1	24262	225.503812555668	9414
1	24263	225.511248289681	9414
1	24266	225.518684023694	9414
1	24269	225.526119757707	9414
1	24272	225.53355549172	9415
1	24275	225.540990435958	9415
1	24278	225.548425380196	9415
1	24281	225.555860324434	9415
1	24284	225.563295268672	9415
1	24289	225.57073021291	9415
1	24294	225.578165157148	9415
1	24299	225.585600101386	9416
1	24302	225.593034256016	9416
1	24305	225.600468410646	9416
1	24308	225.607902565276	9416
1	24313	225.615336719906	9416
1	24318	225.622770874536	9416
1	24321	225.630205029166	9416
1	24326	225.637639183796	9417
1	24329	225.645072548987	9417
1	24334	225.652505914178	9417
1	24337	225.659939279369	9417
1	24342	225.66737264456	9417
1	24345	225.674806009751	9417
1	24348	225.682239374942	9418
1	24351	225.68967195086	9418
1	24354	225.697104526778	9418
1	24359	225.704537102696	9418
1	24362	225.711969678614	9418
1	24365	225.719402254532	9418
1	24368	225.72683483045	9418
1	24371	225.734267406368	9419
1	24374	225.741699193182	9419
1	24377	225.749130979996	9419
1	24380	225.75656276681	9419
1	24389	225.782830857766	9420
1	24394	225.812948807704	9420
1	24399	225.861839395134	9421
1	24404	225.89086477136	9422
1	24409	225.919832960905	9422
1	24414	225.972927489585	9423
1	24417	225.980356121655	9424
1	24423	226	9424
1	24462	226.5	9434
1	24466	226.507318348144	9434
1	24469	226.514738318464	9434
1	24476	226.54515842861	9435
1	24481	226.655752133861	9437
1	24487	226.80696984869	9440
1	24493	226.941709332422	9443
1	24497	227	9444
1	24500	227.062327011048	9446
1	24505	227.41937436791	9453
1	24510	227.463307603933	9454
1	24516	227.476846102682	9454
1	24521	227.494933984072	9454
1	24524	227.5	9455
1	24525	227.5	9455
1	24551	228	9465
1	24552	228	9465
1	24572	228.5	9475
1	24573	228.507565114017	9475
1	24574	228.514952976814	9475
1	24577	228.522340839611	9475
1	24582	228.529728702408	9475
1	24585	228.537116565205	9476
1	24588	228.544503648362	9476
1	24591	228.551890731519	9476
1	24594	228.559277814676	9476
1	24597	228.566664897833	9476
1	24600	228.57405198099	9476
1	24603	228.581439064147	9477
1	24608	228.58882536783	9477
1	24611	228.596211671513	9477
1	24614	228.603597975196	9477
1	24617	228.610984278879	9477
1	24624	228.618370582562	9477
1	24627	228.625756886245	9477
1	24630	228.633143189928	9478
1	24633	228.6405287143	9478
1	24640	228.647914238672	9478
1	24643	228.655299763044	9478
1	24646	228.662685287416	9478
1	24653	228.809109048955	9481
1	24658	228.825274350392	9481
1	24664	228.842612196072	9482
1	24669	228.865137380392	9482
1	24674	228.920524295065	9483
1	24679	228.995497373345	9485
1	24680	229	9485
1	24724	229.5	9495
1	24735	230	9505
1	24736	230	9505
1	24761	230.5	9516
1	24762	230.505285535239	9516
1	24763	230.512641567185	9516
1	24766	230.514738318464	9516
1	24767	230.519997599131	9516
1	24772	230.52209435041	9516
1	24775	230.522158288784	9516
1	24776	230.527353631077	9516
1	24779	230.529450382356	9516
1	24782	230.52951432073	9516
1	24785	230.534709663023	9516
1	24788	230.536806414302	9516
1	24791	230.536870352676	9516
1	24794	230.542065694969	9516
1	24797	230.544162446248	9516
1	24800	230.544226384622	9516
1	24814	230.580129904821	9517
1	24821	230.746470973194	9521
1	24826	230.769281877365	9521
1	24832	230.841463935175	9523
1	24837	230.879127298155	9523
1	24842	230.890090601485	9523
1	24847	230.929223025756	9524
1	24853	231	9526
1	24873	231.5	9536
1	24952	232	9546
1	25011	232.5	8202
1	25026	233	8225
1	25102	233.5	8248
1	25126	234	8695
1	25191	234.5	9301
1	25223	235	9858
1	25249	235.5	9691
1	25250	235.5	9691
1	25278	236	9524
1	25279	236	9524
1	25295	236.5	9357
1	25296	236.5	9357
1	25315	237	9190
1	25316	237	9190
1	25343	237.5	9023
1	25539	238	8856
1	25570	238.5	8689
1	25661	239	8732
1	25704	239.5	8915
1	25758	240	9098
1	25813	240.5	9845
1	25816	240.507481030245	9842
1	25821	240.561454618275	9824
1	25824	240.568580025441	9822
1	25832	240.694747495067	9779
1	25836	240.701905691202	9776
1	25841	240.709066084001	9774
1	25849	240.717892330431	9771
1	25854	240.784683885384	9748
1	25859	240.817486279476	9737
1	25864	240.85702869234	9724
1	25869	240.871514414838	9719
1	25874	240.902077118647	9708
1	25878	241	9675
1	25921	241.5	9505
1	25938	242	9335
1	25965	242.5	9165
1	25978	243	8995
1	26014	243.5	8825
1	26045	244	8655
1	26082	244.5	8485
1	26111	245	8315
1	26145	245.5	8152
1	26169	246	8152
1	26392	246.5	8152
1	26572	247	8152
1	26627	247.5	8152
1	26678	248	8152
1	26729	248.5	8152
1	26763	249	8204
1	26806	249.5	9257
1	26847	250	9388
1	26865	250.5	9426
1	26990	251	9465
1	27024	251.5	9503
1	27046	252	9542
1	27178	252.5	9545
1	27195	253	9376
1	27241	253.5	9208
1	27278	254	9111
1	27300	254.5	9160
1	27325	255	9209
1	27354	255.5	9258
1	27577	256	9274
1	27608	256.5	9146
1	27630	257	9018
1	27756	257.5	8891
1	27795	258	8763
1	27867	258.5	8635
1	27910	259	8508
1	27941	259.5	8380
1	27969	260	8253
1	28001	260.5	8239
1	28100	261	8364
1	28120	261.5	8489
1	28146	262	8614
1	28172	262.5	8738
1	28200	263	8863
1	28225	263.5	8988
1	28407	264	9113
1	28458	264.5	9169
1	28485	265	8612
1	28522	265.5	8516
1	28649	266	8427
1	28696	266.5	8395
1	28739	267	8586
1	28807	267.5	8777
1	28836	268	8968
1	28855	268.5	9159
1	28884	269	8692
1	28995	269.5	8660
1	29025	270	8629
1	29045	270.5	8753
1	29079	271	8896
1	29104	271.5	9039
1	29123	272	9182
1	29302	272.5	9325
1	29375	273	9434
1	29400	273.5	9491
1	29416	274	9548
1	29509	274.5	9606
1	29558	275	9663
1	29628	275.5	9720
1	29699	276	9777
1	29722	276.5	8937
1	29723	276.5	8937
1	29750	277	8297
1	29841	277.5	8875
1	29925	278	9453
1	29946	278.5	9131
1	29974	279	9124
1	30003	279.5	9118
1	30028	280	9111
1	30054	280.5	9105
1	30241	281	9098
1	30250	281.5	9091
1	30268	282	9085
1	30341	282.5	9056
1	30411	283	8947
1	30452	283.5	8837
1	30546	284	8727
1	30600	284.5	8617
1	30624	285	8508
1	30656	285.5	8398
1	30766	286	8288
1	30798	286.5	8179
1	30818	287	8069
1	30836	287.5	8034
1	30964	288	8057
1	30992	288.5	8081
1	31010	289	8105
1	31115	289.5	8128
1	31137	290	8377
1	31166	290.5	8720
1	31232	291	9063
1	31303	291.5	9406
1	31327	292	9749
1	31348	292.5	8589
1	31453	293	8105
1	31467	293.5	8212
1	31504	294	8319
1	31628	294.5	8425
1	31664	295	8532
1	31694	295.5	8639
1	31714	296	8746
1	31851	296.5	8852
1	31869	297	8959
1	31892	297.5	8986
1	31980	298	8929
1	32013	298.5	8873
1	32032	299	8817
1	32144	299.5	8760
1	32184	300	8704
1	32217	300.5	8647
1	32237	301	8591
1	32343	301.5	8535
1	32370	302	8478
1	32387	302.5	8422
1	32482	303	8365
1	32509	303.5	8309
1	32538	304	8473
1	32569	304.5	8735
1	32725	305	8997
1	32751	305.5	9259
1	32787	306	9268
1	32915	306.5	9010
1	32932	307	8752
1	32958	307.5	8495
1	33044	308	8237
1	33137	308.5	8273
1	33167	309	8402
1	33266	309.5	8531
1	33305	310	8659
1	33339	310.5	8788
1	33371	311	8917
1	33488	311.5	9045
1	33523	312	9120
1	33542	312.5	9122
1	33564	313	9124
1	33592	313.5	9126
1	33611	314	9128
1	33821	314.5	8732
1	33856	315	8672
1	33875	315.5	8596
1	33912	316	8520
1	34039	316.5	8372
1	34082	317	8634
1	34143	317.5	8896
1	34182	318	9158
1	34204	318.5	9421
1	34240	319	9627
1	34241	319	9627
1	34271	319.5	9660
1	34272	319.507346767422	9661
1	34273	319.514592394169	9661
1	34277	319.521838020916	9662
1	34280	319.529082897753	9662
1	34285	319.53632777459	9663
1	34288	319.543571901673	9663
1	34293	319.550816028756	9664
1	34296	319.558059406239	9664
1	34299	319.565302783722	9664
1	34302	319.572546161205	9665
1	34305	319.579788789244	9665
1	34308	319.587031417283	9666
1	34311	319.594273296033	9666
1	34314	319.601515174783	9667
1	34317	319.608756304399	9667
1	34320	319.615997434015	9668
1	34323	319.623237814652	9668
1	34326	319.630478195289	9669
1	34329	319.637717827102	9669
1	34332	319.644957458915	9670
1	34335	319.652196342059	9670
1	34338	319.659435225203	9671
1	34341	319.666673359832	9671
1	34344	319.673911494461	9672
1	34347	319.681148880731	9672
1	34350	319.688386267001	9673
1	34353	319.695622905066	9673
1	34356	319.702859543131	9673
1	34359	319.710096181196	9674
1	34362	319.71733207121	9674
1	34365	319.724567961224	9675
1	34368	319.731803103343	9675
1	34373	319.739038245462	9676
1	34376	319.74627263984	9676
1	34379	319.753507034218	9677
1	34384	319.760740681009	9677
1	34387	319.7679743278	9678
1	34390	319.775207227159	9678
1	34393	319.782440126518	9679
1	34398	319.7896722786	9679
1	34406	319.816596546426	9681
1	34412	319.925688583234	9688
1	34415	319.93291401676	9689
1	34423	320	9693
1	34449	320.5	9726
1	34450	320.5	9726
1	34471	321	9758
1	34472	321	9758
1	34500	321.5	9791
1	34501	321.5	9791
1	34523	322	9824
1	34524	322	9824
1	34549	322.5	9857
1	34735	323	9831
1	34738	323.017554794201	9819
1	34743	323.066122202797	9785
1	34748	323.084864721363	9772
1	34753	323.252316910194	9655
1	34758	323.284715143993	9632
1	34763	323.336702497435	9596
1	34768	323.393003212063	9557
1	34773	323.400620813324	9552
1	34778	323.460501684247	9510
1	34784	323.469291919187	9504
1	34789	323.487150042462	9491
1	34792	323.494525450744	9486
1	34797	323.5	9482
1	34798	323.5	9482
1	34829	324	9134
1	34853	324.5	8786
1	35007	325	8437
1	35047	325.5	8089
1	35117	326	8092
1	35152	326.5	8190
1	35183	327	8571
1	35214	327.5	9362
1	35350	328	9704
1	35435	328.5	9115
1	35464	329	9785
1	35493	329.5	9546
1	35508	330	9308
1	35538	330.5	9423
1	35675	331	9842
1	35722	331.5	8994
1	35747	332	8129
1	35775	332.5	8174
1	35881	333	8231
1	35927	333.5	8379
1	35967	334	8528
1	36036	334.5	8676
1	36065	335	8824
1	36096	335.5	8972
1	36118	336	9121
1	36240	336.5	9269
1	36268	337	9156
1	36291	337.5	9010
1	36408	338	8865
1	36425	338.5	8719
1	36457	339	9253
1	36582	339.5	9519
1	36586	339.597502580443	9532
1	36593	339.818635417826	9562
1	36599	339.854390290681	9567
1	36604	339.902015253716	9573
1	36609	339.917974048947	9575
1	36614	339.937453363637	9578
1	36617	339.944761778755	9579
1	36624	339.999854349895	9586
1	36626	340	9586
1	36648	340.5	9654
1	36649	340.5	9654
1	36676	341	9722
1	36677	341.007191288268	9723
1	36678	341.014390712314	9724
1	36681	341.021589395983	9725
1	36684	341.028787339428	9726
1	36687	341.0359845428	9727
1	36690	341.043181006252	9728
1	36693	341.050376729936	9728
1	36696	341.05757245362	9729
1	36699	341.064767437688	9730
1	36703	341.071961682292	9731
1	36708	341.079155187584	9732
1	36711	341.086347953716	9733
1	36714	341.09353998084	9734
1	36717	341.100731269108	9735
1	36720	341.107921818671	9736
1	36727	341.133962253287	9740
1	36733	341.223327280787	9752
1	36738	341.235813275082	9754
1	36743	341.258630928659	9757
1	36749	341.279055793279	9759
1	36752	341.286228659351	9760
1	36757	341.293400790499	9761
1	36766	341.461715496563	9671
1	36769	341.468953631192	9655
1	36776	341.488635581729	9612
1	36781	341.5	9588
1	36799	342	9064
1	36832	342.5	9128
1	36936	343	9192
1	36968	343.5	9256
1	36982	344	9320
1	37062	344.5	9384
1	37103	345	9448
1	37133	345.5	9512
1	37154	346	9576
1	37275	346.5	9558
1	37291	347	9120
1	37323	347.5	8982
1	37428	348	8973
1	37451	348.5	8964
1	37480	349	8955
1	37520	349.5	8874
1	37664	350	8692
1	37687	350.5	9336
1	37718	351	9065
1	37837	351.5	9155
1	37871	352	9245
1	37906	352.5	9334
1	38035	353	9424
1	38091	353.5	9514
1	38106	354	9603
1	38127	354.5	9693
1	38221	355	9220
1	38246	355.5	8409
1	38270	356	8461
1	38367	356.5	9113
1	38382	357	9765
1	38413	357.5	9803
1	38441	358	9526
1	38563	358.5	8619
1	38586	359	8723
1	38601	359.5	8828
1	38694	360	8932
1	38724	360.5	9037
1	38768	361	9141
1	38926	361.5	9245
1	39002	362	9350
1	39034	362.5	9336
1	39064	363	9278
1	39185	363.5	9219
1	39204	364	9161
1	39229	364.5	9103
1	39325	365	9044
1	39349	365.5	8986
1	39386	366	8927
1	39415	366.5	8869
1	39564	367	8811
1	39584	367.5	9760
1	39602	368	9838
1	39603	368.007203869507	9839
1	39604	368.014318413668	9840
1	39607	368.021432234806	9841
1	39610	368.028545333068	9842
1	39613	368.035657708601	9844
1	39616	368.042768639117	9845
1	39619	368.049878847345	9846
1	39622	368.056988333431	9847
1	39627	368.064097097522	9848
1	39630	368.071205139764	9849
1	39633	368.078312460304	9850
1	39636	368.085419059289	9851
1	39641	368.092524936865	9852
1	39644	368.099630093178	9853
1	39651	368.12231860408	9857
1	39656	368.197877315833	9869
1	39663	368.249441698045	9844
1	39668	368.286099931265	9791
1	39674	368.301650354056	9769
1	39679	368.355676519093	9692
1	39684	368.444247739117	9565
1	39691	368.486005514445	9505
1	39696	368.5	9485
1	39736	369	9052
1	39766	369.5	9476
1	39895	370	9723
1	39967	370.5	9635
1	39991	371	9546
1	40017	371.5	9458
1	40128	372	9370
1	40154	372.5	9281
1	40174	373	9193
1	40283	373.5	9104
1	40312	374	9016
1	40336	374.5	8928
1	40448	375	8839
1	40535	375.5	8751
1	40563	376	8663
1	40588	376.5	8940
1	40687	377	9062
1	40709	377.5	9072
1	40741	378	9081
1	40890	378.5	9247
1	40933	379	9500
1	40959	379.5	9304
1	41097	380	9002
1	41149	380.5	8983
1	41171	381	9013
1	41198	381.5	9044
1	41306	382	9075
1	41318	382.5	9106
1	41334	383	9137
1	41391	383.5	9168
1	41415	384	9198
1	41445	384.5	9229
1	41470	385	9260
1	41609	385.5	9291
1	41634	386	9322
1	41658	386.5	9352
1	41758	387	9383
1	41779	387.5	9414
1	41806	388	9445
1	41807	388.007212033794	9445
1	41808	388.014623362539	9446
1	41811	388.022033906685	9446
1	41814	388.029444450831	9447
1	41817	388.036854210543	9447
1	41821	388.044263970255	9448
1	41824	388.0516729457	9448
1	41827	388.059081921145	9449
1	41830	388.066490112488	9449
1	41833	388.073898303831	9449
1	41836	388.081306495174	9450
1	41839	388.088713902581	9450
1	41842	388.096121309988	9451
1	41845	388.103527933626	9451
1	41848	388.110934557264	9452
1	41853	388.118340397298	9452
1	41856	388.125746237332	9453
1	41861	388.133151293928	9453
1	41864	388.140556350524	9454
1	41867	388.147960623847	9454
1	41874	388.184597603955	9456
1	41879	388.277851111334	9462
1	41884	388.314506509802	9464
1	41889	388.359267335205	9467
1	41895	388.441047803906	9472
1	41900	388.477943707749	9474
1	41906	388.5	9476
1	41909	388.532251240974	9478
1	41914	388.543918685525	9478
1	41919	388.553432236105	9479
1	41924	388.581049684038	9481
1	41929	388.593449282898	9482
1	41935	388.636929317087	9484
1	41941	388.738061316343	9490
1	41946	388.787517102597	9493
1	41952	388.808063200404	9495
1	41957	388.868839814838	9498
1	41963	388.898517609506	9500
1	41970	388.967484090355	9505
1	41975	388.99229208401	9506
1	41980	389	9507
1	42005	389.5	9534
1	42035	390	9556
1	42036	390.007376962799	9556
1	42037	390.014702203485	9557
1	42040	390.022026677692	9557
1	42043	390.029351151899	9557
1	42046	390.036675626106	9558
1	42049	390.043999333995	9558
1	42052	390.051323041884	9558
1	42055	390.058646749773	9559
1	42058	390.065969691503	9559
1	42061	390.073292633233	9559
1	42064	390.080615574963	9560
1	42067	390.087937750695	9560
1	42070	390.095259926427	9560
1	42073	390.102582102159	9561
1	42076	390.109903512053	9561
1	42079	390.117224921947	9561
1	42083	390.124546331841	9562
1	42086	390.131866976058	9562
1	42089	390.139187620275	9562
1	42092	390.146508264492	9563
1	42095	390.153828143191	9563
1	42102	390.177190540726	9564
1	42107	390.214429380556	9566
1	42112	390.294096231479	9569
1	42117	390.321020396483	9570
1	42122	390.369055221971	9572
1	42125	390.37636821821	9573
1	42132	390.458364988429	9576
1	42138	390.490780782635	9578
1	42143	390.5	9578
1	42162	391	9601
1	42189	391.5	9623
1	42300	392	9645
1	42337	392.5	9667
1	42338	392.5	9667
1	42367	393	9690
1	42368	393	9690
1	42401	393.5	9712
1	42404	393.507340604027	9712
1	42405	393.514548182281	9712
1	42408	393.521755760535	9713
1	42411	393.528962596734	9713
1	42414	393.536169432933	9713
1	42417	393.543376269132	9714
1	42420	393.550582363429	9714
1	42423	393.557788457726	9714
1	42426	393.564994552023	9715
[...]
22	28218	263.29113343546	2.440711567166
22	28629	265.731845002626	2.1600330872233
22	28831	267.891878089849	0.40166750676129
22	28845	268.29354559661	3.7625784364593
22	29143	272.056124033069	2.01154911814
22	29444	274.067673151209	0.49371199004339
22	29516	274.561385141252	0.60495919367035
22	29588	275.166344334922	0.55617086799599
22	29650	275.722515202918	0.041557998017274
22	29668	275.764073200935	0.34921255118441
22	29707	276.113285752119	1.7561371866686
22	29902	277.869422938788	1.6063656153841
22	29999	279.475788554172	0.3897450555697
22	30026	279.865533609742	2.358377995699
22	30309	282.223911605441	0.74263450538362
22	30399	282.966546110825	2.3355072378078
22	30643	285.302053348633	0.4365032620464
22	30749	285.738556610679	2.7438282430602
22	30990	288.482384853739	0.4349718264056
22	31007	288.917356680145	0.78528501411604
22	31125	289.702641694261	1.1612261493072
22	31226	290.863867843568	0.2349698493648
22	31256	291.098837692933	0.26988226514647
22	31288	291.368719958079	5.6759698809259
22	31876	297.044689839005	1.7035157868714
22	32023	298.748205625876	2.3796595963716
22	32290	301.127865222248	2.1561386156505
22	32495	303.284003837898	0.95256467338983
22	32548	304.236568511288	0.95838639767766
22	32739	305.194954908966	3.066711810683
22	33078	308.261666719649	0.52076410340507
22	33155	308.782430823054	1.3202918609578
22	33314	310.102722684012	1.0714087109999
22	33452	311.174131395012	0.57011273901757
22	33503	311.74424413403	3.6408858706895
22	33869	315.38513000472	1.0158600024636
22	34018	316.400990007184	2.53874163406
22	34237	318.939731641244	3.438702527906
22	34542	322.37843416915	1.6874174491752
22	34833	324.065851618325	2.550560421597
22	35158	326.616412039922	0.10196501539871
22	35165	326.718377055321	0.021135659556045
22	35168	326.739512714877	4.5071482336868
22	35705	331.246660948564	0.31617951457083
22	35725	331.562840463135	0.40791818333312
22	35743	331.970758646468	1.1947249345392
22	35894	333.165483581007	0.57392226714717
22	35953	333.739405848154	0.83519609368044
22	36039	334.574601941834	0.74348422087448
22	36088	335.318086162708	1.619468853425
22	36259	336.937555016133	0.058196040233825
22	36266	336.995751056367	8.6514258261669
22	37143	345.647176882534	8.4757869249944
22	38113	354.122963807528	1.0795799262797
22	38228	355.202543733808	0.48129154552561
22	38254	355.683835279334	1.6654924059519
22	38404	357.349327685286	0.93731772129801
22	38529	358.286645406584	4.9437864312747
22	39153	363.230431837859	1.0235284075902
22	39218	364.253960245449	1.5663133383537
22	39370	365.820273583803	3.8235655942849
22	39831	369.643839178088	5.5309620177218
22	40480	375.17480119581	0.071606510493639
22	40496	375.246407706304	1.6852045490939
22	40685	376.931612255398	2.9527022124677
22	41090	379.884314467866	0.53033542695495
22	41141	380.414649894821	0.81194578349414
22	41184	381.226595678315	4.1152070627947
22	41587	385.34180274111	0.33133236324526
22	41615	385.673135104355	3.3579709823507
22	41981	389.031106086706	2.142814696217
22	42170	391.173920782923	4.7353955880445
22	42778	395.909316370968	0.83959447623356
22	42909	396.748910847202	6.6989894188138
23	1343	12.816289886563	1.1156456673606
23	1415	13.931935553924	2.9972174468076
23	1782	16.929153000732	3.4619079589
23	2163	20.391060959632	1.3983798019308
23	2288	21.789440761563	2.4520415148137
23	2546	24.241482276377	2.870381052346
23	2945	27.111863328723	1.7049541577859
23	3085	28.816817486509	2.6075752472146
23	3224	31.424392733724	2.9176291096681
23	3741	34.342021843392	0.085392722716967
23	3742	34.427414566109	2.0826550453429
23	3938	36.510069611452	2.0647612581499
23	4159	38.574830869602	6.9022824762708
23	4919	45.477113345873	2.6396840020551
23	5091	48.116797347928	1.3438134009302
23	5318	49.460610748858	0.56422498577552
23	5358	50.024835734634	0.41313131418718
23	5441	50.437967048821	0.4784629692644
23	5505	50.916430018085	0.19499692970905
23	5514	51.111426947794	0.38502596049309
23	5558	51.496452908287	4.2403662647574
23	6042	55.736819173044	1.9524654428623
23	6226	57.689284615906	0.036877988317754
23	6228	57.726162604224	0.032482892600327
23	6229	57.758645496824	0.062134202692537
23	6230	57.820779699517	5.4678356409686
23	6827	63.288615340486	0.46398980475238
23	6861	63.752605145238	2.806319185498
23	7174	66.558924330736	3.7738377579891
23	7611	70.332762088725	1.1760287698041
23	7698	71.508790858529	0.016968509258035
23	7707	71.525759367787	0.36032891189518
23	7821	71.886088279682	5.6418946182346
23	8425	77.527982897917	1.0820070142072
23	8552	78.609989912124	2.2638304912623
23	8770	80.873820403386	3.3858472534381
23	9228	84.259667656824	0.46082399978017
23	9250	84.720491656604	1.0525542597689
23	9377	85.773045916373	0.088173462836073
23	9382	85.861219379209	0.62990856248766
23	9465	86.491127941697	1.1421552215011
23	9597	87.633283163198	2.4965969295231
23	9793	90.129880092721	1.9688391786607
23	10053	92.098719271382	0.39278374437637
23	10107	92.491503015758	3.043398367673
23	10380	95.534901383431	0.50489400649916
23	10466	96.03979538993	0.25575718203214
23	10485	96.295552571962	0.58878032799738
23	10519	96.884332899959	0.268849610301
23	10587	97.15318251026	0.99178949898014
23	10673	98.14497200924	0.70341105907372
23	10702	98.848383068314	0.44353673315952
23	10802	99.291919801474	2.5312341792648
23	11059	101.823153980739	1.4618020697894
23	11249	103.284956050528	1.4447485468314
23	11395	104.729704597359	0.78238662595799
23	11447	105.512091223317	1.2723809123831
23	11650	106.7844721357	1.5202195402045
23	11728	108.304691675904	6.052801629209
23	12400	114.357493305113	1.1477789478299
23	12485	115.505272252943	1.7087284672017
23	12591	117.214000720145	1.0655176145649
23	12854	118.27951833471	0.52414720657858
23	12873	118.803665541289	4.72727476004
23	13379	123.530940301329	0.79163884221441
23	13405	124.322579143543	0.018990622254802
23	13406	124.341569765798	2.7372139362936
23	13569	127.078783702092	0.14441161843169
23	13578	127.223195320524	0.38789052710095
23	13634	127.611085847625	1.8533935621945
23	13950	129.464479409819	4.5345279623234
23	14397	133.999007372142	2.1081987459075
23	14646	136.10720611805	1.5459356291571
23	14798	137.653141747207	1.9953671025707
23	15047	139.648508849778	0.34936622092758
23	15060	139.997875070706	2.9904149555249
23	15342	142.988290026231	0.55928271597019
23	15369	143.547572742201	0.43331508309471
23	15393	143.980887825296	0.12972875536348
23	15441	144.110616580659	0.45104150588879
23	15577	144.561658086548	3.3552377385218
23	15921	147.91689582507	3.2508893740642
23	16202	151.167785199134	0.97196992460968
23	16254	152.139755123744	0.63067568293131
23	16377	152.770430806675	1.3678278725537
23	16503	154.138258679229	0.29052269648729
23	16511	154.428781375716	0.72825136865637
23	16675	155.157032744372	0.33462815921733
23	16710	155.491660903589	2.7581213992101
23	16950	158.249782302799	4.8612637269095
23	17443	163.111046029709	2.6995538931646
23	17723	165.810599922874	1.5675387604531
23	17909	167.378138683327	1.5171573487414
23	18080	168.895296032068	5.5046070183616
23	18544	174.39990305043	7.2891603206948
23	19519	181.689063371125	0.13593824026026
23	19523	181.825001611385	0.76335074724486
23	19566	182.58835235863	0.21202475589188
23	19575	182.800377114522	1.1422931978135
23	19790	183.942670312335	0.10480552141096
23	19793	184.047475833746	1.7167718541126
23	19933	185.764247687859	0.26703342698387
23	19951	186.031281114843	2.8745906431541
23	20260	188.905871757997	0.577455521967
23	20302	189.483327279964	2.4688033751762
23	20577	191.95213065514	0.98086676138064
23	20625	192.932997416521	0.91034217074837
23	20822	193.843339587269	0.62010033189945
23	20879	194.463439919168	0.70253618653646
23	20951	195.165976105704	2.1810645023221
23	21195	197.347040608026	2.9672549446088
23	21509	200.314295552635	1.575625351714
23	21669	201.889920904349	5.9753488597394
23	22371	207.865269764088	0.55667597449967
23	22485	208.421945738588	0.0071596781372453
23	22486	208.429105416725	0.25757845063641
23	22514	208.686683867361	2.4092643487456
23	22740	211.095948216107	0.29456498640113
23	22766	211.390513202508	0.81262187609968
23	22917	212.203135078608	0.21403077763006
23	22928	212.417165856238	1.1179508404184
23	23068	213.535116696656	0.65753814425046
23	23098	214.192654840906	0.39963898926503
23	23126	214.592293830171	0.67090804524745
23	23271	215.263201875418	1.7109181080052
23	23397	216.974119983423	0.81187015643258
23	23561	217.785990139856	1.180106366472
23	23666	218.966096506328	0.77834253800311
23	23712	219.744439044331	1.5933571101794
23	23916	221.33779615451	0.17335776594573
23	23942	221.511153920456	1.3101005239499
23	24008	222.821254444406	2.2218934371512
23	24243	225.043147881557	1.7868739630011
23	24491	226.830021844558	6.8232222776438
23	25111	233.653244122202	1.29934828234
23	25218	234.952592404542	2.2516990776166
23	25328	237.204291482159	0.76583529053333
23	25534	237.970126772692	2.7445589212259
23	25844	240.714685693918	1.401376215436
23	25944	242.116061909354	1.0029112685528
23	25992	243.118973177907	0.078216258333925
23	26003	243.197189436241	1.1727404836625
23	26077	244.369929919903	1.2688986766883
23	26154	245.638828596591	1.1678146011649
23	26515	246.806643197756	2.0746522665053
23	26756	248.881295464261	2.4422579449471
23	27007	251.323553409208	2.7996233841522
23	27284	254.12317679336	7.0992788753375
23	28111	261.222455668698	3.6318582619784
23	28473	264.854313930676	2.7516322457306
23	28810	267.605946176407	1.387086470904
23	28882	268.993032647311	0.00093716124287715
23	28883	268.993969808554	0.024248803280448
23	28890	269.018218611834	0.46408266372505
23	28993	269.482301275559	1.3040421470192
23	29073	270.786343422578	4.6690898530367
23	29627	275.455433275615	6.300077029643
23	30254	281.755510305258	2.0126384609198
23	30492	283.768148766178	0.029940050626971
23	30493	283.798088816805	0.78872648008502
23	30605	284.58681529689	0.49351986567575
23	30635	285.080335162566	2.5518157585301
23	30925	287.632150921096	0.47894933620524
23	30967	288.111100257301	1.2697927322475
23	31098	289.380892989549	1.1319825671142
23	31168	290.512875556663	1.3738849515456
23	31318	291.886760508209	0.86961490917418
23	31413	292.756375417383	0.97538560662643
23	31481	293.731761024009	0.15700382929268
23	31495	293.888764853302	5.7035857222727
23	32147	299.592350575575	3.9842417244993
23	32517	303.576592300074	2.3070748411462
23	32781	305.88366714122	0.25539551555331
23	32846	306.139062656773	0.8752446243438
23	32936	307.014307281117	1.1506527050952
23	33064	308.164959986212	0.18648226431889
23	33094	308.351442250531	0.65271475142365
23	33169	309.004157001955	0.38466861159124
23	33252	309.388825613546	1.2840537138598
23	33351	310.672879327406	4.4657113787524
23	33864	315.138590706158	1.0597696600482
23	33994	316.198360366206	1.1366375389689
23	34126	317.334997905175	1.7666041937973
23	34251	319.101602098972	8.9792967001633
23	35368	328.080898799135	1.0021142983444
23	35472	329.083013097479	0.25006967146897
23	35487	329.333082768948	0.84375327233601
23	35518	330.176836041284	0.91895378252271
23	35683	331.095789823807	0.031694048159055
23	35691	331.127483871966	1.9467025437684
23	35893	333.074186415734	4.8524021785655
23	36406	337.926588594299	0.216440405294
23	36417	338.143028999593	2.6274140914431
23	36666	340.770443091036	0.50649724480807
23	36747	341.276940335844	1.3330366702845
23	36873	342.609977006128	5.22120365196
23	37405	347.831180658088	2.0650514574702
23	37657	349.896232115558	0.80848868383421
23	37705	350.704720799392	0.48096918525538
23	37794	351.185689984647	2.8457498894404
23	38112	354.031439874087	1.4262609296267
23	38244	355.457700803714	2.0044434574247
23	38407	357.462144261139	0.34350707179376
23	38430	357.805651332933	1.3841252581751
23	38590	359.189776591108	4.8775155667561
23	39215	364.067292157864	2.259350699992
23	39405	366.326642857856	0.16869846698754
23	39414	366.495341324844	1.9589950995315
23	39688	368.454336424376	0.55560900762528
23	39740	369.009945432001	1.7277403794276
23	39981	370.737685811429	0.71030684458678
23	40016	371.447992656016	2.5477746759897
23	40310	373.995767332006	0.43999284012272
23	40331	374.435760172129	0.14913749610228
23	40371	374.584897668231	0.92720418196023
23	40539	375.512101850191	0.44845314948711
23	40559	375.960554999678	0.83584021117957
23	40679	376.796395210858	0.11511721539568
23	40683	376.911512426254	0.81204060176827
23	40725	377.723553028022	1.5366707151561
23	40944	379.260223743178	8.1813305503691
23	41771	387.441554293547	0.274360623832
23	41793	387.715914917379	0.32172600561863
23	41820	388.037640922998	0.83271876442963
23	41958	388.870359687428	5.1348997164327
23	42575	394.005259403861	1.4783957368259
23	42756	395.483655140687	6.0912867207993
24	2048	19.157218708739	4.3839442278578
24	2505	23.541162936597	1.1103302582972
24	2574	24.651493194894	8.1672178227013
24	3463	32.818711017595	1.0611944014282
24	3662	33.879905419023	0.75159472910279
24	3766	34.631500148126	6.3328358283617
24	4432	40.964335976488	1.5676552134877
24	4647	42.531991189976	1.6172932818458
24	4813	44.149284471822	7.600372186709
24	5594	51.749656658531	1.5092843594483
24	5725	53.258941017979	8.9325052385208
24	6686	62.1914462565	1.1437035807693
24	6834	63.335149837269	1.1080484341739
24	6913	64.443198271443	0.78218735471738
24	6957	65.22538562616	0.28333856395359
24	6965	65.508724190114	0.020043916886749
24	6972	65.528768107001	3.006446731538
24	7406	68.535214838539	3.901597399278
24	7861	72.436812237817	0.21547768330454
24	7880	72.652289921122	2.1692281718886
24	8098	74.821518093011	4.9709644120662
24	8633	79.792482505077	5.6643676102719
24	9361	85.456850115349	2.8252790032845
24	9631	88.282129118633	0.082518736424354
24	9636	88.364647855057	0.8031863126365
24	9744	89.167834167693	1.0057613999263
24	9799	90.173595567619	1.0705073098798
24	9975	91.244102877499	0.0030838470345357
24	9976	91.247186724534	3.8636943405601
24	10350	95.110881065094	0.56539859096201
24	10444	95.676279656056	2.7746158545087
24	10674	98.450895510565	2.653677285127
24	11012	101.104572795692	1.0423527900242
24	11138	102.146925585716	0.18376474915951
24	11169	102.330690334876	0.35667326188759
24	11212	102.687363596764	1.6371976585134
24	11352	104.324561255277	0.90976785905515
24	11435	105.234329114332	1.7787967388516
24	11660	107.013125853184	2.6460367469817
24	11956	109.659162600166	0.46649287040051
24	11981	110.125655470567	0.045957162270828
24	11984	110.171612632838	0.87147927089492
24	12106	111.043091903733	0.10994785495312
24	12112	111.153039758686	0.36011693374631
24	12131	111.513156692432	4.4729615721159
24	12523	115.986118264548	0.92811046430501
24	12568	116.914228728853	0.31195243914705
24	12592	117.226181168	4.6722042672702
24	13201	121.89838543527	0.088927443362884
24	13208	121.987312878633	1.1899130729154
24	13364	123.177225951548	1.4369742787314
24	13422	124.614200230279	0.58484865381325
24	13471	125.199048884092	0.37431171550528
24	13499	125.573360599597	0.99978529032611
24	13548	126.573145889923	0.20619369976117
24	13558	126.779339589684	1.373247002408
24	13867	128.152586592092	1.2480347256187
24	13946	129.400621317711	0.47549326721203
24	14001	129.876114584923	3.5269874393432
24	14363	133.403102024266	0.78625348970948
24	14410	134.189355513975	0.21064312376745
24	14413	134.399998637742	3.770401397929
24	14932	138.170400035671	2.2690272328052
24	15085	140.439427268476	1.1191225575231
24	15284	141.558549825999	0.21098343179651
24	15294	141.769533257796	2.5474794210237
24	15544	144.31701267882	4.7515900979277
24	16009	149.068602776748	1.7010635086389
24	16160	150.769666285387	0.57199175815161
24	16212	151.341658043539	3.6784896511766
24	16646	155.020147694716	0.069753311440892
24	16657	155.089901006157	14.577784375094
24	18171	169.667685381251	0.33179611028359
24	18206	169.999481491535	0.94873985663859
24	18246	170.948221348174	2.2746606106965
24	18471	173.222881958871	0.42688685032984
24	18491	173.649768809201	0.12620713251697
24	18498	173.775975941718	4.2278109532856
24	19148	178.003786895004	3.8634226831709
24	19526	181.867209578175	0.93892006431866
24	19576	182.806129642494	0.68325521837817
24	19735	183.489384860872	1.6878315678711
24	19904	185.177216428743	0.026111098092842
24	19905	185.203327526836	1.1828718239782
24	19983	186.386199350814	2.0243008985026
24	20177	188.410500249317	1.4248006741863
24	20318	189.835300923503	0.76340122387088
24	20367	190.598702147374	1.1943108404189
24	20562	191.793012987793	1.1632239017044
24	20628	192.956236889497	0.29992328961226
24	20656	193.256160179109	1.6094090918737
24	20923	194.865569270983	3.6886456372951
24	21281	198.554214908278	1.1040117423465
24	21405	199.658226650625	3.7169795200772
24	21848	203.375206170702	0.61451719207303
24	21890	203.989723362775	0.13211957171486
24	21904	204.12184293449	1.7171935018585
24	22108	205.839036436349	3.8067060613623
24	22588	209.645742497711	2.7998685325513
24	22929	212.445611030262	3.6180439667051
24	23363	216.063654996967	3.2112007034283
24	23681	219.274855700395	0.48827769744425
24	23717	219.763133397839	2.8782216701007
24	24004	222.64135506794	1.8776394405333
24	24219	224.518994508473	1.2410488694648
24	24383	225.760043377938	0.98823631056273
24	24485	226.748279688501	0.71587064691961
24	24511	227.464150335421	1.7342904267747
24	24692	229.198440762196	1.456918939743
24	24818	230.655359701939	5.1599085288818
24	25270	235.815268230821	9.5760548194898
24	26140	245.391323050311	1.3218190334505
24	26500	246.713142083761	0.53745902894686
24	26610	247.250601112708	3.2060433098188
24	26862	250.456644422527	0.52103688676222
24	26988	250.977681309289	2.2469225801695
24	27209	253.224603889458	3.86954648309
24	27671	257.094150372548	1.4245788651638
24	27874	258.518729237712	0.99093683560383
24	27945	259.509666073316	1.3914561634973
24	28092	260.901122236813	2.1153964978391
24	28205	263.016518734652	1.24083054051
24	28431	264.257349275162	1.1268288338793
24	28515	265.384178109041	0.68128924045728
24	28663	266.065467349498	0.32297564454391
24	28689	266.388442994042	3.5650078191087
24	29021	269.953450813151	0.35421338798964
24	29039	270.307664201141	1.1156057405035
24	29102	271.423269941645	0.51774403657141
24	29121	271.941013978216	4.6317481536873
24	29733	276.572762131903	1.8295840832134
24	29937	278.402346215116	0.15167538982112
24	29950	278.554021604937	4.8682179129368
24	30449	283.422239517874	0.48559139551404
24	30512	283.907830913388	1.0683081024983
24	30621	284.976139015886	5.044229997303
24	31142	290.020369013189	6.1215365191254
24	31778	296.141905532314	0.68499679290709
24	31861	296.826902325221	0.91752074124615
24	31962	297.744423066467	1.5172870134111
24	32128	299.261710079878	0.91869959201365
24	32195	300.180409671892	3.6980880969511
24	32532	303.878497768843	1.6166802196077
24	32749	305.495177988451	1.8463551599642
24	32950	307.341533148415	2.9186160065138
24	33321	310.260149154929	1.1603661433922
24	33486	311.420515298321	2.9228440340692
24	33793	314.34335933239	10.505990162126
24	34969	324.849349494516	0.83579307732202
24	35085	325.685142571838	3.1181934663674
24	35451	328.803336038205	2.9634039670529
24	35739	331.766740005258	1.6471117961027
24	35918	333.413851801361	1.3139510217993
24	36046	334.72780282316	1.0231658344268
24	36107	335.750968657587	0.91373604798911
24	36251	336.664704705576	2.1339206610089
24	36443	338.798625366585	0.90744645147186
24	36591	339.706071818057	0.51058925138393
24	36637	340.216661069441	2.984868069099
24	36953	343.20152913854	5.178830005569
24	37445	348.380359144109	4.7900319283544
24	38052	353.170391072463	0.22043098645467
24	38084	353.390822058918	7.1534941936363
24	38734	360.544316252554	1.4736361898255
24	39003	362.017952442379	0.17628611665783
24	39022	362.194238559037	1.8364982686395
24	39210	364.030736827676	2.2103056545819
24	39400	366.241042482258	0.45401691889409
24	39505	366.695059401152	13.610814655659
24	41135	380.305874056811	8.1778892323085
24	41902	388.483763289119	0.42566884452991
24	41967	388.909432133649	1.2118466215092
24	42082	390.121278755158	0.35898185310681
24	42136	390.480260608265	7.6438395351774
24	43041	398.124100143442	5.3981850138071

