file 2001377 1613479553                                         
version 2
run Exponential-capacity-21-20210216-13:45:53-24388
attr configname Exponential-capacity
attr datetime 20210216-13:45:53
attr experiment Exponential-capacity
attr inifile aerocom.ini
attr iterationvars "$0=0.5, $1=50, $2=4, $3=4"
attr iterationvarsf 0.5,50,4,4-
attr measurement "$0=0.5, $1=50, $2=4, $3=4"
attr network Aerocom
attr processid 24388
attr repetition 0
attr replication #0
attr resultdir results
attr runnumber 21
attr seedset 0
param **.t 0.5s
param **.k 50ms
param **.X 4s
param **.m 4s
param **.tDistribution "\"exponential\""
param **.operationMode 0
param **.s "70 byte"
param **.dimPoolMax 10000
param **.dimPoolMin 8000
param **.nDL 10
param **.nA 1
param **.DLMaxCapacity 0
param **.trasmitting false

vector 0 Aerocom.aircraft[0].packetGenerator arrivalTime:vector ETV
attr "" ""
attr source computeArrivalTime
vector 1 Aerocom.aircraft[0].linkSelector waitingTime:vector ETV
attr "" ""
attr source computeWaitingTime
vector 2 Aerocom.aircraft[0].linkSelector queueLength:vector ETV
attr "" ""
attr source computeQueueLength
vector 3 Aerocom.aircraft[0].dataLink[4] actualCapacity:vector ETV
attr "" ""
attr source computeActualCapacity
vector 4 Aerocom.aircraft[0].linkSelector serviceTime:vector ETV
attr "" ""
attr source computeServiceTime
vector 5 Aerocom.aircraft[0].linkSelector responseTime:vector ETV
attr "" ""
attr source computeResponseTime
vector 6 Aerocom.aircraft[0].dataLink[0] tDistribution:vector ETV
attr "" ""
attr source computeTDistribution
vector 7 Aerocom.aircraft[0].dataLink[3] tDistribution:vector ETV
attr "" ""
attr source computeTDistribution
vector 8 Aerocom.aircraft[0].dataLink[7] tDistribution:vector ETV
attr "" ""
attr source computeTDistribution
vector 9 Aerocom.aircraft[0].dataLink[2] tDistribution:vector ETV
attr "" ""
attr source computeTDistribution
vector 10 Aerocom.aircraft[0].dataLink[9] tDistribution:vector ETV
attr "" ""
attr source computeTDistribution
vector 11 Aerocom.aircraft[0].dataLink[5] tDistribution:vector ETV
attr "" ""
attr source computeTDistribution
vector 12 Aerocom.aircraft[0].dataLink[6] tDistribution:vector ETV
attr "" ""
attr source computeTDistribution
vector 13 Aerocom.aircraft[0].dataLink[1] tDistribution:vector ETV
attr "" ""
attr source computeTDistribution
vector 14 Aerocom.aircraft[0].dataLink[8] tDistribution:vector ETV
attr "" ""
attr source computeTDistribution
vector 15 Aerocom.aircraft[0].dataLink[4] tDistribution:vector ETV
attr "" ""
attr source computeTDistribution
vector 16 Aerocom.aircraft[0].dataLink[0] actualCapacity:vector ETV
attr "" ""
attr source computeActualCapacity
vector 17 Aerocom.aircraft[0].dataLink[1] actualCapacity:vector ETV
attr "" ""
attr source computeActualCapacity
vector 18 Aerocom.aircraft[0].dataLink[2] actualCapacity:vector ETV
attr "" ""
attr source computeActualCapacity
vector 19 Aerocom.aircraft[0].dataLink[3] actualCapacity:vector ETV
attr "" ""
attr source computeActualCapacity
vector 20 Aerocom.aircraft[0].dataLink[5] actualCapacity:vector ETV
attr "" ""
attr source computeActualCapacity
vector 21 Aerocom.aircraft[0].dataLink[6] actualCapacity:vector ETV
attr "" ""
attr source computeActualCapacity
vector 22 Aerocom.aircraft[0].dataLink[7] actualCapacity:vector ETV
attr "" ""
attr source computeActualCapacity
vector 23 Aerocom.aircraft[0].dataLink[8] actualCapacity:vector ETV
attr "" ""
attr source computeActualCapacity
vector 24 Aerocom.aircraft[0].dataLink[9] actualCapacity:vector ETV
attr "" ""
attr source computeActualCapacity
0	3614 310359 1200 48708 10.005245567619 399.990973989844 7687 2.767595e-006 0.511624106208 390.00681941603 39.585679544771
1	313973 226509 1201 48709 10.005245567619 399.990973989844 7687 0 0.021127308278 5.350645711414 0.036295241612894
2	540482 211247 1201 48709 10.005245567619 399.990973989844 7687 0 2 107 127
3	751729 22350 1201 48713 10.005245567619 400 773 8053 9965 6942209 62600894473
4	774079 340904 1201 48709 10.005245567619 399.990973989844 7687 0.0070035017508754 0.0087434424181864 59.474052101168 0.46159651499545
5	1114983 310281 1202 48710 10.013937980384 399.998537469044 7687 0.007003501751 0.029525628614 64.824697812525 0.58098801778659
6	1425264 33419 1205 48704 10.042820177235 399.967497856534 788 0.00062020026830132 2.9799121312984 390.37915609227 381.96671869248
7	1458683 35064 1211 48661 10.062091937059 399.519600555502 827 0.00036199919213032 3.6981388542622 390.50754970754 370.17857299301
8	1493747 35493 1217 48603 10.100728150422 399.263459716624 836 0.00019418306873277 2.7142132760003 391.25474958391 368.06052080671
9	1529240 32307 1223 48691 10.171203108278 399.905483447295 762 0.00045111153041332 3.1786045526238 390.53559259343 392.23059181944
10	1561547 32989 1226 48589 10.192621587094 399.068006015217 760 0.00027665290109629 3.2522337397256 390.66987786196 387.16390925616
11	1594536 30307 1230 48690 10.199131011911 399.90237018197 700 0.0011978778005887 3.7747751881069 390.40676740378 417.98564983781
12	1624843 32523 1236 48672 10.241083994123 399.706936420127 749 0.00040164675543452 3.6444460937736 390.19670470527 429.01833469629
13	1657366 35012 1244 48651 10.398736202718 399.465438120764 805 0.00056323607031456 3.3069891392411 390.05446963084 378.77187713309
14	1692378 35399 1268 48551 10.548171519696 398.804411642983 813 6.1795907249355e-005 3.8756011976659 390.15883067755 392.65495195696
15	1727777 36506 1342 48582 11.369278336466 398.993347524372 841 0.00023429031071929 3.194958277539 389.73593214821 360.44654827189
16	1764283 18391 1406 48713 12 400 624 8023 9930 5648484 51285952570
17	1782674 26058 1406 48713 12 400 868 8057 9995 7883218 71763697884
18	1808732 27157 1406 48713 12 400 920 8009 9968 8439946 77652930372
19	1835889 27287 1406 48713 12 400 906 8066 9949 8192222 74304811032
20	1863176 32611 1406 48713 12 400 1076 8018 9931 9764593 88866476273
21	1895787 28985 1406 48713 12 400 961 8028 9989 8744046 79736121900
22	1924772 34239 1406 48713 12 400 1124 8043 9980 10171609 92348013923
23	1959011 17152 1406 48713 12 400 579 8049 9981 5166448 46259115940
24	1976163 25212 1406 48713 12 400 836 8006 9897 7638258 70000920908

