file 2009395 1613479548                                         
version 2
run Exponential-capacity-15-20210216-13:45:47-19796
attr configname Exponential-capacity
attr datetime 20210216-13:45:47
attr experiment Exponential-capacity
attr inifile aerocom.ini
attr iterationvars "$0=0.5, $1=50, $2=0.5, $3=4"
attr iterationvarsf 0.5,50,0.5,4-
attr measurement "$0=0.5, $1=50, $2=0.5, $3=4"
attr network Aerocom
attr processid 19796
attr repetition 0
attr replication #0
attr resultdir results
attr runnumber 15
attr seedset 0
param **.t 0.5s
param **.k 50ms
param **.X 0.5s
param **.m 4s
param **.tDistribution "\"exponential\""
param **.operationMode 0
param **.s "70 byte"
param **.dimPoolMax 10000
param **.dimPoolMin 8000
param **.nDL 10
param **.nA 1
param **.DLMaxCapacity 0
param **.trasmitting false

vector 0 Aerocom.aircraft[0].packetGenerator arrivalTime:vector ETV
attr "" ""
attr source computeArrivalTime
vector 1 Aerocom.aircraft[0].linkSelector waitingTime:vector ETV
attr "" ""
attr source computeWaitingTime
vector 2 Aerocom.aircraft[0].linkSelector queueLength:vector ETV
attr "" ""
attr source computeQueueLength
vector 3 Aerocom.aircraft[0].dataLink[4] actualCapacity:vector ETV
attr "" ""
attr source computeActualCapacity
vector 4 Aerocom.aircraft[0].linkSelector serviceTime:vector ETV
attr "" ""
attr source computeServiceTime
vector 5 Aerocom.aircraft[0].linkSelector responseTime:vector ETV
attr "" ""
attr source computeResponseTime
vector 6 Aerocom.aircraft[0].dataLink[0] tDistribution:vector ETV
attr "" ""
attr source computeTDistribution
vector 7 Aerocom.aircraft[0].dataLink[3] tDistribution:vector ETV
attr "" ""
attr source computeTDistribution
vector 8 Aerocom.aircraft[0].dataLink[7] tDistribution:vector ETV
attr "" ""
attr source computeTDistribution
vector 9 Aerocom.aircraft[0].dataLink[2] tDistribution:vector ETV
attr "" ""
attr source computeTDistribution
vector 10 Aerocom.aircraft[0].dataLink[9] tDistribution:vector ETV
attr "" ""
attr source computeTDistribution
vector 11 Aerocom.aircraft[0].dataLink[5] tDistribution:vector ETV
attr "" ""
attr source computeTDistribution
vector 12 Aerocom.aircraft[0].dataLink[6] tDistribution:vector ETV
attr "" ""
attr source computeTDistribution
vector 13 Aerocom.aircraft[0].dataLink[1] tDistribution:vector ETV
attr "" ""
attr source computeTDistribution
vector 14 Aerocom.aircraft[0].dataLink[8] tDistribution:vector ETV
attr "" ""
attr source computeTDistribution
vector 15 Aerocom.aircraft[0].dataLink[4] tDistribution:vector ETV
attr "" ""
attr source computeTDistribution
vector 16 Aerocom.aircraft[0].dataLink[0] actualCapacity:vector ETV
attr "" ""
attr source computeActualCapacity
vector 17 Aerocom.aircraft[0].dataLink[1] actualCapacity:vector ETV
attr "" ""
attr source computeActualCapacity
vector 18 Aerocom.aircraft[0].dataLink[2] actualCapacity:vector ETV
attr "" ""
attr source computeActualCapacity
vector 19 Aerocom.aircraft[0].dataLink[3] actualCapacity:vector ETV
attr "" ""
attr source computeActualCapacity
vector 20 Aerocom.aircraft[0].dataLink[5] actualCapacity:vector ETV
attr "" ""
attr source computeActualCapacity
vector 21 Aerocom.aircraft[0].dataLink[6] actualCapacity:vector ETV
attr "" ""
attr source computeActualCapacity
vector 22 Aerocom.aircraft[0].dataLink[7] actualCapacity:vector ETV
attr "" ""
attr source computeActualCapacity
vector 23 Aerocom.aircraft[0].dataLink[8] actualCapacity:vector ETV
attr "" ""
attr source computeActualCapacity
vector 24 Aerocom.aircraft[0].dataLink[9] actualCapacity:vector ETV
attr "" ""
attr source computeActualCapacity
0	3622 310367 1201 48709 10.005245567619 399.990973989844 7687 2.767595e-006 0.511624106208 390.00681941603 39.585679544771
1	313989 236752 1202 48710 10.005245567619 399.990973989844 7687 0 0.506802238603 251.35033934267 82.165212716881
2	550741 210583 1202 48710 10.005245567619 399.990973989844 7687 0 16 4782 35326
3	761324 22275 1202 48714 10.005245567619 400 773 8053 9977 6931147 62393309431
4	783599 340125 1202 48710 10.005245567619 399.990973989844 7687 0.0070035017508754 0.0087434424181864 59.599260430253 0.46349233158739
5	1123724 310251 1203 48711 10.013937980384 399.998537469044 7687 0.007003501751 0.514731554416 310.94959977287 86.412819534071
6	1433975 33420 1206 48705 10.042820177235 399.967497856534 788 0.00062020026830132 2.9799121312984 390.37915609227 381.96671869248
7	1467395 35065 1212 48662 10.062091937059 399.519600555502 827 0.00036199919213032 3.6981388542622 390.50754970754 370.17857299301
8	1502460 35495 1218 48604 10.100728150422 399.263459716624 836 0.00019418306873277 2.7142132760003 391.25474958391 368.06052080671
9	1537955 32308 1224 48692 10.171203108278 399.905483447295 762 0.00045111153041332 3.1786045526238 390.53559259343 392.23059181944
10	1570263 32990 1227 48590 10.192621587094 399.068006015217 760 0.00027665290109629 3.2522337397256 390.66987786196 387.16390925616
11	1603253 30309 1231 48691 10.199131011911 399.90237018197 700 0.0011978778005887 3.7747751881069 390.40676740378 417.98564983781
12	1633562 32523 1237 48673 10.241083994123 399.706936420127 749 0.00040164675543452 3.6444460937736 390.19670470527 429.01833469629
13	1666085 35012 1245 48652 10.398736202718 399.465438120764 805 0.00056323607031456 3.3069891392411 390.05446963084 378.77187713309
14	1701097 35401 1269 48552 10.548171519696 398.804411642983 813 6.1795907249355e-005 3.8756011976659 390.15883067755 392.65495195696
15	1736498 36506 1343 48583 11.369278336466 398.993347524372 841 0.00023429031071929 3.194958277539 389.73593214821 360.44654827189
16	1773004 18317 1407 48714 12 400 624 8023 9930 5629562 50930021362
17	1791321 25974 1407 48714 12 400 868 8057 9995 7875361 71622280585
18	1817295 27063 1407 48714 12 400 920 8009 9968 8417166 77232357132
19	1844358 27215 1407 48714 12 400 906 8066 9949 8181506 74106575276
20	1871573 32524 1407 48714 12 400 1076 8018 9923 9746993 88549314303
21	1904097 28901 1407 48714 12 400 961 8028 9989 8727635 79433003355
22	1932998 34109 1407 48714 12 400 1124 8043 9980 10145552 91857939320
23	1967107 17122 1407 48714 12 400 579 8049 9981 5162803 46192726187
24	1984229 25164 1407 48714 12 400 836 8006 9897 7619860 69653980116

