version 2
run Exponential-capacity-15-20210217-10:20:41-2176
attr configname Exponential-capacity
attr datetime 20210217-10:20:41
attr experiment Exponential-capacity
attr inifile aerocom.ini
attr iterationvars "$0=60, $1=3.5"
attr iterationvarsf 60,3.5-
attr measurement "$0=60, $1=3.5"
attr network Aerocom
attr processid 2176
attr repetition 0
attr replication #0
attr resultdir results
attr runnumber 15
attr seedset 0
param **.t 3s
param **.k 60ms
param **.X 0.5s
param **.m 3.5s
param **.tDistribution "\"exponential\""
param **.operationMode 0
param **.s "70 byte"
param **.dimPoolMax 10000
param **.dimPoolMin 8000
param **.nDL 10
param **.nA 1
param **.DLMaxCapacity 0
param **.trasmitting false

vector 0 Aerocom.aircraft[0].packetGenerator arrivalTime:vector ETV
attr "" ""
attr source computeArrivalTime
vector 1 Aerocom.aircraft[0].linkSelector waitingTime:vector ETV
attr "" ""
attr source computeWaitingTime
vector 2 Aerocom.aircraft[0].linkSelector queueLength:vector ETV
attr "" ""
attr source computeQueueLength
vector 3 Aerocom.aircraft[0].dataLink[1] actualCapacity:vector ETV
attr "" ""
attr source computeActualCapacity
vector 4 Aerocom.aircraft[0].linkSelector serviceTime:vector ETV
attr "" ""
attr source computeServiceTime
vector 5 Aerocom.aircraft[0].linkSelector responseTime:vector ETV
attr "" ""
attr source computeResponseTime
vector 6 Aerocom.aircraft[0].dataLink[4] tDistribution:vector ETV
attr "" ""
attr source computeTDistribution
vector 7 Aerocom.aircraft[0].dataLink[6] tDistribution:vector ETV
attr "" ""
attr source computeTDistribution
vector 8 Aerocom.aircraft[0].dataLink[1] tDistribution:vector ETV
attr "" ""
attr source computeTDistribution
vector 9 Aerocom.aircraft[0].dataLink[0] actualCapacity:vector ETV
attr "" ""
attr source computeActualCapacity
vector 10 Aerocom.aircraft[0].dataLink[2] actualCapacity:vector ETV
attr "" ""
attr source computeActualCapacity
vector 11 Aerocom.aircraft[0].dataLink[3] actualCapacity:vector ETV
attr "" ""
attr source computeActualCapacity
vector 12 Aerocom.aircraft[0].dataLink[4] actualCapacity:vector ETV
attr "" ""
attr source computeActualCapacity
vector 13 Aerocom.aircraft[0].dataLink[5] actualCapacity:vector ETV
attr "" ""
attr source computeActualCapacity
vector 14 Aerocom.aircraft[0].dataLink[6] actualCapacity:vector ETV
attr "" ""
attr source computeActualCapacity
vector 15 Aerocom.aircraft[0].dataLink[7] actualCapacity:vector ETV
attr "" ""
attr source computeActualCapacity
vector 16 Aerocom.aircraft[0].dataLink[8] actualCapacity:vector ETV
attr "" ""
attr source computeActualCapacity
vector 17 Aerocom.aircraft[0].dataLink[9] actualCapacity:vector ETV
attr "" ""
attr source computeActualCapacity
vector 18 Aerocom.aircraft[0].dataLink[5] tDistribution:vector ETV
attr "" ""
attr source computeTDistribution
vector 19 Aerocom.aircraft[0].dataLink[8] tDistribution:vector ETV
attr "" ""
attr source computeTDistribution
vector 20 Aerocom.aircraft[0].dataLink[0] tDistribution:vector ETV
attr "" ""
attr source computeTDistribution
vector 21 Aerocom.aircraft[0].dataLink[2] tDistribution:vector ETV
attr "" ""
attr source computeTDistribution
vector 22 Aerocom.aircraft[0].dataLink[7] tDistribution:vector ETV
attr "" ""
attr source computeTDistribution
vector 23 Aerocom.aircraft[0].dataLink[9] tDistribution:vector ETV
attr "" ""
attr source computeTDistribution
vector 24 Aerocom.aircraft[0].dataLink[3] tDistribution:vector ETV
attr "" ""
attr source computeTDistribution
0	856	10.002239996404	0.032093062545
0	861	10.034333058949	0.150234706985
0	866	10.184567765934	0.003977844089
0	868	10.188545610023	0.014663726885
0	876	10.203209336908	0.070751371624
0	882	10.273960708532	0.049970610964
0	888	10.323931319496	0.050165851918
0	893	10.374097171414	0.12019443135
0	899	10.494291602764	0.018504890406
0	906	10.51279649317	0.042674876233
0	909	10.555471369403	0.044445537027
0	911	10.59991690643	0.149134941419
0	913	10.749051847849	0.005919018505
0	915	10.754970866354	0.152418270478
0	917	10.907389136832	0.051473738464
0	919	10.958862875296	0.00520622894
0	921	10.964069104236	0.158955355721
0	948	11.123024459957	0.019520424932
0	954	11.142544884889	0.023013612846
0	959	11.165558497735	0.00056404504
0	961	11.166122542775	0.066050754605
0	969	11.23217329738	0.11083965906
0	974	11.34301295644	0.008479842814
0	979	11.351492799254	0.062506839251
0	985	11.413999638505	0.075596028607
0	990	11.489595667112	0.110476948289
0	1003	11.600072615401	0.020499250022
0	1008	11.620571865423	0.018451063426
0	1014	11.639022928849	0.012141026314
0	1020	11.651163955163	0.030432007395
0	1028	11.681595962558	0.052987742518
0	1033	11.734583705076	0.048287843988
0	1039	11.782871549064	0.001218747528
0	1041	11.784090296592	0.010815135119
0	1046	11.794905431711	0.105944464345
0	1057	11.900849896056	0.027703853763
0	1063	11.928553749819	0.00028239243
0	1065	11.928836142249	0.009500490374
0	1070	11.938336632623	0.067958048518
0	1080	12.006294681141	0.050584981929
0	1085	12.05687966307	0.018883299651
0	1090	12.075762962721	0.072990519206
0	1099	12.148753481927	0.079725472425
0	1106	12.228478954352	0.020420804294
0	1112	12.248899758646	0.196508590663
0	1124	12.445408349309	0.034074249209
0	1130	12.479482598518	0.01716125835
0	1135	12.496643856868	0.084661464558
0	1143	12.581305321426	0.05150357807
0	1149	12.632808899496	0.030260628395
0	1155	12.663069527891	0.053795452247
0	1160	12.716864980138	0.135824014552
0	1167	12.85268899469	0.050953248694
0	1172	12.903642243384	0.061119523801
0	1178	12.964761767185	0.015145199573
0	1183	12.979906966758	0.133290413908
0	1194	13.113197380666	0.183136899413
0	1203	13.296334280079	0.068376477812
0	1209	13.364710757891	0.035557441647
0	1214	13.400268199538	0.03578276366
0	1220	13.436050963198	0.112407592791
0	1227	13.548458555989	0.230580394995
0	1233	13.779038950984	0.072134314035
0	1239	13.851173265019	0.007411598842
0	1241	13.858584863861	0.021181207996
0	1250	13.879766071857	0.087409113514
0	1258	13.967175185371	0.100855332273
0	1265	14.068030517644	0.031843349797
0	1270	14.099873867441	0.030301124865
0	1275	14.130174992306	0.067516921011
0	1280	14.197691913317	0.127769963764
0	1286	14.325461877081	0.017244628564
0	1291	14.342706505645	0.05223214958
0	1299	14.394938655225	0.022544330544
0	1304	14.417482985769	0.128089826999
0	1312	14.545572812768	0.201862227183
0	1319	14.747435039951	0.070762976019
0	1324	14.81819801597	0.053271684626
0	1329	14.871469700596	0.077514556128
0	1334	14.948984256724	0.064670093048
0	1339	15.013654349772	0.041747967654
0	1344	15.055402317426	0.045712066278
0	1349	15.101114383704	0.187528101459
0	1356	15.288642485163	0.015723434501
0	1361	15.304365919664	0.061967820639
0	1366	15.366333740303	0.030138647896
0	1371	15.396472388199	0.033083759408
0	1376	15.429556147607	0.05786721393
0	1381	15.487423361537	0.055944172824
0	1387	15.543367534361	0.038646282499
0	1393	15.58201381686	0.001162786881
0	1395	15.583176603741	0.038107662938
0	1403	15.621284266679	0.021535632952
0	1408	15.642819899631	0.075542611036
0	1414	15.718362510667	0.064759211919
0	1419	15.783121722586	0.020379883955
0	1424	15.803501606541	0.020555977482
0	1429	15.824057584023	0.029018141195
0	1434	15.853075725218	0.057742503346
0	1439	15.910818228564	0.082978752392
0	1445	15.993796980956	0.033597664204
0	1450	16.02739464516	0.126446856297
0	1455	16.153841501457	0.008734438707
0	1460	16.162575940164	0.00651282591
0	1462	16.169088766074	0.021253447935
0	1470	16.190342214009	0.005815365275
0	1472	16.196157579284	0.050633308355
0	1480	16.246790887639	0.026221680826
0	1485	16.273012568465	0.053623744698
0	1490	16.326636313163	0.048153119146
0	1496	16.374789432309	0.051244784139
0	1501	16.426034216448	0.002052205101
0	1503	16.428086421549	0.063540563123
0	1511	16.491626984672	0.208352128757
0	1516	16.699979113429	0.06335097652
0	1522	16.763330089949	0.023227805529
0	1527	16.786557895478	0.033876630067
0	1532	16.820434525545	0.015004889699
0	1537	16.835439415244	0.136118039562
0	1542	16.971557454806	0.009137617515
0	1547	16.980695072321	0.027490373037
0	1552	17.008185445358	0.006139236891
0	1554	17.014324682249	0.034347693086
0	1562	17.048672375335	0.248268585631
0	1567	17.296940960966	0.133494879434
0	1573	17.4304358404	0.018093954793
0	1578	17.448529795193	0.098453854676
0	1584	17.546983649869	0.046204611573
0	1586	17.593188261442	0.07302116972
0	1588	17.666209431162	0.035644409899
0	1590	17.701853841061	0.006336758618
0	1592	17.708190599679	0.006292910136
0	1594	17.714483509815	0.151156927805
0	1597	17.86564043762	0.026060739357
0	1599	17.891701176977	0.075156451495
0	1601	17.966857628472	0.038007757063
0	1604	18.004865385535	0.405923431196
0	1637	18.410788816731	0.110383967105
0	1643	18.521172783836	0.009712205203
0	1649	18.530884989039	0.141010637385
0	1654	18.671895626424	0.121554529026
0	1659	18.79345015545	0.002296974773
0	1661	18.795747130223	0.010639534509
0	1666	18.806386664732	0.042595075633
0	1675	18.848981740365	0.057357985435
0	1680	18.9063397258	0.010952316113
0	1685	18.917292041913	0.007931022577
0	1690	18.92522306449	0.090589407337
0	1695	19.015812471827	0.113035733195
0	1700	19.128848205022	0.120119189732
0	1707	19.248967394754	0.09880314608
0	1712	19.347770540834	0.031800172688
0	1717	19.379570713522	0.050512857704
0	1722	19.430083571226	0.009047460612
0	1727	19.439131031838	0.031372201805
0	1732	19.470503233643	0.002027207133
0	1734	19.472530440776	0.004300523059
0	1736	19.476830963835	0.242990810328
0	1748	19.719821774163	0.071726313977
0	1754	19.79154808814	0.028036353985
0	1759	19.819584442125	0.036257944311
0	1764	19.855842386436	0.032691427689
0	1769	19.888533814125	0.076820052229
0	1774	19.965353866354	0.003114753131
0	1776	19.968468619485	0.120766364172
0	1785	20.089234983657	0.027294710688
0	1790	20.116529694345	0.222597635514
0	1795	20.339127329859	0.00100606596
0	1797	20.340133395819	0.116194634249
0	1805	20.456328030068	0.01573975855
0	1810	20.472067788618	0.000706993915
0	1812	20.472774782533	0.086867644919
0	1820	20.559642427452	0.026775169231
0	1825	20.586417596683	0.173076705126
0	1830	20.759494301809	0.078557901841
0	1835	20.83805220365	0.083177481121
0	1841	20.921229684771	0.011297698513
0	1846	20.932527383284	0.02487675256
0	1851	20.957404135844	0.044167865999
0	1857	21.001572001843	0.04034763101
0	1859	21.041919632853	0.003352203173
0	1861	21.045271836026	0.02483873536
0	1863	21.070110571386	0.013388352486
0	1865	21.083498923872	0.011869770448
0	1867	21.09536869432	0.001121728225
0	1869	21.096490422545	0.011251137072
0	1871	21.107741559617	0.094704763326
0	1873	21.202446322943	0.037355840639
0	1875	21.239802163582	0.015210342309
0	1877	21.255012505891	0.124561863627
0	1881	21.379574369518	0.025419426081
0	1883	21.404993795599	0.173072657304
0	1918	21.578066452903	0.157933131753
0	1932	21.735999584656	0.056228323063
0	1937	21.792227907719	0.073127808201
0	1942	21.86535571592	0.054477841639
0	1947	21.919833557559	0.001941408279
0	1949	21.921774965838	0.091849873576
0	1957	22.013624839414	0.010797440493
0	1962	22.024422279907	0.041591986172
0	1967	22.066014266079	0.058288929486
0	1972	22.124303195565	0.003100974348
0	1974	22.127404169913	0.051655418201
0	1982	22.179059588114	0.072058254393
0	1987	22.251117842507	0.016300084221
0	1992	22.267417926728	0.29274797328
0	1998	22.560165900008	0.163280895355
0	2003	22.723446795363	0.018658068298
0	2008	22.742104863661	0.057109782453
0	2013	22.799214646114	0.068195789715
0	2018	22.867410435829	0.046024779274
0	2023	22.913435215103	0.119830318049
0	2028	23.033265533152	0.053482714615
0	2033	23.086748247767	0.083380623827
0	2038	23.170128871594	0.078587122282
0	2044	23.248715993876	0.200276060031
0	2049	23.448992053907	0.022433189754
0	2054	23.471425243661	0.048478803204
0	2059	23.519904046865	0.030471907361
0	2064	23.550375954226	0.014325172371
0	2069	23.564701126597	0.014131474405
0	2074	23.578832601002	0.015095916787
0	2079	23.593928517789	0.012361922909
0	2084	23.606290440698	0.014811556128
0	2089	23.621101996826	0.173344535514
0	2095	23.79444653234	0.050578726525
0	2100	23.845025258865	0.080720845994
0	2105	23.925746104859	0.036100739191
0	2110	23.96184684405	0.040454674178
0	2115	24.002301518228	0.210868720832
0	2120	24.21317023906	0.015480765836
0	2125	24.228651004896	0.068468274172
0	2130	24.297119279068	0.017610459115
0	2135	24.314729738183	0.0053492574
0	2137	24.320078995583	0.003586857775
0	2142	24.323665853358	0.003484341727
0	2144	24.327150195085	0.034193853918
0	2155	24.361344049003	0.040146823421
0	2161	24.401490872424	0.022420187664
0	2166	24.423911060088	0.127720205672
0	2172	24.55163126576	0.071511486219
0	2174	24.623142751979	0.22480167683
0	2178	24.847944428809	0.02846497742
0	2180	24.876409406229	0.057686374294
0	2182	24.934095780523	0.01187806412
0	2184	24.945973844643	0.046918543253
0	2186	24.992892387896	0.001499301199
0	2188	24.994391689095	0.115701608213
0	2215	25.110093297308	0.004177060264
0	2217	25.114270357572	0.081715903458
0	2225	25.19598626103	0.068252310332
0	2230	25.264238571362	0.039073843915
0	2235	25.303312415277	0.0362748731
0	2240	25.339587288377	0.067821332755
0	2246	25.407408621132	0.046147188066
0	2251	25.453555809198	0.056043619956
0	2256	25.509599429154	0.136190400947
0	2262	25.645789830101	0.075252196205
0	2267	25.721042026306	0.278379151582
0	2272	25.999421177888	0.038035801164
0	2279	26.037456979052	0.014669461323
0	2284	26.052126440375	0.036529974824
0	2289	26.088656415199	0.065274266017
0	2294	26.153930681216	0.14213509025
0	2299	26.296065771466	0.018336294109
0	2304	26.314402065575	0.008855761973
0	2309	26.323257827548	0.001252033117
0	2311	26.324509860665	0.015621084693
0	2319	26.340130945358	0.085223007335
0	2324	26.425353952693	0.128013797248
0	2329	26.553367749941	0.023141261643
0	2334	26.576509011584	0.140870625686
0	2339	26.71737963727	0.029018303249
0	2344	26.746397940519	0.062271004529
0	2349	26.808668945048	0.053250115709
0	2354	26.861919060757	0.023554381691
0	2359	26.885473442448	0.10668860021
0	2364	26.992162042658	0.04400206039
0	2369	27.036164103048	0.059490257574
0	2374	27.095654360622	3.321114e-006
0	2376	27.095657681736	0.123649274453
0	2385	27.219306956189	0.022425797629
0	2390	27.241732753818	0.019174479292
0	2395	27.26090723311	0.033250249743
0	2400	27.294157482853	0.09598316651
0	2405	27.390140649363	0.129945820852
0	2410	27.520086470215	0.012320866124
0	2415	27.532407336339	0.06834345904
0	2421	27.600750795379	0.183191080176
0	2427	27.783941875555	0.036542676763
0	2432	27.820484552318	0.069786797006
0	2437	27.890271349324	0.039630184785
0	2442	27.929901534109	0.01456310962
0	2447	27.944464643729	0.093279776269
0	2454	28.037744419998	0.176668816645
0	2457	28.214413236643	0.015638407763
0	2459	28.230051644406	0.078750479578
0	2461	28.308802123984	0.127364799237
0	2463	28.436166923221	0.017577087509
0	2465	28.45374401073	0.022585761091
0	2467	28.476329771821	0.014395411166
0	2469	28.490725182987	0.189425732485
0	2496	28.680150915472	0.043813659914
0	2502	28.723964575386	0.038291316336
0	2508	28.762255891722	0.001559864712
0	2510	28.763815756434	0.074601046677
0	2519	28.838416803111	0.013951501103
0	2524	28.852368304214	0.010012478474
0	2529	28.862380782688	0.033170302239
0	2534	28.895551084927	0.07865834209
0	2540	28.974209427017	0.028120588559
0	2545	29.002330015576	0.062352338195
0	2550	29.064682353771	0.037369758586
0	2555	29.102052112357	0.014515178686
0	2560	29.116567291043	0.019512961079
0	2565	29.136080252122	0.012381479616
0	2570	29.148461731738	0.053027139362
0	2575	29.2014888711	0.09888457039
0	2580	29.30037344149	0.119642352077
0	2585	29.420015793567	0.082480797228
0	2590	29.502496590795	0.007501955395
0	2595	29.50999854619	0.067407629973
0	2600	29.577406176163	0.043711430564
0	2605	29.621117606727	0.019451946809
0	2610	29.640569553536	0.008498522088
0	2615	29.649068075624	0.011535686451
0	2620	29.660603762075	0.075708760409
0	2625	29.736312522484	0.073139960711
0	2630	29.809452483195	0.030256795995
0	2635	29.83970927919	0.037322215145
0	2641	29.877031494335	0.050002694439
0	2646	29.927034188774	0.110115804176
0	2651	30.03714999295	0.012147525822
0	2656	30.049297518772	0.013754659512
0	2661	30.063052178284	0.009388546223
0	2666	30.072440724507	0.010816457975
0	2671	30.083257182482	0.040172435452
0	2676	30.123429617934	0.008000437396
0	2681	30.13143005533	0.02636732343
0	2686	30.15779737876	0.076825461239
0	2691	30.234622839999	0.169238156905
0	2696	30.403860996904	0.001855577494
0	2698	30.405716574398	0.086973286586
0	2706	30.492689860984	0.082460580865
0	2711	30.575150441849	0.08285778574
0	2717	30.658008227589	0.005830060702
0	2719	30.663838288291	0.140429517639
0	2728	30.80426780593	0.014711885559
0	2733	30.818979691489	0.005226514996
0	2735	30.824206206485	0.082998987969
0	2743	30.907205194454	0.04820350576
0	2748	30.955408700214	0.078937575498
0	2753	31.034346275712	0.052692904723
0	2758	31.087039180435	0.002801264619
0	2760	31.089840445054	0.196109784049
0	2769	31.285950229103	0.014079350955
0	2774	31.300029580058	0.020731175023
0	2779	31.320760755081	0.020289282891
0	2784	31.341050037972	0.016531676222
0	2789	31.357581714194	0.067855108751
0	2794	31.425436822945	0.006341230446
0	2796	31.431778053391	0.003906771887
0	2801	31.435684825278	0.000993965665
0	2803	31.436678790943	0.048668461334
0	2814	31.485347252277	0.159153510931
0	2820	31.644500763208	0.000556981463
0	2822	31.645057744671	0.066504585253
0	2824	31.711562329924	0.107399376269
0	2827	31.818961706193	0.092269722869
0	2829	31.911231429062	0.249358265734
0	2847	32.160589694796	0.019854592871
0	2852	32.180444287667	0.072941428402
0	2857	32.253385716069	0.052972832697
0	2862	32.306358548766	0.012026531705
0	2867	32.318385080471	0.003965520642
0	2869	32.322350601113	0.043094788806
0	2877	32.365445389919	0.039888464973
0	2882	32.405333854892	0.052113943888
0	2887	32.45744779878	0.227641426985
0	2893	32.685089225765	0.092940700749
0	2898	32.778029926514	0.125493394357
0	2903	32.903523320871	0.055956711316
0	2908	32.959480032187	0.024763792004
0	2913	32.984243824191	0.014784949333
0	2918	32.999028773524	0.195535258631
0	2924	33.194564032155	0.036436757317
0	2929	33.231000789472	0.01581462677
0	2934	33.246815416242	0.126653326463
0	2939	33.373468742705	0.178932040528
0	2945	33.552400783233	0.040668120123
0	2950	33.593068903356	0.170198411603
0	2955	33.763267314959	0.075434219734
0	2960	33.838701534693	0.096327525784
0	2965	33.935029060477	0.039950549198
0	2970	33.974979609675	0.059727818602
0	2975	34.034707428277	0.073972827782
0	2980	34.108680256059	0.124425687786
0	2985	34.233105943845	0.041366072271
0	2990	34.274472016116	0.020805198227
0	2995	34.295277214343	0.111685898579
0	3000	34.406963112922	0.113406101886
0	3005	34.520369214808	0.012965772996
0	3011	34.533334987804	0.057720715595
0	3016	34.591055703399	0.089054548959
0	3021	34.680110252358	0.00079951469
0	3023	34.680909767048	0.219579439846
0	3031	34.900489206894	0.025592148722
0	3037	34.926081355616	0.118964934276
0	3043	35.045046289892	0.009620045669
0	3045	35.054666335561	0.09096413579
0	3048	35.145630471351	0.240476979292
0	3051	35.386107450643	0.252111565575
0	3068	35.638219016218	0.039047840542
0	3073	35.67726685676	0.084040541818
0	3078	35.761307398578	0.041276608708
0	3083	35.802584007286	0.000243379279
0	3085	35.802827386565	0.061211225277
0	3093	35.864038611842	0.018839873884
0	3098	35.882878485726	0.027587479067
0	3103	35.910465964793	0.031708033698
0	3108	35.942173998491	0.008833502239
0	3113	35.95100750073	0.033540460199
0	3118	35.984547960929	0.103598002785
0	3123	36.088145963714	0.021215794516
0	3128	36.10936175823	0.012631997292
0	3133	36.121993755522	0.030762878558
0	3139	36.15275663408	0.04296271908
0	3144	36.19571935316	0.007714814237
0	3149	36.203434167397	0.015240682701
0	3154	36.218674850098	0.236857996054
0	3160	36.455532846152	0.006178101823
0	3162	36.461710947975	0.031264729265
0	3170	36.49297567724	0.118913420467
0	3175	36.611889097707	0.05052817817
0	3180	36.662417275877	0.216536460299
0	3187	36.878953736176	0.025259597883
0	3192	36.904213334059	0.194397778014
0	3198	37.098611112073	0.093317661621
0	3203	37.191928773694	0.142223254837
0	3208	37.334152028531	0.031797694756
0	3213	37.365949723287	0.08924578526
0	3221	37.455195508547	0.026708960364
0	3226	37.481904468911	0.024310972941
0	3231	37.506215441852	0.030599450031
0	3236	37.536814891883	0.005074769506
0	3238	37.541889661389	0.021557634308
0	3246	37.563447295697	0.031378059219
0	3251	37.594825354916	0.089557929852
0	3256	37.684383284768	0.015856227848
0	3262	37.700239512616	0.156394308139
0	3267	37.856633820755	0.008527530684
0	3272	37.865161351439	0.023610144667
0	3277	37.888771496106	0.003294442353
0	3279	37.892065938459	0.18329158674
0	3287	38.075357525199	0.077588871528
0	3292	38.152946396727	0.000842795475
0	3294	38.153789192202	0.000689595013
0	3296	38.154478787215	0.045745421053
0	3307	38.200224208268	0.08833224948
0	3312	38.288556457748	0.021794533134
0	3317	38.310350990882	0.009535990779
0	3322	38.319886981661	0.128663127871
0	3327	38.448550109532	0.004971736375
0	3329	38.453521845907	0.017310762621
0	3337	38.470832608528	0.005632472837
0	3339	38.476465081365	0.067882726056
0	3348	38.544347807421	0.066893245314
0	3350	38.611241052735	0.09977794684
0	3352	38.711018999575	0.016891441348
0	3354	38.727910440923	0.033953672498
0	3356	38.761864113421	0.032739462886
0	3358	38.794603576307	0.083692145476
0	3360	38.878295721783	0.048901099854
0	3362	38.927196821637	0.106177189393
0	3377	39.03337401103	0.118203453936
0	3394	39.151577464966	0.028588714956
0	3400	39.180166179922	0.077906738136
0	3405	39.258072918058	0.006092045036
0	3407	39.264164963094	0.018909601723
0	3415	39.283074564817	0.017754112395
0	3420	39.300828677212	0.008458073065
0	3425	39.309286750277	0.053779752301
0	3430	39.363066502578	0.003417991948
0	3432	39.366484494526	0.038830482243
0	3440	39.405314976769	0.021537679103
0	3445	39.426852655872	0.040158172319
0	3450	39.467010828191	0.018238293554
0	3455	39.485249121745	0.036806345376
0	3460	39.522055467121	0.036543867319
0	3465	39.55859933444	0.044614991507
0	3470	39.603214325947	0.068984483265
0	3476	39.672198809212	0.035005426262
0	3481	39.707204235474	0.07136977508
0	3486	39.778574010554	0.114890535459
0	3492	39.893464546013	0.020004200303
0	3497	39.913468746316	0.034090229025
0	3502	39.947558975341	0.028675079251
0	3507	39.976234054592	0.105222878701
0	3512	40.081456933293	0.011991332275
0	3517	40.093448265568	0.042720483937
0	3522	40.136168749505	0.093224730122
0	3527	40.229393479627	0.005420234645
0	3529	40.234813714272	0.003511673937
0	3534	40.238325388209	0.06473561451
0	3542	40.303061002719	0.071640802236
0	3547	40.374701804955	0.013885258317
0	3552	40.388587063272	0.090492913898
0	3558	40.47907997717	0.112747106053
0	3563	40.591827083223	0.090144767623
0	3569	40.681971850846	0.068621437235
0	3574	40.750593288081	0.018019504817
0	3579	40.768612792898	0.011787713154
0	3584	40.780400506052	0.028086387194
0	3590	40.808486893246	0.004345146607
0	3592	40.812832039853	0.053145638762
0	3600	40.865977678615	0.00058412456
0	3602	40.866561803175	0.019115030873
0	3610	40.885676834048	0.133565039367
0	3615	41.019241873415	0.027803401652
0	3620	41.047045275067	0.008595181283
0	3625	41.05564045635	0.013168089654
0	3630	41.068808546004	0.090627696073
0	3636	41.159436242077	0.036955157027
0	3641	41.196391399104	0.155546916527
0	3647	41.351938315631	0.00273828297
0	3649	41.354676598601	0.07535360906
0	3657	41.430030207661	0.096505070945
0	3662	41.526535278606	0.040497058419
0	3667	41.567032337025	0.004804731357
0	3669	41.571837068382	0.038035927589
0	3677	41.609872995971	0.043892720348
0	3682	41.653765716319	0.128585982026
0	3687	41.782351698345	0.02198707751
0	3692	41.804338775855	0.040213912595
0	3697	41.84455268845	0.051700049508
0	3702	41.896252737958	0.032124261066
0	3707	41.928376999024	0.192288529777
0	3713	42.120665528801	0.011477762754
0	3715	42.132143291555	0.062234705646
0	3717	42.194377997201	0.03869450947
0	3720	42.233072506671	0.002160169785
0	3722	42.235232676456	0.091850905137
0	3725	42.327083581593	0.033769512109
0	3727	42.360853093702	0.048773901671
0	3729	42.409626995373	0.042803056968
0	3731	42.452430052341	0.010451709622
0	3733	42.462881761963	0.046095200512
0	3739	42.508976962475	0.00931713513
0	3744	42.518294097605	0.068627722747
0	3776	42.586921820352	0.062897346297
0	3783	42.649819166649	0.019510252229
0	3788	42.669329418878	0.04649054277
0	3793	42.715819961648	0.008277193916
0	3798	42.724097155564	0.023643454317
0	3803	42.747740609881	0.029921539972
0	3808	42.777662149853	0.009540721008
0	3813	42.787202870861	0.187969769373
0	3818	42.975172640234	0.010451922995
0	3823	42.985624563229	0.012431110935
0	3828	42.998055674164	0.008315209285
0	3833	43.006370883449	0.140594395806
0	3838	43.146965279255	0.051896286566
0	3843	43.198861565821	0.047090221175
0	3849	43.245951786996	0.005807848338
0	3851	43.251759635334	0.0366289707
0	3859	43.288388606034	0.14484098583
0	3864	43.433229591864	0.128245301425
0	3869	43.561474893289	0.005197019667
0	3871	43.566671912956	0.036816252584
0	3879	43.60348816554	0.096679919947
0	3884	43.700168085487	0.077277718505
0	3889	43.777445803992	0.125798176411
0	3894	43.903243980403	0.030552149212
0	3899	43.933796129615	0.005887171358
0	3901	43.939683300973	0.140632178448
0	3910	44.080315479421	0.033339534789
0	3916	44.11365501421	0.070275821697
0	3922	44.183930835907	0.038458412716
0	3927	44.222389248623	0.07216282703
0	3932	44.294552075653	0.052078198921
0	3937	44.346630274574	0.023824857001
0	3942	44.370455131575	0.075578470237
0	3947	44.446033601812	0.084826999772
0	3952	44.530860601584	0.001646526026
0	3954	44.53250712761	0.060646149786
0	3962	44.593153277396	0.078871325885
0	3968	44.672024603281	0.01646781132
0	3973	44.688492414601	0.087393612695
0	3978	44.775886027296	0.010499702893
0	3983	44.786385730189	0.000588866184
0	3985	44.786974596373	0.095493367368
0	3993	44.882467963741	0.022114976377
0	3998	44.904582940118	0.191895298606
0	4004	45.096478238724	0.015905586084
0	4009	45.112383824808	0.036764726692
0	4014	45.1491485515	0.042001538167
0	4019	45.191150089667	0.053640084161
0	4024	45.244790173828	0.184384513367
0	4031	45.429174687195	0.116998614711
0	4037	45.546173301906	0.048961113838
0	4039	45.595134415744	0.036663453677
0	4041	45.631797869421	0.00615311358
0	4043	45.637950983001	0.182036554344
0	4046	45.819987537345	0.058320653464
0	4049	45.878308190809	0.051446106157
0	4051	45.929754296966	0.119276367291
0	4073	46.049030664257	0.103144158707
0	4081	46.152174822964	0.010292317642
0	4086	46.162467140606	0.143710787363
0	4092	46.306177927969	0.293009939421
0	4097	46.59918786739	0.101414097286
0	4104	46.700601964676	0.005329942959
0	4106	46.705931907635	0.010419393793
0	4114	46.716351301428	0.005953291589
0	4116	46.722304593017	0.059476770346
0	4124	46.781781363363	0.060243070433
0	4129	46.842024433796	0.030493167243
0	4134	46.872517601039	0.17890677944
0	4139	47.051424380479	0.003885941567
0	4141	47.055310322046	0.165636267341
0	4150	47.220946589387	0.033102216755
0	4155	47.254048806142	0.03558489584
0	4160	47.289633701982	0.017959702945
0	4166	47.307593404927	0.078050245648
0	4171	47.385643650575	0.113443749266
0	4176	47.499087399841	0.081343110831
0	4181	47.580430510672	0.002032311315
0	4183	47.582462821987	0.022002309228
0	4191	47.604465131215	0.191625712361
0	4196	47.796090843576	0.007654414428
0	4201	47.803745258004	0.026344619135
0	4206	47.830089877139	0.035206128401
0	4211	47.86529600554	0.026469288644
0	4216	47.891765294184	0.029832557181
0	4221	47.921597851365	0.000987797039
0	4223	47.922585648404	0.045537886455
0	4231	47.968123534859	0.012291136029
0	4236	47.980414670888	0.111998428211
0	4242	48.092413099099	0.03077561951
0	4247	48.123188718609	0.046107754643
0	4252	48.169296473252	0.158951295734
0	4258	48.328247768986	0.068416732615
0	4263	48.396664501601	0.00629596484
0	4265	48.402960466441	0.056370119152
0	4273	48.459330585593	0.174355176219
0	4278	48.633685761812	0.006220250199
0	4280	48.639906012011	0.122177651236
0	4289	48.762083663247	0.005792476742
0	4291	48.767876139989	0.036326026898
0	4299	48.804202166887	0.003455575009
0	4301	48.807657741896	0.023733936024
0	4309	48.83139167792	0.005430448209
0	4311	48.836822126129	0.015896096258
0	4319	48.852718222387	0.016243463444
0	4324	48.868961685831	0.057187352296
0	4330	48.926149038127	0.109772529352
0	4336	49.035921567479	0.002018035255
0	4338	49.037939602734	0.044335201196
0	4340	49.08227480393	0.000943747426
0	4342	49.083218551356	0.043178693861
0	4344	49.126397245217	0.0336005024
0	4346	49.159997747617	0.062960529956
0	4348	49.222958277573	0.004230116902
0	4350	49.227188394475	0.047193545514
0	4353	49.274381939989	0.017416404907
0	4355	49.291798344896	0.001980239103
0	4357	49.293778583999	0.014997048999
0	4359	49.308775632998	0.052071712193
0	4361	49.360847345191	0.017516764304
0	4364	49.378364109495	0.088465333487
0	4366	49.466829442982	0.008428543017
0	4368	49.475257985999	0.028318085266
0	4371	49.503576071265	0.000726554704
0	4373	49.504302625969	0.04052135221
0	4394	49.544823978179	0.007362900439
0	4399	49.552186878618	0.239853808603
0	4441	49.792040687221	0.057815561777
0	4446	49.849856248998	0.016834555571
0	4451	49.866690804569	0.219573727108
0	4457	50.086264531677	0.028135279636
0	4462	50.114399811313	0.278416799757
0	4468	50.39281661107	0.002804094104
0	4470	50.395620705174	0.031561847746
0	4478	50.42718255292	0.022269703248
0	4483	50.449452256168	0.010672605471
0	4488	50.460124861639	0.106856080493
0	4494	50.566980942132	0.061093054728
0	4499	50.62807399686	0.098711005624
0	4504	50.726785002484	0.040436606653
0	4509	50.767221609137	0.061303100845
0	4515	50.828524709982	0.272869431112
0	4520	51.101394141094	0.027541675649
0	4525	51.128935816743	0.004052049413
0	4527	51.132987866156	0.022503716587
0	4535	51.155491582743	0.091736332243
0	4540	51.247227914986	0.097119663985
0	4546	51.344347578971	0.020414233177
0	4551	51.364761812148	0.004383099429
0	4553	51.369144911577	0.016578311576
0	4561	51.385723223153	0.069039755576
0	4566	51.454762978729	0.065172198669
0	4572	51.519935177398	0.028752761669
0	4577	51.548687939067	0.016946802718
0	4582	51.565634741785	0.060295998544
0	4587	51.625930740329	0.065771553661
0	4593	51.69170229399	0.156938455945
0	4599	51.848640749935	0.043702654382
0	4604	51.892343404317	0.11542431424
0	4612	52.007767718557	0.033108127298
0	4617	52.040875845855	0.041310833283
0	4622	52.082186679138	0.048538781708
0	4627	52.130725460846	0.033499607356
0	4632	52.164225068202	0.020300767122
0	4637	52.184525835324	0.103747178261
0	4642	52.288273013585	0.073567932734
0	4647	52.361840946319	0.080416557719
0	4652	52.442257504038	0.03215392772
0	4657	52.474411431758	0.035559445076
0	4663	52.509970876834	0.026828394156
0	4666	52.53679927099	0.208238704832
0	4668	52.745037975822	0.105845243531
0	4670	52.850883219353	0.027074327909
0	4672	52.877957547262	0.15538956873
0	4687	53.033347115992	0.030403392834
0	4695	53.063750508826	0.002825956263
0	4697	53.066576465089	0.080521184471
0	4705	53.14709764956	0.0158869364
0	4710	53.16298458596	0.035770313484
0	4715	53.198754899444	0.025710456251
0	4720	53.224465355695	0.16614866897
0	4726	53.390614024665	0.101233097325
0	4731	53.49184712199	0.017842411674
0	4736	53.509689533664	0.25398094778
0	4741	53.763670481444	0.028852693458
0	4746	53.792523174902	0.208371342354
0	4751	54.000894517256	0.07166939661
0	4758	54.072563913866	0.141200086084
0	4763	54.21376399995	0.136422430001
0	4768	54.350186429951	0.021106043126
0	4773	54.371292473077	0.007742310191
0	4778	54.379034783268	0.289783214878
0	4783	54.668817998146	0.016588362993
0	4788	54.685406361139	0.017214545723
0	4793	54.702620906862	0.015546735353
0	4798	54.718167642215	0.006716672469
0	4800	54.724884314684	0.040342974122
0	4809	54.765227288806	0.180898096331
0	4814	54.946125385137	0.133272850992
0	4819	55.079398236129	0.015948992941
0	4824	55.09534722907	0.02660006376
0	4829	55.12194729283	0.070226143801
0	4835	55.192173436631	0.029191148385
0	4840	55.221364585016	0.003607702148
0	4842	55.224972287164	0.149137865061
0	4850	55.374110152225	0.078717784865
0	4856	55.45282793709	0.007249883776
0	4858	55.460077820866	0.128082143672
0	4866	55.588159964538	0.05983793545
0	4872	55.647997899988	0.019083272711
0	4877	55.667081172699	0.008550176739
0	4882	55.675631349438	0.028590949258
0	4887	55.704222298696	0.028127741498
0	4892	55.732350040194	0.028132689338
0	4897	55.760482729532	0.023529677377
0	4902	55.784012406909	0.082887544791
0	4908	55.8668999517	0.0683877244
0	4913	55.9352876761	0.016293347501
0	4918	55.951581023601	0.095241433782
0	4924	56.046822457383	0.011313883455
0	4926	56.058136340838	0.04206273056
0	4928	56.100199071398	0.035792995013
0	4930	56.135992066411	0.021079276893
0	4932	56.157071343304	0.021784730411
0	4934	56.178856073715	0.130273552881
0	4936	56.309129626596	0.109651576069
0	4939	56.418781202665	0.026019891322
0	4941	56.444801093987	0.016288197986
0	4943	56.461089291973	0.080454103475
0	4961	56.541543395448	0.04187625293
0	4981	56.583419648378	0.048629588831
0	4986	56.632049237209	0.171445520869
0	4991	56.803494758078	0.013502549632
0	4996	56.81699730771	0.060306938914
0	5001	56.877304246624	0.047713332079
0	5007	56.925017578703	0.121175070193
0	5012	57.046192648896	0.043993520321
0	5017	57.090186169217	0.169014703798
0	5022	57.259200873015	0.025734710146
0	5027	57.284935583161	0.083361510417
0	5032	57.368297093578	0.001495685744
0	5034	57.369792779322	0.072153440683
0	5042	57.441946220005	0.00966855473
0	5047	57.451614774735	0.206456642855
0	5052	57.65807141759	0.008483586764
0	5057	57.666555004354	0.311107765382
0	5064	57.977662769736	0.073843131062
0	5069	58.051505900798	0.036069278783
0	5074	58.087575179581	0.074080792563
0	5079	58.161655972144	0.004410382645
0	5081	58.166066354789	0.056766104475
0	5089	58.222832459264	0.02078599965
0	5094	58.243618458914	0.066867493903
0	5099	58.310485952817	0.009917580739
0	5104	58.320403533556	0.035599834096
0	5109	58.356003367652	0.032424161856
0	5114	58.388427529508	0.071458887204
0	5119	58.459886416712	0.008444709326
0	5124	58.468331126038	0.028520380178
0	5129	58.496851506216	0.055598316018
0	5134	58.552449822234	0.006323767795
0	5136	58.558773590029	0.02895451291
0	5144	58.587728102939	0.193518965023
0	5151	58.781247067962	0.135448607445
0	5156	58.916695675407	0.00451150855
0	5158	58.921207183957	0.206137403549
0	5167	59.127344587506	0.001169357577
0	5169	59.128513945083	0.047496545676
0	5177	59.176010490759	0.233454605424
0	5182	59.409465096183	0.019280418172
0	5187	59.428745514355	0.009643802434
0	5192	59.438389316789	0.053823180846
0	5197	59.492212497635	0.017961180176
0	5203	59.510173677811	0.136242606444
0	5205	59.646416284255	0.014564726242
0	5207	59.660981010497	0.031326678265
0	5209	59.692307688762	0.05203752113
0	5211	59.744345209892	0.048188206315
0	5213	59.792533416207	0.223164498654
0	5222	60.015697914861	0.019018642793
0	5230	60.034716557654	0.019130462905
0	5241	60.053847020559	0.036467085847
0	5249	60.090314106406	0.21054381306
0	5255	60.300857919466	0.030821136796
0	5260	60.331679056262	0.001549682666
0	5262	60.333228738928	0.01713413523
0	5270	60.350362874158	0.131378802873
0	5276	60.481741677031	0.042296959283
0	5281	60.524038636314	0.073985323633
0	5286	60.598023959947	0.02229694529
0	5292	60.620320905237	0.01952500303
0	5297	60.639845908267	0.028011860614
0	5302	60.667857768881	0.135149572204
0	5307	60.803007341085	0.044662695684
0	5312	60.847670036769	0.001612837171
0	5314	60.84928287394	0.083320636432
0	5322	60.932603510372	0.058951700563
0	5327	60.991555210935	0.024343580632
0	5332	61.015898791567	0.023987716349
0	5338	61.039886507916	0.154746787847
0	5344	61.194633295763	0.204895494146
0	5350	61.399528789909	0.118968754816
0	5356	61.518497544725	0.011076952374
0	5361	61.529574497099	0.002994936146
0	5363	61.532569433245	0.139051563754
0	5372	61.671620996999	0.017553036071
0	5377	61.68917403307	0.024022891888
0	5382	61.713196924958	0.035450113224
0	5387	61.748647038182	0.132019759227
0	5392	61.880666797409	0.006630952596
0	5394	61.887297750005	0.043101950113
0	5402	61.930399700118	0.025706461727
0	5407	61.956106161845	0.042878051243
0	5412	61.998984213088	0.080846929421
0	5418	62.079831142509	0.029346504637
0	5423	62.109177647146	0.068462600055
0	5428	62.177640247201	0.045312709066
0	5433	62.222952956267	0.058432715489
0	5438	62.281385671756	0.173707057021
0	5444	62.455092728777	0.074381884837
0	5449	62.529474613614	0.134018391066
0	5454	62.66349300468	0.013759030298
0	5459	62.677252034978	0.067827431899
0	5464	62.745079466877	0.025085499537
0	5470	62.770164966414	0.061137190865
0	5475	62.831302157279	0.067665626014
0	5480	62.898967783293	0.047692370164
0	5486	62.946660153457	0.126834408879
0	5492	63.073494562336	0.019103580963
0	5494	63.092598143299	0.047073401815
0	5497	63.139671545114	0.009629046441
0	5499	63.149300591555	0.019935637415
0	5501	63.16923622897	0.116402892593
0	5503	63.285639121563	0.001842106381
0	5505	63.287481227944	0.060480812429
0	5508	63.347962040373	0.074342190443
0	5510	63.422304230816	0.021369946894
0	5512	63.44367417771	0.00047492079
0	5514	63.4441490985	0.036995585311
0	5516	63.481144683811	0.027977821586
0	5522	63.509122505397	0.001489992465
0	5524	63.510612497862	0.045369974867
0	5544	63.555982472729	0.048995561331
0	5567	63.60497803406	0.153148589613
0	5575	63.758126623673	0.026885278103
0	5581	63.785011901776	0.005625323257
0	5583	63.790637225033	0.041914860365
0	5592	63.832552085398	0.031246731892
0	5597	63.86379881729	0.010007745487
0	5602	63.873806562777	0.001476818644
0	5604	63.875283381421	0.033256108405
0	5612	63.908539489826	0.025168759408
0	5617	63.933708249234	0.141977415831
0	5622	64.075685665065	0.058408352619
0	5627	64.134094017684	0.000512881119
0	5629	64.134606898803	0.01963262288
0	5637	64.154239521683	0.208163630327
0	5642	64.36240315201	0.01412435199
0	5647	64.376527504	0.070444208208
0	5652	64.446971712208	0.007377754013
0	5657	64.454349466221	0.006282736406
0	5659	64.460632202627	0.051642882451
0	5667	64.512275085078	0.020530481497
0	5672	64.532805566575	0.071299749617
0	5677	64.604105316192	0.046471007276
0	5682	64.650576323468	0.06687666018
0	5687	64.717452983648	0.077273414347
0	5693	64.794726397995	0.178392500369
0	5698	64.973118898364	0.029546482583
0	5703	65.002665380947	0.000162412475
0	5705	65.002827793422	0.01545509198
0	5713	65.018282885402	0.062510667889
0	5719	65.080793553291	0.036402744555
0	5724	65.117196297846	0.055036307815
0	5729	65.172232605661	0.21471010355
0	5734	65.386942709211	0.05331172274
0	5739	65.440254431951	0.10768038684
0	5744	65.547934818791	0.197438929816
0	5750	65.745373748607	0.147758656164
0	5756	65.893132404771	0.001020937424
0	5758	65.894153342195	0.066028111829
0	5766	65.960181454024	0.071538946453
0	5772	66.031720400477	0.034860519328
0	5777	66.066580919805	0.100816944005
0	5782	66.16739786381	0.069328483725
0	5788	66.236726347535	0.042777388748
0	5793	66.279503736283	0.062749517567
0	5798	66.34225325385	0.024384772005
0	5804	66.366638025855	0.00177190867
0	5806	66.368409934525	0.093879393042
0	5814	66.462289327567	0.151193321631
0	5820	66.613482649198	0.006138106861
0	5822	66.619620756059	0.046913065386
0	5824	66.666533821445	0.035007610338
0	5826	66.701541431783	0.283583711812
0	5828	66.985125143595	0.044032198021
0	5840	67.029157341616	0.028983181456
0	5851	67.058140523072	0.071041664181
0	5856	67.129182187253	0.098601194112
0	5861	67.227783381365	0.005717068972
0	5863	67.233500450337	0.037083142628
0	5871	67.270583592965	0.015507554923
0	5876	67.286091147888	0.105206887097
0	5881	67.391298034985	0.031688639443
0	5886	67.422986674428	0.046476824181
0	5891	67.469463498609	0.058577521378
0	5896	67.528041019987	0.130962833357
0	5902	67.659003853344	0.130801226829
0	5907	67.789805080173	0.127269267411
0	5913	67.917074347584	0.057869985706
0	5918	67.97494433329	0.023876903679
0	5923	67.998821236969	0.008594922227
0	5928	68.007416159196	0.031093670886
0	5933	68.038509830082	0.236487521078
0	5941	68.27499735116	0.047200986928
0	5946	68.322198338088	0.123243149032
0	5951	68.44544148712	0.058322938109
0	5956	68.503764425229	0.041916214017
0	5961	68.545680639246	0.028619865057
0	5966	68.574300504303	0.153331063
0	5972	68.727631567303	0.046870127399
0	5977	68.774501694702	0.04677210173
0	5982	68.821273796432	0.007732718763
0	5984	68.829006515195	0.154075957722
0	5992	68.983082472917	0.068496931411
0	5997	69.051579404328	0.106281199159
0	6002	69.157860603487	0.020306467969
0	6007	69.178167071456	0.207060607762
0	6012	69.385227679218	0.002635634048
0	6014	69.387863313266	0.151381047681
0	6022	69.539244360947	0.00740456829
0	6024	69.546648929237	0.002201944217
0	6029	69.548850873454	0.006751796783
0	6034	69.555602670237	0.011525734569
0	6039	69.567128404806	0.022830656914
0	6047	69.58995906172	0.029572726102
0	6052	69.619531787822	0.016984346151
0	6057	69.636516133973	0.182371895408
0	6062	69.818888029381	0.049639555416
0	6067	69.868527584797	0.02140297516
0	6072	69.889930559957	0.14209416318
0	6078	70.032024723137	0.010494615606
0	6080	70.042519338743	0.052065308576
0	6082	70.094584647319	0.130453974428
0	6084	70.225038621747	0.054668748484
0	6086	70.279707370231	0.035478167134
0	6089	70.315185537365	0.016311950314
0	6091	70.331497487679	0.143076920594
0	6093	70.474574408273	0.05217692165
0	6105	70.526751329923	0.010477667789
0	6113	70.537228997712	0.00946032317
0	6118	70.546689320882	0.064926113069
0	6135	70.611615433951	0.024535051755
0	6140	70.636150485706	0.034817375279
0	6146	70.670967860985	0.058934291065
0	6151	70.72990215205	0.004774209306
0	6153	70.734676361356	0.026899758397
0	6161	70.761576119753	0.071535134525
0	6166	70.833111254278	0.14514308365
0	6171	70.978254337928	0.017053184612
0	6176	70.99530752254	0.126466821504
0	6181	71.121774344044	0.002425294659
0	6183	71.124199638703	0.034166166832
0	6191	71.158365805535	0.003708968919
0	6193	71.162074774454	0.043740403283
0	6201	71.205815177737	0.003781406655
0	6203	71.209596584392	0.038623488351
0	6212	71.248220072743	0.142984096391
0	6217	71.391204169134	0.012227122933
0	6222	71.403431292067	0.080797637312
0	6227	71.484228929379	0.034230359285
0	6232	71.518459288664	0.137003642065
0	6238	71.655462930729	0.012462197173
0	6243	71.667925127902	0.066991114413
0	6248	71.734916242315	0.075359735926
0	6254	71.810275978241	0.045166179122
0	6259	71.855442157363	0.044415131485
0	6264	71.899857288848	0.021782829264
0	6269	71.921640118112	0.023189650923
0	6274	71.944829769035	0.371754607123
0	6280	72.316584376158	0.000186261409
0	6282	72.316770637567	0.026982802077
0	6290	72.343753439644	0.054574242292
0	6295	72.398327681936	0.038166207262
0	6300	72.436493889198	0.062831535329
0	6305	72.499325424527	0.028512566327
0	6310	72.527837990854	0.000312187968
0	6312	72.528150178822	0.233318683366
0	6320	72.761468862188	0.210838729377
0	6325	72.972307591565	0.011517474117
0	6330	72.983825065682	0.065414735188
0	6336	73.04923980087	0.023848744795
0	6341	73.073088545665	0.020815732989
0	6346	73.093904278654	0.068431468498
0	6351	73.162335747152	0.0134159435
0	6356	73.175751690652	0.003917615739
0	6358	73.179669306391	0.155980394721
0	6366	73.335649701112	0.056074824981
0	6371	73.391724526093	0.022198750785
0	6376	73.413923276878	0.038964643608
0	6381	73.452887920486	0.030972207296
0	6387	73.483860127782	0.020044504984
0	6393	73.503904632766	0.0601537445
0	6395	73.564058377266	0.016341073581
0	6397	73.580399450847	0.132793633892
0	6399	73.713193084739	0.043356134252
0	6402	73.756549218991	0.034002117591
0	6404	73.790551336582	0.027525078159
0	6406	73.818076414741	0.158047883757
0	6408	73.976124298498	0.036585730371
0	6414	74.012710028869	0.053801150195
0	6440	74.066511179064	0.024702034672
0	6445	74.091213213736	0.033915316879
0	6451	74.125128530615	0.211389080474
0	6459	74.336517611089	0.053904141986
0	6464	74.390421753075	0.008593396289
0	6469	74.399015149364	0.026264367367
0	6474	74.425279516731	0.006108938519
0	6476	74.43138845525	0.064204949378
0	6484	74.495593404628	0.025240060344
0	6489	74.520833464972	0.063386459651
0	6494	74.584219924623	0.053646353288
0	6499	74.637866277911	0.103463513128
0	6504	74.741329791039	0.064583427565
0	6509	74.805913218604	0.030926853
0	6514	74.836840071604	0.030375838025
0	6519	74.867215909629	0.002297327866
0	6521	74.869513237495	0.434008107168
0	6533	75.303521344663	0.250526616254
0	6539	75.554047960917	0.026021968224
0	6544	75.580069929141	0.035667961002
0	6549	75.615737890143	0.07668012775
0	6555	75.692418017893	0.166485277295
0	6561	75.858903295188	0.060897537502
0	6568	75.91980083269	0.066892011244
0	6573	75.986692843934	0.100616083979
0	6578	76.087308927913	0.018611767396
0	6583	76.105920695309	0.224348908682
0	6588	76.330269603991	0.049815638806
0	6594	76.380085242797	0.132324048228
0	6600	76.512409291025	0.188699853162
0	6606	76.701109144187	0.086778454329
0	6612	76.787887598516	0.007227496066
0	6617	76.795115094582	0.071889083271
0	6622	76.867004177853	0.019066160483
0	6627	76.886070338336	0.024523059254
0	6632	76.91059339759	0.005137247647
0	6634	76.915730645237	0.009587986826
0	6642	76.925318632063	0.086959312169
0	6649	77.012277944232	0.003881016309
0	6651	77.016158960541	0.001315642841
0	6653	77.017474603382	0.01661653352
0	6655	77.034091136902	0.008857912994
0	6657	77.042949049896	0.033967773102
0	6659	77.076916822998	0.018117300209
0	6662	77.095034123207	0.044288204553
0	6664	77.13932232776	0.122914989396
0	6667	77.262237317156	0.088990404482
0	6670	77.351227721638	0.011863906076
0	6672	77.363091627714	0.191273050336
0	6698	77.55436467805	0.034073261587
0	6712	77.588437939637	0.007487585536
0	6717	77.595925525173	0.023593037219
0	6725	77.619518562392	0.006790399944
0	6728	77.626308962336	0.052538327885
0	6736	77.678847290221	0.053451228113
0	6742	77.732298518334	0.165372784649
0	6747	77.897671302983	0.082083241283
0	6752	77.979754544266	0.169591438234
0	6757	78.1493459825	0.113091876852
0	6763	78.262437859352	0.003236217385
0	6765	78.265674076737	0.164775112213
0	6774	78.43044918895	0.054411786438
0	6779	78.484860975388	0.24599605756
0	6784	78.730857032948	0.133426968945
0	6792	78.864284001893	0.030629709762
0	6797	78.894913711655	0.091102148904
0	6802	78.986015860559	0.028714594264
0	6807	79.014730454823	0.014259952266
0	6812	79.028990407089	0.009596652801
0	6817	79.03858705989	0.086888767437
0	6822	79.125475827327	0.069298472014
0	6828	79.194774299341	0.012573869144
0	6833	79.207348168485	0.064159863502
0	6839	79.271508031987	0.137415433194
0	6844	79.408923465181	0.118857317767
0	6849	79.527780782948	0.00053828324
0	6851	79.528319066188	0.006139108774
0	6853	79.534458174962	0.00567400419
0	6858	79.540132179152	0.041322650637
0	6869	79.581454829789	0.057926147982
0	6874	79.639380977771	0.052204794622
0	6879	79.691585772393	0.028918752574
0	6884	79.720504524967	0.016589261046
0	6889	79.737093786013	0.006092926235
0	6891	79.743186712248	0.011109363209
0	6899	79.754296075457	0.251716117207
0	6905	80.006012192664	0.117787397373
0	6910	80.123799590037	0.136138145197
0	6917	80.259937735234	0.003619081427
0	6919	80.263556816661	0.018974226351
0	6927	80.282531043012	0.038163028267
0	6932	80.320694071279	0.038454925392
0	6937	80.359148996671	0.007386627295
0	6939	80.366535623966	0.039207195584
0	6948	80.40574281955	0.036645250492
0	6953	80.442388070042	0.042604220739
0	6958	80.484992290781	0.234608446179
0	6965	80.71960073696	0.205148190161
0	6967	80.924748927121	0.033068276899
0	6969	80.95781720402	0.006318865152
0	6971	80.964136069172	0.116747075035
0	6987	81.080883144207	0.00242747734
0	6989	81.083310621547	0.007487251342
0	6994	81.090797872889	0.03966478805
0	7002	81.130462660939	0.018985643471
0	7007	81.14944830441	0.036778036121
0	7012	81.186226340531	0.031030015624
0	7018	81.217256356155	0.016093385596
0	7023	81.233349741751	0.030630754556
0	7028	81.263980496307	0.00364045801
0	7030	81.267620954317	0.066771828697
0	7038	81.334392783014	0.00793269599
0	7043	81.342325479004	0.025361387284
0	7048	81.367686866288	0.11659203338
0	7054	81.484278899668	0.07505691964
0	7059	81.559335819308	0.030616283866
0	7064	81.589952103174	0.061163711284
0	7069	81.651115814458	0.028817508829
0	7074	81.679933323287	0.030565710613
0	7079	81.7104990339	0.001333119121
0	7081	81.711832153021	0.033912698091
0	7089	81.745744851112	0.028176481928
0	7094	81.77392133304	0.057197155873
0	7099	81.831118488913	0.065012891298
0	7104	81.896131380211	0.004356963486
0	7106	81.900488343697	0.058907094336
0	7114	81.959395438033	0.103695562378
0	7121	82.063091000411	0.14719835049
0	7126	82.210289350901	0.063578696593
0	7132	82.273868047494	0.066846884188
0	7137	82.340714931682	0.07775266899
0	7142	82.418467600672	0.023501072393
0	7147	82.441968673065	0.046191716149
0	7152	82.488160389214	0.02280714188
0	7159	82.510967531094	0.00702420236
0	7161	82.517991733454	0.107499260153
0	7170	82.625490993607	0.031155223493
0	7175	82.6566462171	0.089713867088
0	7181	82.746360084188	0.031189316693
0	7186	82.777549400881	0.019806401643
0	7191	82.797355802524	0.023231848034
0	7196	82.820587650558	0.075090537417
0	7201	82.895678187975	0.001824479626
0	7203	82.897502667601	0.049474303391
0	7211	82.946976970992	0.080194105039
0	7216	83.027171076031	0.030615549022
0	7221	83.057786625053	0.006977500006
0	7223	83.064764125059	0.045411259034
0	7231	83.110175384093	0.055931204434
0	7236	83.166106588527	0.005345157449
0	7238	83.171451745976	0.072885342514
0	7247	83.24433708849	0.065738992215
0	7252	83.310076080705	0.060436361303
0	7257	83.370512442008	0.001804967732
0	7259	83.37231740974	0.191859525444
0	7268	83.564176935184	0.132049012462
0	7274	83.696225947646	0.006541911817
0	7276	83.702767859463	0.068764682104
0	7284	83.771532541567	0.121119825596
0	7289	83.892652367163	0.133157731306
0	7295	84.025810098469	0.001777485138
0	7297	84.027587583607	7.2498113e-005
0	7299	84.02766008172	0.045932344936
0	7301	84.073592426656	0.166086003461
0	7303	84.239678430117	0.031075406704
0	7305	84.270753836821	0.190645837288
0	7308	84.461399674109	0.044563424982
0	7311	84.505963099091	0.095472135801
0	7337	84.601435234892	0.027257254624
0	7342	84.628692489516	0.290255246944
0	7348	84.91894773646	0.012685270499
0	7353	84.931633006959	0.026331250623
0	7358	84.957964257582	0.001158486312
0	7360	84.959122743894	0.11316690641
0	7370	85.072289650304	0.043807321215
0	7375	85.116096971519	0.088356771753
0	7380	85.204453743272	0.111005353192
0	7385	85.315459096464	0.076491087153
0	7390	85.391950183617	0.028029193588
0	7395	85.419979377205	0.060211463274
0	7400	85.480190840479	0.015128380586
0	7405	85.495319221065	0.02203609005
0	7410	85.517355311115	0.005037602402
0	7412	85.522392913517	0.046237863648
0	7420	85.568630777165	0.005350264936
0	7422	85.573981042101	0.019259859474
0	7430	85.593240901575	0.015015196824
0	7435	85.608256098399	0.000523673778
0	7437	85.608779772177	0.006322568438
0	7439	85.615102340615	0.001515667308
0	7444	85.616618007923	0.018476327735
0	7452	85.635094335658	0.009349151167
0	7457	85.644443486825	0.004106332523
0	7462	85.648549819348	0.043263144265
0	7470	85.691812963613	0.004071352683
0	7472	85.695884316296	0.015112487082
0	7480	85.710996803378	0.116391705575
0	7486	85.827388508953	0.027673546656
0	7491	85.855062055609	0.010612842367
0	7496	85.865674897976	0.003401032869
0	7498	85.869075930845	0.049215539557
0	7506	85.918291470402	0.145280198787
0	7511	86.063571669189	0.089088844443
0	7516	86.152660513632	0.129744296564
0	7521	86.282404810196	0.036573550851
0	7526	86.318978361047	0.136543198984
0	7532	86.455521560031	0.009989411635
0	7537	86.465510971666	0.024225174427
0	7542	86.489736146093	0.013358331122
0	7547	86.503094477215	0.074881093877
0	7555	86.577975571092	0.03404208718
0	7561	86.612017658272	0.033406248686
0	7567	86.645423906958	0.04507634242
0	7572	86.690500249378	0.021545740969
0	7577	86.712045990347	0.025795332164
0	7583	86.737841322511	0.004380752631
0	7585	86.742222075142	0.091252554458
0	7594	86.8334746296	0.032874746262
0	7600	86.866349375862	0.083423359634
0	7605	86.949772735496	0.029492721525
0	7610	86.979265457021	0.157212094613
0	7615	87.136477551634	0.010489320002
0	7620	87.146966871636	0.001762796837
0	7622	87.148729668473	0.025866109633
0	7630	87.174595778106	0.135624026843
0	7635	87.310219804949	0.006030331424
0	7637	87.316250136373	0.029910979915
0	7645	87.346161116288	0.122924279614
0	7650	87.469085395902	0.126407527553
0	7656	87.595492923455	0.066083764698
0	7658	87.661576688153	0.070423063672
0	7660	87.731999751825	0.01284493168
0	7662	87.744844683505	0.262199985086
0	7666	88.007044668591	0.150129478952
0	7684	88.157174147543	0.085447860938
0	7689	88.242622008481	0.05200446424
0	7694	88.294626472721	0.0272048051
0	7699	88.321831277821	0.036517161243
0	7706	88.358348439064	0.041716546859
0	7711	88.400064985923	0.061692319097
0	7716	88.46175730502	0.028333724919
0	7721	88.490091029939	0.017583809867
0	7727	88.507674839806	0.027239486805
0	7732	88.534914326611	0.048054520972
0	7737	88.582968847583	0.018139688283
0	7742	88.601108535866	0.008487126299
0	7747	88.609595662165	0.041107204676
0	7752	88.650702866841	0.013427326328
0	7757	88.664130193169	0.068693186968
0	7763	88.732823380137	0.043299524861
0	7769	88.776122904998	0.019489008279
0	7774	88.795611913277	0.006154755594
0	7776	88.801766668871	0.044588139258
0	7784	88.846354808129	0.11457330111
0	7790	88.960928109239	0.00749165147
0	7795	88.968419760709	0.030205566927
0	7801	88.998625327636	0.010450153266
0	7806	89.009075480902	0.015922197466
0	7811	89.024997678368	0.002876231975
0	7813	89.027873910343	0.052831106299
0	7821	89.080705016642	0.21187448403
0	7828	89.292579500672	0.082423155881
0	7833	89.375002656553	0.000232069391
0	7835	89.375234725944	0.056341116211
0	7843	89.431575842155	0.011803241318
0	7848	89.443379083473	0.051908943535
0	7853	89.495288027008	0.056939180807
0	7858	89.552227207815	0.011186978051
0	7863	89.563414185866	0.005092284662
0	7865	89.568506470528	0.06957095796
0	7873	89.638077428488	0.128171635579
0	7878	89.766249064067	0.225820847612
0	7883	89.992069911679	0.076296600139
0	7888	90.068366511818	0.056280486936
0	7894	90.124646998754	0.203575842878
0	7902	90.328222841632	0.023883660299
0	7907	90.352106501931	0.042512164526
0	7912	90.394618666457	0.097379401024
0	7918	90.491998067481	0.021435107716
0	7923	90.513433175197	0.108606660688
0	7929	90.622039835885	0.04784390855
0	7934	90.669883744435	0.032197324978
0	7939	90.702081069413	0.16026149841
0	7946	90.862342567823	0.032231024225
0	7951	90.894573592048	0.044133405297
0	7956	90.938706997345	0.165513679375
0	7962	91.10422067672	0.018653523786
0	7964	91.122874200506	0.076847779384
0	7966	91.19972197989	0.125929105714
0	7968	91.325651085604	0.002007285548
0	7970	91.327658371152	0.027905144625
0	7972	91.355563515777	0.033301903519
0	7974	91.388865419296	8.3058756e-005
0	7976	91.388948478052	0.005915970012
0	7978	91.394864448064	0.017076011039
0	7980	91.411940459103	0.230514978208
0	8014	91.642455437311	0.022984084025
0	8019	91.665439521336	0.051369969444
0	8024	91.71680949078	0.117445103534
0	8029	91.834254594314	0.061915242175
0	8035	91.896169836489	0.036805083967
0	8040	91.932974920456	0.027197068249
0	8045	91.960171988705	0.035282628701
0	8050	91.995454617406	0.066105715039
0	8055	92.061560332445	0.024577629605
0	8060	92.08613796205	0.05089600859
0	8065	92.13703397064	0.127555834197
0	8070	92.264589804837	0.089414945201
0	8076	92.354004750038	0.174054542471
0	8082	92.528059292509	0.138216412598
0	8087	92.666275705107	0.288881879984
0	8093	92.955157585091	0.031081743427
0	8098	92.986239328518	0.028367612683
0	8103	93.014606941201	0.135425228498
0	8109	93.150032169699	0.203144454174
0	8115	93.353176623873	0.004037818032
0	8117	93.357214441905	0.094178301276
0	8125	93.451392743181	0.069401957382
0	8131	93.520794700563	0.067563167862
0	8136	93.588357868425	0.015765324596
0	8141	93.604123193021	0.01685346933
0	8146	93.620976662351	0.046444322561
0	8151	93.667420984912	0.014635780192
0	8156	93.682056765104	0.088977561863
0	8162	93.771034326967	0.01089475306
0	8167	93.781929080027	0.08236344035
0	8172	93.864292520377	0.153647634886
0	8177	94.017940155263	0.076685177633
0	8182	94.094625332896	0.020894918051
0	8187	94.115520250947	0.039570168004
0	8192	94.155090418951	0.036208727546
0	8197	94.191299146497	0.012941990477
0	8202	94.204241136974	0.040868116686
0	8207	94.24510925366	0.013807546089
0	8212	94.258916799749	0.090351068585
0	8217	94.349267868334	0.046003522928
0	8222	94.395271391262	0.111564394345
0	8228	94.506835785607	0.034555378372
0	8230	94.541391163979	0.008984712495
0	8232	94.550375876474	0.221308318529
0	8234	94.771684195003	0.033402159846
0	8236	94.805086354849	0.02147116034
0	8238	94.826557515189	0.111035138795
0	8241	94.937592653984	0.004935753928
0	8243	94.942528407912	0.102235896265
0	8266	95.044764304177	0.077870194149
0	8278	95.122634498326	0.006482764012
0	8280	95.129117262338	0.222359438239
0	8290	95.351476700577	0.010203425328
0	8295	95.361680125905	0.09142021682
0	8301	95.453100342725	0.021761468172
0	8306	95.474861810897	0.017025006152
0	8311	95.491886817049	0.004700988066
0	8313	95.496587805115	0.002234765538
0	8315	95.498822570653	0.03316796001
0	8326	95.531990530663	0.031345754601
0	8331	95.563336285264	0.006831639438
0	8333	95.570167924702	0.126101615045
0	8342	95.696269539747	0.050390010083
0	8347	95.74665954983	0.033937375261
0	8352	95.780596925091	0.016986109739
0	8357	95.79758303483	0.020051724898
0	8362	95.817634759728	0.054444775196
0	8367	95.872079534924	0.164281397716
0	8372	96.03636093264	0.007501532931
0	8377	96.043862465571	0.08877450848
0	8382	96.132636974051	0.223492462446
0	8387	96.356129436497	0.056648475124
0	8392	96.412777911621	0.161792091235
0	8398	96.574570002856	0.0001608395
0	8400	96.574730842356	0.029834788191
0	8408	96.604565630547	0.160859705385
0	8414	96.765425335932	0.016638451736
0	8419	96.782063787668	0.067221544965
0	8424	96.849285332633	0.017292790075
0	8429	96.866578122708	0.015252279763
0	8434	96.881830402471	0.039628433657
0	8439	96.921458836128	0.001503875253
0	8441	96.922962711381	0.002448870021
0	8443	96.925411581402	0.000449780667
0	8445	96.925861362069	0.061249945143
0	8459	96.987111307212	0.157369531314
0	8466	97.144480838526	0.031485626644
0	8472	97.17596646517	0.070884323915
0	8477	97.246850789085	0.02843169474
0	8482	97.275282483825	0.073276810614
0	8487	97.348559294439	0.09944367124
0	8492	97.448002965679	0.054390076633
0	8498	97.502393042312	0.074073232187
0	8503	97.576466274499	0.046232239246
0	8508	97.622698513745	0.185183828333
0	8514	97.807882342078	0.036481897546
0	8520	97.844364239624	0.02602597137
0	8525	97.870390210994	0.055006432301
0	8530	97.925396643295	0.136698584568
0	8536	98.062095227863	0.063693198978
0	8539	98.125788426841	0.088171998952
0	8541	98.213960425793	0.028012330648
0	8543	98.241972756441	0.02653627134
0	8546	98.268509027781	0.066199518162
0	8549	98.334708545943	0.058318583585
0	8551	98.393027129528	0.036626012582
0	8553	98.42965314211	0.020428691492
0	8555	98.450081833602	0.005334253494
0	8557	98.455416087096	0.124479142944
0	8590	98.57989523004	0.015929702559
0	8595	98.595824932599	0.007155892199
0	8597	98.602980824798	0.005092423429
0	8602	98.608073248227	0.014328513567
0	8610	98.622401761794	0.023318013974
0	8615	98.645719775768	0.012129416175
0	8620	98.657849191943	0.056701079437
0	8625	98.71455027138	0.030952903352
0	8630	98.745503174732	0.027496473783
0	8635	98.772999648515	0.08204434314
0	8641	98.855043991655	0.077727399836
0	8646	98.932771391491	0.044907854095
0	8651	98.977679245586	0.068003295618
0	8656	99.045682541204	0.04012792105
0	8661	99.085810462254	0.00937755855
0	8666	99.095188020804	3.2767198e-005
0	8668	99.095220788002	0.011038436618
0	8673	99.10625922462	0.033245048691
0	8681	99.139504273311	0.003996308234
0	8683	99.143500581545	0.003939791111
0	8688	99.147440372656	0.018418642953
0	8696	99.165859015609	0.014010822362
0	8701	99.179869837971	0.025695481729
0	8706	99.2055653197	0.161643461099
0	8711	99.367208780799	0.005543251125
0	8713	99.372752031924	0.014554737533
0	8721	99.387306769457	0.055312755497
0	8727	99.442619524954	0.117258526302
0	8734	99.559878051256	0.07518468564
0	8739	99.635062736896	0.097440626628
0	8744	99.732503363524	0.010263109142
0	8749	99.742766472666	0.010400251274
0	8754	99.75316672394	0.025125561135
0	8759	99.778292285075	0.055840413397
0	8764	99.834132698472	0.077951959946
0	8770	99.912084658418	0.007374947289
0	8772	99.919459605707	0.065316970383
0	8780	99.98477657609	0.078092526507
0	8785	100.062869102597	0.115638269835
0	8790	100.178507372432	0.060877605256
0	8796	100.239384977688	0.048527407577
0	8801	100.287912385265	0.100259194512
0	8806	100.388171579777	0.001565637898
0	8808	100.389737217675	0.039164617233
0	8816	100.428901834908	0.003541743171
0	8818	100.432443578079	0.147809677751
0	8826	100.58025325583	0.005006881054
0	8828	100.585260136884	0.003036492559
0	8830	100.588296629443	0.04368137298
0	8841	100.631978002423	0.020794020548
0	8846	100.652772022971	0.084415832717
0	8851	100.737187855688	0.07532704029
0	8856	100.812514895978	0.001968333283
0	8858	100.814483229261	0.03248834962
0	8866	100.846971578881	0.036604247477
0	8871	100.883575826358	0.011393505448
0	8876	100.894969331806	0.104508841288
0	8881	100.999478173094	0.006804283332
0	8883	101.006282456426	0.066266808299
0	8891	101.072549264725	0.102007435756
0	8898	101.174556700481	0.04736859569
0	8903	101.221925296171	0.03844956429
0	8908	101.260374860461	0.053322241657
0	8913	101.313697102118	0.128368651379
0	8918	101.442065753497	0.13607942345
0	8924	101.578145176947	0.079295406371
0	8927	101.657440583318	0.051350953287
0	8929	101.708791536605	0.031630127382
0	8931	101.740421663987	0.032872121639
0	8933	101.773293785626	0.028057444636
0	8936	101.801351230262	0.072831633784
0	8938	101.874182864046	0.043495406178
0	8941	101.917678270224	0.026515991332
0	8943	101.944194261556	0.13192591738
0	8973	102.076120178936	0.216519301016
0	8978	102.292639479952	0.080199662325
0	8985	102.372839142277	0.123485470659
0	8990	102.496324612936	0.000309977166
0	8992	102.496634590102	0.010222641521
0	8997	102.506857231623	0.071081169039
0	9005	102.577938400662	0.069144661163
0	9010	102.647083061825	0.151175409537
0	9015	102.798258471362	0.002079882154
0	9017	102.800338353516	0.074366829527
0	9026	102.874705183043	0.129877630541
0	9031	103.004582813584	0.011688365791
0	9036	103.016271179375	0.111803159028
0	9041	103.128074338403	0.039642905605
0	9046	103.167717244008	0.042816669195
0	9051	103.210533913203	0.009071425587
0	9056	103.21960533879	0.008196531581
0	9061	103.227801870371	0.026683107297
0	9066	103.254484977668	0.058288077214
0	9071	103.312773054882	0.165988810083
0	9076	103.478761864965	0.016413891735
0	9081	103.4951757567	0.154075363186
0	9086	103.649251119886	0.059796556749
0	9091	103.709047676635	0.019947115295
0	9096	103.72899479193	0.071000371401
0	9102	103.799995163331	0.024897394963
0	9107	103.824892558294	0.006740080839
0	9109	103.831632639133	0.055009382238
0	9117	103.886642021371	0.038884221581
0	9122	103.925526242952	0.198131037147
0	9128	104.123657280099	0.052854457037
0	9133	104.176511737136	0.009596136232
0	9138	104.186107873368	0.017551684375
0	9143	104.203659557743	0.017816823527
0	9148	104.22147638127	0.013464432212
0	9153	104.234940813482	0.124077738909
0	9159	104.359018552391	0.060942760383
0	9164	104.419961312774	0.040623702741
0	9169	104.460585015515	0.085813160895
0	9174	104.54639817641	0.137534977551
0	9179	104.683933153961	0.026693908139
0	9184	104.7106270621	0.0123121691
0	9189	104.7229392312	0.074044801604
0	9194	104.796984032804	0.04564299611
0	9199	104.842627028914	0.053113010679
0	9204	104.895740039593	0.023695517525
0	9209	104.919435557118	0.099515603214
0	9215	105.018951160332	0.022835453959
0	9217	105.041786614291	0.013694797392
0	9220	105.055481411683	0.035530488239
0	9222	105.091011899922	0.095494926785
0	9224	105.186506826707	0.03405195503
0	9226	105.220558781737	0.018588128074
0	9228	105.239146909811	0.026529010316
0	9230	105.265675920127	0.021251916845
0	9232	105.286927836972	0.147885608185
0	9235	105.434813445157	0.229474179386
0	9270	105.664287624543	0.078948853907
0	9275	105.74323647845	0.002826350249
0	9277	105.746062828699	0.078017348522
0	9285	105.824080177221	0.012625014194
0	9290	105.836705191415	0.020542104772
0	9295	105.857247296187	0.044147599621
0	9300	105.901394895808	0.051723697638
0	9305	105.953118593446	0.028295743227
0	9310	105.981414336673	0.090624289121
0	9315	106.072038625794	0.016632206311
0	9320	106.088670832105	0.095257757254
0	9325	106.183928589359	0.069225825802
0	9330	106.253154415161	0.025344206964
0	9335	106.278498622125	0.066381183898
0	9340	106.344879806023	0.088408666599
0	9346	106.433288472622	0.199024042663
0	9352	106.632312515285	0.079884261027
0	9357	106.712196776312	0.126520048913
0	9362	106.838716825225	0.009154568888
0	9367	106.847871394113	0.357974141985
0	9372	107.205845536098	0.120570517002
0	9379	107.3264160531	0.027048588638
0	9384	107.353464641738	0.034930863188
0	9389	107.388395504926	0.002777370355
0	9391	107.391172875281	0.039979852561
0	9400	107.431152727842	0.023608943818
0	9405	107.45476167166	0.035692575354
0	9411	107.490454247014	0.041219738154
0	9416	107.531673985168	0.050338396976
0	9421	107.582012382144	0.011338711003
0	9426	107.593351093147	0.058239944871
0	9431	107.651591038018	0.005334861741
0	9433	107.656925899759	0.041370775315
0	9441	107.698296675074	0.03616865448
0	9446	107.734465329554	0.12094904786
0	9452	107.855414377414	0.161884982577
0	9457	108.017299359991	0.05928891919
0	9462	108.076588279181	0.0864234963
0	9467	108.163011775481	0.030792502874
0	9472	108.193804278355	0.022393183701
0	9477	108.216197462056	0.032342370512
0	9482	108.248539832568	0.131686022927
0	9487	108.380225855495	0.099909283643
0	9493	108.480135139138	0.071695688002
0	9499	108.55183082714	0.025680309028
0	9501	108.577511136168	0.037343881461
0	9503	108.614855017629	0.014253932576
0	9505	108.629108950205	0.018442036365
0	9507	108.64755098657	0.003673165927
0	9509	108.651224152497	0.051415386089
0	9512	108.702639538586	0.125261415788
0	9514	108.827900954374	0.013007401545
0	9516	108.840908355919	0.150463340116
0	9520	108.991371696035	0.081109325164
0	9553	109.072481021199	0.007678196692
0	9558	109.080159217891	0.165808586435
0	9563	109.245967804326	0.024430630832
0	9568	109.270398435158	0.064599518931
0	9573	109.334997954089	0.011569379328
0	9578	109.346567333417	0.077457762335
0	9583	109.424025095752	0.007391002337
0	9588	109.431416098089	0.010782663555
0	9593	109.442198761644	0.138075201962
0	9599	109.580273963606	0.082752921044
0	9605	109.66302688465	0.003513530899
0	9607	109.666540415549	0.041272486289
0	9615	109.707812901838	0.236196367789
0	9620	109.944009269627	0.005486318882
0	9622	109.949495588509	0.006085487003
0	9627	109.955581075512	0.029309357183
0	9635	109.984890432695	0.11947293843
0	9640	110.104363371125	0.0784374831
0	9647	110.182800854225	0.050152654052
0	9653	110.232953508277	0.051794912656
0	9658	110.284748420933	0.02752412048
0	9663	110.312272541413	0.021950090348
0	9668	110.334222631761	0.025144248214
0	9673	110.359366879975	0.269237904674
0	9679	110.628604784649	0.08497160883
0	9685	110.713576393479	0.051203441173
0	9692	110.764779834652	0.022662822332
0	9697	110.787442656984	0.173969919221
0	9703	110.961412576205	0.064257302782
0	9708	111.025669878987	0.049228054075
0	9713	111.074897933062	0.043704838525
0	9718	111.118602771587	0.049898577162
0	9723	111.168501348749	0.039811301096
0	9728	111.208312649845	0.003151565421
0	9730	111.211464215266	0.138856493917
0	9738	111.350320709183	0.006594166511
0	9740	111.356914875694	0.048533021317
0	9748	111.405447897011	0.057183205571
0	9753	111.462631102582	0.10521984104
0	9758	111.567850943622	0.078924149554
0	9763	111.646775093176	0.077584316273
0	9768	111.724359409449	0.016785408144
0	9773	111.741144817593	0.002359214996
0	9775	111.743504032589	0.199413727584
0	9784	111.942917760173	0.088997411898
0	9790	112.031915172071	0.081110811414
0	9792	112.113025983485	0.014667413556
0	9794	112.127693397041	0.016309411141
0	9796	112.144002808182	0.140075293324
0	9799	112.284078101506	0.062040349364
0	9801	112.34611845087	0.002632360677
0	9803	112.348750811547	0.024908783669
0	9805	112.373659595216	0.024304393751
0	9807	112.397963988967	0.078002760551
0	9809	112.475966749518	0.006303829974
0	9811	112.482270579492	0.05270972943
0	9826	112.534980308922	0.038728786262
0	9846	112.573709095184	0.084796188917
0	9857	112.658505284101	0.102895386246
0	9863	112.761400670347	0.017378141876
0	9868	112.778778812223	0.021245328006
0	9873	112.800024140229	0.16155599206
0	9878	112.961580132289	0.009817164811
0	9883	112.9713972971	0.297721964694
0	9889	113.269119261794	0.024052572819
0	9894	113.293171834613	0.01078584529
0	9899	113.303957679903	0.100881863715
0	9905	113.404839543618	0.043157806336
0	9910	113.447997349954	0.009076166703
0	9915	113.457073516657	0.11947538948
0	9920	113.576548906137	0.015476713757
0	9925	113.592025619894	0.025634856978
0	9931	113.617660476872	0.004280220385
0	9933	113.621940697257	0.016674782808
0	9941	113.638615480065	0.073391384433
0	9946	113.712006864498	0.078797181321
0	9952	113.790804045819	0.030174745001
0	9957	113.82097879082	0.227701940023
0	9962	114.048680730843	0.022336906988
0	9967	114.071017637831	0.04204026253
0	9972	114.113057900361	0.076084315431
0	9977	114.189142215792	0.029897329033
0	9982	114.219039544825	0.02456635876
0	9987	114.243605903585	0.029848198645
0	9992	114.27345410223	0.078066758272
0	9997	114.351520860502	0.094940439017
0	10002	114.446461299519	0.101308669681
0	10008	114.5477699692	0.073462982159
0	10013	114.621232951359	0.014728168928
0	10018	114.635961120287	0.023044294302
0	10023	114.659005414589	0.218562581281
0	10028	114.87756799587	0.220353575114
0	10034	115.097921570984	0.010629864655
0	10039	115.108551435639	0.13330483215
0	10045	115.241856267789	0.0206205231
0	10050	115.262476790889	0.072424269654
0	10055	115.334901060543	0.011892079233
0	10060	115.346793139776	0.034872438187
0	10065	115.381665577963	0.025433540419
0	10070	115.407099118382	0.013938321849
0	10075	115.421037440231	0.039242613751
0	10080	115.460280053982	0.065611162629
0	10086	115.525891216611	0.044310752221
0	10088	115.570201968832	0.08411861682
0	10090	115.654320585652	0.115287236159
0	10093	115.769607821811	0.055592214632
0	10095	115.825200036443	0.132136106726
0	10097	115.957336143169	0.041065136494
0	10101	115.998401279663	0.014915671456
0	10107	116.013316951119	0.007536620961
0	10112	116.02085357208	0.058513742546
0	10135	116.079367314626	0.092151891947
0	10140	116.171519206573	0.007092971702
0	10145	116.178612178275	0.040588192792
0	10150	116.219200371067	0.036856816717
0	10155	116.256057187784	0.11549615026
0	10162	116.371553338044	0.023346003504
0	10167	116.394899341548	0.008688968069
0	10172	116.403588309617	0.022831782606
0	10177	116.426420092223	0.201297862762
0	10183	116.627717954985	0.03953451281
0	10188	116.667252467795	0.040542138946
0	10194	116.707794606741	0.078521709584
0	10199	116.786316316325	0.004506070252
0	10201	116.790822386577	0.004301533083
0	10206	116.79512391966	0.01971972346
0	10214	116.81484364312	0.126803897057
0	10219	116.941647540177	0.139723553231
0	10224	117.081371093408	0.079639378349
0	10229	117.161010471757	0.024389554054
0	10234	117.185400025811	0.011651458727
0	10239	117.197051484538	0.210549876549
0	10244	117.407601361087	0.167971366108
0	10249	117.575572727195	0.035232322278
0	10255	117.610805049473	0.042351119707
0	10261	117.65315616918	0.027441474687
0	10266	117.680597643867	0.513661095559
0	10272	118.194258739426	0.093573076903
0	10277	118.287831816329	0.01318342473
0	10282	118.301015241059	0.03776747408
0	10287	118.338782715139	0.045931228431
0	10292	118.38471394357	0.004714453617
0	10294	118.389428397187	0.020570383552
0	10302	118.409998780739	0.105909706774
0	10307	118.515908487513	0.021759300782
0	10313	118.537667788295	0.093771093264
0	10318	118.631438881559	0.053651999413
0	10323	118.685090880972	0.043415506086
0	10328	118.728506387058	0.152847075054
0	10333	118.881353462112	0.000583830356
0	10335	118.881937292468	0.098166584436
0	10343	118.980103876904	0.008795747553
0	10348	118.988899624457	0.077228526349
0	10355	119.066128150806	0.074685724728
0	10358	119.140813875534	0.049146272603
0	10360	119.189960148137	0.053621513505
0	10362	119.243581661642	0.153292847384
0	10366	119.396874509026	0.072247269607
0	10368	119.469121778633	0.040679131303
0	10374	119.509800909936	0.026864896485
0	10388	119.536665806421	0.12420854029
0	10399	119.660874346711	0.059554147071
0	10405	119.720428493782	0.10773941633
0	10410	119.828167910112	0.03423736548
0	10415	119.862405275592	0.014435341665
0	10420	119.876840617257	0.032045759278
0	10425	119.908886376535	0.088501098874
0	10430	119.997387475409	0.032171951408
0	10435	120.029559426817	0.000734750331
0	10437	120.030294177148	0.001954839215
0	10439	120.032249016363	0.023389934791
0	10450	120.055638951154	0.003776068912
0	10452	120.059415020066	0.015648189374
0	10460	120.07506320944	0.113555479744
0	10465	120.188618689184	0.042418089843
0	10470	120.231036779027	0.07135008447
0	10476	120.302386863497	0.08010258506
0	10481	120.382489448557	0.015713975435
0	10486	120.398203423992	0.006166921921
0	10488	120.404370345913	0.007542413326
0	10493	120.411912759239	0.043406760004
0	10501	120.455319519243	0.002493727128
0	10503	120.457813246371	0.167237317961
0	10511	120.625050564332	0.039201808033
0	10516	120.664252372365	0.015576514781
0	10521	120.679828887146	0.053199128076
0	10526	120.733028015222	0.067832401808
0	10531	120.80086041703	0.136941033899
0	10536	120.937801450929	0.053918877282
0	10541	120.991720328211	0.151747886398
0	10546	121.143468214609	0.000606880537
0	10548	121.144075095146	0.027365505944
0	10556	121.17144060109	0.038755917214
0	10561	121.210196518304	0.160279480225
0	10567	121.370475998529	0.074018596656
0	10572	121.444494595185	0.047350329945
0	10577	121.49184492513	0.002698300076
0	10579	121.494543225206	0.051211900221
0	10588	121.545755125427	0.126977030882
0	10593	121.672732156309	0.011807307967
0	10598	121.684539464276	0.04404832898
0	10603	121.728587793256	0.007388490415
0	10608	121.735976283671	0.001868456007
0	10610	121.737844739678	0.016812688686
0	10618	121.754657428364	0.015248154772
0	10623	121.769905583136	0.007963141791
0	10628	121.777868724927	0.184325318413
0	10633	121.96219404334	0.015161422615
0	10638	121.977355465955	0.052382343103
0	10643	122.029737809058	0.046567390657
0	10648	122.076305199715	0.006821881705
0	10650	122.08312708142	0.121613217425
0	10658	122.204740298845	0.02034226966
0	10663	122.225082568505	0.09508114241
0	10668	122.320163710915	0.036606018132
0	10673	122.356769729047	0.001973476188
0	10675	122.358743205235	0.001270357911
0	10677	122.360013563146	0.071950541764
0	10689	122.43196410491	0.031822479892
0	10694	122.463786584802	0.002875315026
0	10696	122.466661899828	0.0403370167
0	10705	122.506998916528	0.373645930079
0	10709	122.880644846607	0.016757274121
0	10711	122.897402120728	0.091980384346
0	10713	122.989382505074	0.053297046129
0	10728	123.042679551203	0.015789653796
0	10733	123.058469204999	0.083960373745
0	10739	123.142429578744	0.040413647428
0	10744	123.182843226172	0.016138231701
0	10749	123.198981457873	0.081778399901
0	10754	123.280759857774	0.058134024174
0	10760	123.338893881948	0.109882378806
0	10765	123.448776260754	0.061236149079
0	10770	123.510012409833	0.015592917125
0	10775	123.525605326958	0.178017379625
0	10780	123.703622706583	0.008628681287
0	10785	123.71225138787	0.090379359736
0	10790	123.802630747606	0.160485563632
0	10796	123.963116311238	0.113168929614
0	10803	124.076285240852	0.066658400782
0	10808	124.142943641634	0.040450093768
0	10815	124.183393735402	0.125386433261
0	10820	124.308780168663	0.012299698443
0	10825	124.321079867106	0.015867873715
0	10830	124.336947740821	0.328579131084
0	10837	124.665526871905	0.008265902613
0	10842	124.673792774518	0.008311310527
0	10847	124.682104085045	0.025876999929
0	10852	124.707981084974	0.038257903155
0	10857	124.746238988129	0.017477309004
0	10862	124.763716297133	0.004231341876
0	10864	124.767947639009	0.004532187655
0	10869	124.772479826664	0.17278462688
0	10878	124.945264453544	0.062050274326
0	10883	125.00731472787	0.201015906342
0	10889	125.208330634212	0.01735795969
0	10894	125.225688593902	0.076247167163
0	10899	125.301935761065	0.035894712921
0	10904	125.337830473986	0.025846314785
0	10909	125.363676788771	0.020405974989
0	10914	125.38408276376	0.017612544201
0	10919	125.401695307961	0.15244460623
0	10925	125.554139914191	0.018497853076
0	10931	125.572637767267	0.035893042486
0	10936	125.608530809753	0.008169394402
0	10941	125.616700204155	0.127144197167
0	10947	125.743844401322	0.04476869982
0	10953	125.788613101142	0.00270086885
0	10955	125.791313969992	0.009176294205
0	10960	125.800490264197	0.046046635382
0	10968	125.846536899579	0.022851969262
0	10973	125.869388868841	0.036168834263
0	10978	125.905557703104	0.059123414673
0	10983	125.964681117777	0.023681987953
0	10988	125.98836310573	0.078016603767
0	10994	126.066379709497	0.021416738177
0	10996	126.087796447674	0.001474328746
0	10998	126.08927077642	0.018619236882
0	11000	126.107890013302	0.033739345498
0	11002	126.1416293588	0.013353338219
0	11004	126.154982697019	0.063354653959
0	11006	126.218337350978	0.040711172909
0	11008	126.259048523887	0.11513984548
0	11010	126.374188369367	0.025399824363
0	11013	126.39958819373	0.038698550261
0	11015	126.438286743991	0.024082456513
0	11017	126.462369200504	0.208825885222
0	11056	126.671195085726	0.004110040907
0	11058	126.675305126633	0.018524746077
0	11066	126.69382987271	0.000837724095
0	11068	126.694667596805	0.000816046559
0	11070	126.695483643364	0.145591533547
0	11081	126.841075176911	0.039670181047
0	11086	126.880745357958	0.032041400443
0	11091	126.912786758401	0.017752032431
0	11096	126.930538790832	0.067814450336
0	11102	126.998353241168	0.10414010697
0	11109	127.102493348138	0.036132497643
0	11114	127.138625845781	0.015898328143
0	11119	127.154524173924	0.013436457627
0	11124	127.167960631551	0.022318560506
0	11129	127.190279192057	0.159107437525
0	11134	127.349386629582	0.093990588311
0	11140	127.443377217893	0.007851776147
0	11142	127.45122899404	0.075346131708
0	11150	127.526575125748	0.039394478549
0	11155	127.565969604297	0.048993679864
0	11160	127.614963284161	0.00577268965
0	11162	127.620735973811	0.073236232312
0	11170	127.693972206123	0.015625504169
0	11175	127.709597710292	0.032542781623
0	11180	127.742140491915	0.069390045969
0	11185	127.811530537884	0.000319451904
0	11187	127.811849989788	0.044845120531
0	11195	127.856695110319	0.000685205193
0	11197	127.857380315512	0.047917729826
0	11205	127.905298045338	0.042950786839
0	11210	127.948248832177	0.107112847055
0	11215	128.055361679232	0.005217910661
0	11217	128.060579589893	0.003762214335
0	11222	128.064341804228	0.003145561131
0	11224	128.067487365359	0.141123353104
0	11236	128.208610718463	0.202036698732
0	11241	128.410647417195	0.063200136812
0	11246	128.473847554007	0.117540847229
0	11251	128.591388401236	0.06145048674
0	11256	128.652838887976	0.009894405356
0	11262	128.662733293332	0.001840432541
0	11264	128.664573725873	3.9866173e-005
0	11266	128.664613592046	0.144525164442
0	11278	128.809138756488	0.170496057351
0	11284	128.979634813839	0.001702856927
0	11286	128.981337670766	0.019570847851
0	11294	129.000908518617	0.012307018531
0	11299	129.013215537148	0.012340147198
0	11304	129.025555684346	0.135750648227
0	11309	129.161306332573	0.070563583633
0	11315	129.231869916206	0.008130469658
0	11320	129.240000385864	0.006918169432
0	11322	129.246918555296	0.03044868984
0	11330	129.277367245136	0.01844448901
0	11335	129.295811734146	0.08563928188
0	11340	129.381451016026	0.221560423273
0	11346	129.603011439299	0.049662109305
0	11348	129.652673548604	0.061209603682
0	11350	129.713883152286	0.07866632782
0	11353	129.792549480106	0.044122934543
0	11355	129.836672414649	0.012854455308
0	11357	129.849526869957	0.030441759365
0	11359	129.879968629322	0.031867051147
0	11361	129.911835680469	0.089366362207
0	11364	130.001202042676	0.041395714308
0	11384	130.042597756984	0.009116211516
0	11389	130.0517139685	0.016752962297
0	11397	130.068466930797	0.20529220477
[...]
21	16219	189.222331659597	0.87606175606674
21	16306	190.098393415664	4.4068659490538
21	16755	194.505259364718	0.98663025837274
21	16832	195.491889623091	4.4661431570037
21	17206	199.958032780095	2.2217815092785
21	17406	202.179814289373	3.1909639217887
21	17644	205.370778211162	6.9758605017895
21	18298	212.346638712951	0.31098129837197
21	18352	212.657620011323	7.0254177062207
21	18988	219.683037717544	0.30307877653036
21	19005	219.986116494074	0.53086832904459
21	19046	220.516984823119	0.80191826174657
21	19127	221.318903084866	1.0679738269862
21	19208	222.386876911852	4.621707039762
21	19579	227.008583951614	0.056808935722111
21	19587	227.065392887336	0.1093228705379
21	19608	227.174715757874	1.2520511781996
21	19712	228.426766936074	1.838349475002
21	19877	230.265116411076	2.1489325487024
21	20073	232.414048959778	1.9882756571201
21	20241	234.402324616898	0.59816509434225
21	20267	235.00048971124	1.1477304003919
21	20415	236.148220111632	7.2082079621631
21	21039	243.356428073795	9.9266505759847
21	22068	253.28307864978	0.13739984187845
21	22093	253.420478491658	2.3715456631246
21	22310	255.792024154783	1.3785123477652
21	22423	257.170536502548	2.4910810131701
21	22658	259.661617515718	1.2361988432705
21	22766	260.897816358988	1.7080632369898
21	22909	262.605879595978	4.8589041905876
21	23350	267.464783786566	3.1805859436672
21	23600	270.645369730233	9.0658441176437
21	24333	279.711213847877	3.7832006859551
21	24646	283.494414533832	2.688575249453
21	24859	286.182989783285	2.9895682007513
21	25142	289.172557984036	2.1036708038978
21	25299	291.276228787934	0.68400129634766
21	25372	291.960230084282	7.6942945797673
21	26094	299.654524664049	0.65827737038759
21	26135	300.312802034437	0.22522252202023
21	26160	300.538024556457	5.6145069908601
21	26690	306.152531547317	5.0222124473151
21	27132	311.174743994632	1.0294079046215
21	27222	312.204151899253	1.5195563816163
21	27346	313.723708280869	2.4014336588241
21	27547	316.125141939693	0.070138628219987
21	27548	316.195280567913	0.66229776739992
21	27607	316.857578335313	1.8456268677224
21	27793	318.703205203035	2.4469187343929
21	27993	321.150123937428	0.940896399422
21	28060	322.09102033685	6.2484538519318
21	28590	328.339474188782	1.5921570156928
21	28711	329.931631204475	3.6077880801025
21	29056	333.539419284578	10.154275731826
21	29913	343.693695016404	3.291200027072
21	30127	346.984895043476	1.1300566545734
21	30236	348.114951698049	3.0881994350532
21	30453	351.203151133102	1.0771264163634
21	30530	352.280277549465	4.964005833416
21	31031	357.244283382881	2.5935700301847
21	31241	359.837853413066	2.9348273964876
21	31510	362.772680809554	0.45043595099635
21	31565	363.22311676055	0.6628849668934
21	31620	363.886001727443	0.49965452261994
21	31671	364.385656250063	2.899856074574
21	31965	367.285512324637	0.36187572482602
21	31988	367.647388049463	3.7857964792885
21	32337	371.433184528751	1.2623071025507
21	32461	372.695491631302	1.7926049763685
21	32645	374.488096607671	2.6702586017472
21	32841	377.158355209418	2.3991615954015
21	33057	379.557516804819	0.0061931119847609
21	33058	379.563709916804	0.33410179210719
21	33091	379.897811708911	10.339762547261
21	34093	390.237574256172	5.1984441166045
21	34612	395.436018372776	5.8653783732536
22	1120	12.313726549034	3.1862583372779
22	1386	15.499984886312	0.48249557913301
22	1444	15.982480465445	10.018987674326
22	2274	26.001468139771	2.1716798347672
22	2456	28.173147974538	1.6944612178096
22	2640	29.867609192348	10.578273787286
22	3557	40.445882979634	0.90228066555986
22	3646	41.348163645194	5.3516756987192
22	4103	46.699839343913	1.4707337582
22	4254	48.170573102113	1.6079474280271
22	4440	49.77852053014	10.825848372382
22	5288	60.604368902522	4.1442533517777
22	5692	64.7486222543	0.91867287064434
22	5749	65.667295124944	7.3572769111096
22	6335	73.024572036054	1.1628103702879
22	6456	74.187382406342	0.97486119405509
22	6531	75.162243600397	0.35156775325492
22	6538	75.513811353652	0.96086066612019
22	6599	76.474672019772	1.0494057342004
22	6685	77.524077753972	0.72592570725655
22	6762	78.250003461229	0.95994590661269
22	6835	79.209949367842	0.9665632727378
22	6915	80.17651264058	0.47069961539469
22	6964	80.647212255975	0.79235858753533
22	7053	81.43957084351	0.52912139772893
22	7119	81.968692241239	0.52830247781598
22	7157	82.496994719055	5.4331507610799
22	7664	87.930145480135	2.6731995972103
22	7928	90.603345077345	1.6989573923134
22	8075	92.302302469658	2.6541887103624
22	8245	94.95649118002	6.1937141206312
22	8897	101.150205300651	1.2098342015302
22	8984	102.360039502181	6.5101318526832
22	9518	108.870171354864	1.3116681563967
22	9646	110.181839511261	0.67259112459458
22	9702	110.854430635856	2.5338239032597
22	9904	113.388254539116	5.8656955440101
22	10364	119.253950083126	7.8176161522971
22	11107	127.071566235423	3.9355672715841
22	11437	131.007133507007	8.836449034655
22	12168	139.843582541662	1.2450161362636
22	12283	141.088598677926	11.809727581967
22	13242	152.898326259893	1.9487482334808
22	13344	154.847074493374	0.73734609190123
22	13392	155.584420585275	2.8166073127921
22	13672	158.401027898067	15.865257109258
22	15016	174.266285007325	3.9169182748501
22	15358	178.183203282175	3.3087586650785
22	15661	181.491961947253	1.2346078007853
22	15749	182.726569748038	2.2913636997101
22	15917	185.017933447748	2.4416097452652
22	16113	187.459543193013	4.1464891592869
22	16451	191.6060323523	1.2409544370202
22	16578	192.84698678932	1.0331285850609
22	16697	193.880115374381	3.1390155621175
22	16972	197.019130936498	1.1198480092885
22	17043	198.138978945786	3.8392266098838
22	17396	201.97820555567	0.15986738708026
22	17400	202.13807294275	9.256225016453
22	18212	211.394297959203	0.79063712565201
22	18266	212.184935084855	3.6674596460812
22	18686	215.852394730936	0.66193960521858
22	18736	216.514334336155	3.7468263848137
22	19026	220.261160720969	5.9409930474139
22	19509	226.202153768383	0.42076862074789
22	19527	226.622922389131	6.2609716335039
22	20122	232.883894022635	3.7023224311994
22	20443	236.586216453834	2.9341756749721
22	20732	239.520392128806	1.2540401393417
22	20818	240.774432268148	3.3026825819097
22	21110	244.077114850058	2.486392409993
22	21429	246.563507260051	0.76081337169809
22	21515	247.324320631749	8.499947440247
22	22313	255.824268071996	2.2191950981115
22	22521	258.043463170108	0.59422897065781
22	22598	258.637692140766	1.5331996583927
22	22695	260.170891799159	3.2597713842356
22	22972	263.430663183395	0.51088862775603
22	23036	263.941551811151	8.4483585141455
22	23747	272.389910325296	0.50502704516982
22	23758	272.894937370466	2.6424482606555
22	24005	275.537385631122	0.83710577965915
22	24070	276.374491410781	0.61436485784592
22	24127	276.988856268627	12.065298264513
22	25133	289.05415453314	1.8665980004763
22	25286	290.920752533616	3.6876676456264
22	25636	294.608420179242	1.6050012337176
22	25783	296.21342141296	3.3172476771312
22	26081	299.530669090091	1.6917303038527
22	26232	301.222399393944	1.6531149545935
22	26399	302.875514348538	3.7070296323719
22	26749	306.58254398091	0.82553864917414
22	26816	307.408082630084	0.042004159567686
22	26822	307.450086789652	5.2598812079225
22	27276	312.709967997574	2.051148364348
22	27404	314.761116361922	3.6336194384459
22	27769	318.394735800368	4.6894102054842
22	28151	323.084146005852	0.48800823692163
22	28182	323.572154242774	0.5189371974841
22	28240	324.091091440258	0.78984548546715
22	28317	324.880936925725	1.3335297940629
22	28391	326.214466719788	6.1599541647163
22	28945	332.374420884504	0.8340631380041
22	29013	333.208484022508	6.230504218393
22	29507	339.438988240901	14.457035886657
22	30703	353.896024127558	2.923300004334
22	30986	356.819324131892	0.38895453056547
22	31025	357.208278662457	0.39939487707682
22	31059	357.607673539534	0.73313791883415
22	31153	358.340811458368	2.2638161471731
22	31329	360.604627605541	0.35990456876535
22	31340	360.964532174306	5.2479190285141
22	31859	366.21245120282	0.1621953014486
22	31870	366.374646504269	0.34937291361277
22	31894	366.724019417882	0.69283328497174
22	31976	367.416852702854	0.65577660925064
22	32036	368.072629312105	2.2920911801722
22	32263	370.364720492277	8.1085284854786
22	32924	378.473248977756	0.65017729126694
22	33022	379.123426269023	0.34829611986583
22	33052	379.471722388889	0.029300814333314
22	33056	379.501023203222	1.0321906486021
22	33148	380.533213851824	1.6222694190236
22	33282	382.155483270848	1.9598394818668
22	33475	384.115322752715	1.3537041572767
22	33569	385.469026909992	7.098919842925
22	34297	392.567946752917	0.37991568916569
22	34346	392.947862442083	1.5636143231781
22	34524	394.511476765261	2.9909686982136
22	34749	397.502445463475	1.4692925182006
22	34852	398.971737981676	2.2804519049435
23	1190	13.034736668212	4.7264103624311
23	1596	17.761147030643	6.6087639146457
23	2160	24.369910945289	0.25698387981324
23	2176	24.626894825102	8.8747559547331
23	2944	33.501650779835	1.9676799423511
23	3053	35.469330722186	2.2274338054403
23	3261	37.696764527626	2.1035407124729
23	3491	39.800305240099	2.4198470712186
23	3719	42.220152311318	7.8333183271819
23	4456	50.0534706385	1.2552480548093
23	4545	51.308718693309	9.8470108292533
23	5343	61.155729522562	4.807173226955
23	5768	65.962902749517	1.6328135283263
23	5901	67.595716277843	7.4928350381844
23	6530	75.088551316027	1.8694230725
23	6647	76.957974388527	2.1699481596215
23	6824	79.127922548148	5.5951807101777
23	7347	84.723103258326	1.0117484730514
23	7485	85.734851731377	0.78243511988207
23	7552	86.517286851259	3.6585540234924
23	7899	90.175840874751	0.66204143956655
23	7944	90.837882314318	0.0077577452830852
23	7945	90.845640059601	2.8999228454794
23	8161	93.74556290508	1.3502612947895
23	8277	95.095824199869	1.9910783529716
23	8465	97.086902552841	3.9880570459315
23	8893	101.074959598772	0.83583713604125
23	8940	101.910796734813	3.3916070707124
23	9234	105.302403805525	1.0433313731097
23	9342	106.345735178635	3.7736726930053
23	9645	110.11940787164	0.09696491704777
23	9652	110.216372788688	0.21041527946957
23	9678	110.426788068158	1.4747075637769
23	9783	111.901495631935	4.4055990210837
23	10161	116.307094653019	1.2743940420286
23	10251	117.581488695048	6.2760456231261
23	10795	123.857534318174	0.30791956203762
23	10814	124.165453880212	5.9204414490618
23	11409	130.085895329274	0.74877529783293
23	11428	130.834670627107	6.3763825927021
23	11903	137.211053219809	0.12643459812152
23	11924	137.337487817931	1.4379449256192
23	12051	138.77543274355	0.60519700537918
23	12146	139.380629748929	4.099925358454
23	12452	143.480555107383	4.6854281023522
23	12849	148.165983209735	0.24766164116079
23	12863	148.413644850896	1.684192355915
23	13006	150.097837206811	0.32190323115279
23	13060	150.419740437964	0.57929492353295
23	13094	150.999035361497	1.2297433444377
23	13197	152.228778705935	0.41380568446897
23	13228	152.642584390404	3.1744871308823
23	13423	155.817071521286	0.31833458409627
23	13449	156.135406105382	5.3731040486679
23	13883	161.50851015405	6.244783128557
23	14433	167.753293282607	0.80908334030217
23	14487	168.562376622909	3.8951614315318
23	14832	172.457538054441	3.4128834920311
23	15163	175.870421546472	0.090702695307817
23	15174	175.96112424178	1.0174956655909
23	15248	176.978619907371	10.244045539457
23	16089	187.222665446828	0.8800007974928
23	16155	188.102666244321	2.1203502308745
23	16334	190.223016475196	4.7647216285009
23	16784	194.987738103697	3.5063177475746
23	17069	198.494055851272	1.4651173942576
23	17207	199.95917324553	1.150489956651
23	17314	201.109663202181	7.9688117187596
23	17989	209.078474920941	1.0974267698376
23	18085	210.175901690779	0.095407149334544
23	18087	210.271308840114	8.6944337525099
23	18942	218.965742592624	0.74649923933879
23	18994	219.712241831963	1.8468383355019
23	19154	221.559080167465	0.93029798846885
23	19211	222.489378155934	1.0726479175845
23	19274	223.562026073518	4.3817709920057
23	19653	227.943797065524	2.940881227557
23	19936	230.884678293081	5.0220186382318
23	20399	235.906696931313	1.5434690573537
23	20544	237.450165988667	0.67559839915206
23	20583	238.125764387819	9.5472025767415
23	21565	247.672966964561	0.68651255572848
23	21633	248.359479520289	0.53893243789133
23	21687	248.89841195818	0.53530907118271
23	21739	249.433721029363	12.89104317806
23	22901	262.324764207423	0.1904147668719
23	22908	262.515178974295	2.9488033209119
23	23182	265.463982295207	8.4601758597095
23	23862	273.924158154916	2.2278402025234
23	24061	276.151998357439	1.4278871512703
23	24170	277.579885508709	0.072708087690866
23	24180	277.6525935964	19.513402438353
23	25888	297.165996034753	4.3017237421261
23	26258	301.467719776879	3.8014209672883
23	26623	305.269140744167	0.98271039958125
23	26697	306.251851143748	0.45311123977492
23	26755	306.704962383523	1.1700598858348
23	26868	307.875022269358	2.117207271648
23	27040	309.992229541006	0.32525983383521
23	27084	310.317489374841	1.1111220201725
23	27149	311.428611395014	1.1105716854345
23	27263	312.539183080449	1.9557037114527
23	27393	314.494886791902	2.3257940164798
23	27600	316.820680808382	1.2928351641891
23	27731	318.113515972571	1.6725855930733
23	27885	319.786101565644	2.9417870336787
23	28118	322.727888599323	0.081947667614225
23	28129	322.809836266937	0.9757492220558
23	28214	323.785585488993	5.9909525187844
23	28700	329.776538007777	1.8618330577714
23	28895	331.638371065548	1.7194044024024
23	29043	333.35777546795	0.70698901227447
23	29086	334.064764480224	7.6272798665052
23	29729	341.692044346729	8.270103597299
23	30370	349.962147944028	1.1343987175462
23	30452	351.096546661574	1.1748339385351
23	30529	352.271380600109	6.8689864144534
23	31204	359.140367014562	6.5587768336816
23	31798	365.699143848244	0.84779475157283
23	31887	366.546938599817	1.8862767116866
23	32066	368.433215311504	0.56608662390043
23	32102	368.999301935404	1.0487609279302
23	32205	370.048062863334	9.1509283866574
23	33028	379.198991249991	0.14734917338462
23	33034	379.346340423376	1.9086831573429
23	33198	381.255023580719	0.94253897186399
23	33283	382.197562552583	3.4010931269022
23	33600	385.598655679485	13.764848575909
23	34881	399.363504255394	2.2968674919385
24	1645	18.527692622347	1.136312442241
24	1747	19.664005064588	4.9691999851495
24	2177	24.633205049738	1.368739580575
24	2275	26.001944630313	1.5640173326607
24	2420	27.565961962974	0.082737600254544
24	2426	27.648699563229	4.1187299545198
24	2826	31.767429517749	2.7625316337105
24	3010	34.52996115146	0.5561904462513
24	3047	35.086151597711	1.0402724223642
24	3135	36.126424020075	1.3230792072979
24	3220	37.449503227373	2.185892604752
24	3475	39.635395832125	1.1726517232226
24	3589	40.808047555348	1.4676321738589
24	3724	42.275679729207	4.0039198901016
24	4091	46.279599619309	3.2559217815913
24	4387	49.5355214009	2.9895969590251
24	4665	52.525118359925	0.72482296041573
24	4725	53.249941320341	0.78170289814831
24	4757	54.031644218489	6.3409074038718
24	5275	60.372551622361	1.640075420557
24	5417	62.012627042918	0.7486085676486
24	5469	62.761235610567	7.5199347381347
24	6088	70.281170348702	6.8008974670721
24	6661	77.082067815774	0.30041601859835
24	6674	77.382483834372	4.6084497551525
24	7120	81.990933589524	0.74265444667327
24	7180	82.733588036197	4.061540111629
24	7593	86.795128147826	1.325461285887
24	7683	88.120589433713	7.2457673522617
24	8297	95.366356785975	2.1254981710325
24	8497	97.491854957008	0.61587309071447
24	8538	98.107728047722	3.6927082923893
24	8935	101.800436340111	1.9702036678518
24	9101	103.770640007963	0.50016799301304
24	9158	104.270808000976	8.795126105117
24	9888	113.065934106093	3.6346466942043
24	10193	116.700580800297	2.3242603046111
24	10354	119.024841104908	5.5418110307764
24	10836	124.566652135684	0.98909763641697
24	10927	125.555749772101	0.23148820329919
24	10952	125.7872379754	1.1828913083509
24	11101	126.970129283751	4.2441387864774
24	11459	131.214268070228	0.60739445388582
24	11501	131.821662524114	13.09960706888
24	12553	144.921269592994	3.8798340161506
24	12875	148.801103609145	3.08008989844
24	13175	151.881193507585	0.1866080830828
24	13196	152.067801590668	12.248143436004
24	14134	164.315945026672	0.056110250993108
24	14145	164.372055277665	0.22901846975062
24	14152	164.601073747416	2.9295932399941
24	14412	167.53066698741	5.2270311308637
24	14865	172.757698118274	0.30235737852638
24	14902	173.0600554968	1.9267514638326
24	15079	174.986806960633	0.40457432938258
24	15107	175.391381290016	0.86818227511691
24	15195	176.259563565133	5.6999689120054
24	15687	181.959532477138	9.6346577706683
24	16450	191.594190247806	0.69238437905666
24	16507	192.286574626863	7.616598849035
24	17203	199.903173475898	2.043111736338
24	17392	201.946285212236	0.0056532962066554
24	17393	201.951938508443	5.5188740086072
24	17814	207.47081251705	3.3683102349399
24	18163	210.83912275199	8.1574770427615
24	18943	218.996599794752	0.25627948262597
24	18965	219.252879277378	2.0168205130649
24	19120	221.269699790443	0.45164377882488
24	19172	221.721343569268	2.2954959569992
24	19303	224.016839526267	0.9254649761773
24	19402	224.942304502444	3.3053458574979
24	19706	228.247650359942	2.3260738149217
24	19912	230.573724174864	0.69656594612208
24	19956	231.270290120986	2.2832561322795
24	20172	233.553546253265	1.4577644804479
24	20271	235.011310733713	0.27848251767652
24	20322	235.28979325139	0.95403532855715
24	20428	236.243828579947	0.20836712329088
24	20442	236.452195703238	1.4680301882665
24	20576	237.920225891505	11.760705543552
24	21765	249.680931435057	2.4423447763296
24	21932	252.123276211387	2.8740211849861
24	22235	254.997297396373	4.0919656807329
24	22620	259.089263077106	1.3126989046598
24	22701	260.401961981766	0.39045562263864
24	22756	260.792417604405	1.399332737069
24	22885	262.191750341474	3.5939657937966
24	23205	265.785716135271	1.8089193890224
24	23366	267.594635524293	3.5186560109185
24	23671	271.113291535211	1.3389846896797
24	23748	272.452276224891	0.11337912623309
24	23755	272.565655351124	3.1152101174667
24	24014	275.680865468591	8.1605239234703
24	24654	283.841389392061	5.3093335860346
24	25141	289.150722978096	0.15722010785414
24	25156	289.30794308595	4.8999416861423
24	25588	294.207884772092	4.6225584725876
24	26026	298.83044324468	0.93498117546078
24	26097	299.765424420141	2.335906697984
24	26321	302.101331118125	9.6351430133372
24	27163	311.736474131462	0.13254819418527
24	27173	311.869022325647	0.21996142587365
24	27208	312.088983751521	7.1557920936216
24	27848	319.244775845143	1.9209151899983
24	27996	321.165691035141	1.0972475027147
24	28063	322.262938537856	3.933950673347
24	28383	326.196889211203	2.9415884448522
24	28633	329.138477656055	0.81650474046415
24	28712	329.954982396519	0.44716585837115
24	28769	330.40214825489	1.0864035934234
24	28884	331.488551848313	4.1059911861323
24	29225	335.594543034445	1.8276979847793
24	29368	337.422241019224	1.2453608616508
24	29430	338.667601880875	5.0781251304372
24	29919	343.745727011312	1.4517194100089
24	30016	345.197446421321	2.6324939762444
24	30209	347.829940397565	0.43489293370715
24	30258	348.264833331272	1.2200409555645
24	30332	349.484874286836	1.4368487052697
24	30446	350.921722992106	5.6781351432112
24	30967	356.599858135317	0.34827997058374
24	30995	356.948138105901	4.0980197480612
24	31359	361.046157853962	1.7534223799808
24	31514	362.799580233943	2.0866864734204
24	31721	364.886266707363	1.5555579092047
24	31886	366.441824616568	1.1764403713086
24	31987	367.618264987877	3.0747807320248
24	32289	370.693045719902	1.0766508149597
24	32372	371.769696534862	3.7101989580674
24	32700	375.479895492929	0.050122703236757
24	32706	375.530018196166	0.77612876190453
24	32755	376.306146958071	1.7502714170063
24	32915	378.056418375077	0.77213211135867
24	32971	378.828550486436	2.9182526578219
24	33229	381.746803144258	3.9558401374603
24	33622	385.702643281718	4.6291849933707
24	34099	390.331828275089	0.18522421603475
24	34126	390.517052491124	1.986050967834
24	34267	392.503103458958	1.6561412703911
24	34493	394.159244729349	0.77745542384972
24	34566	394.936700153199	3.661067350749
24	34827	398.597767503948	3.240049630835

