file 1664757 1613383352                                         
version 2
run Exponential-capacity-10-20210215-11:02:32-10724
attr configname Exponential-capacity
attr datetime 20210215-11:02:32
attr experiment Exponential-capacity
attr inifile aerocom.ini
attr iterationvars "$0=50, $1=2"
attr iterationvarsf 50,2-
attr measurement "$0=50, $1=2"
attr network Aerocom
attr processid 10724
attr repetition 0
attr replication #0
attr resultdir results
attr runnumber 10
attr seedset 0
param **.t 1s
param **.k 50ms
param **.X 0.4s
param **.m 2s
param **.tDistribution "\"exponential\""
param **.operationMode 0
param **.s "70 byte"
param **.dimPoolMax 10000
param **.dimPoolMin 8000
param **.nDL 1
param **.nA 1
param **.DLMaxCapacity 0
param **.trasmitting false

vector 0 Aerocom.aircraft[0].dataLink[0] actualCapacity:vector ETV
attr "" ""
attr source computeActualCapacity
vector 1 Aerocom.aircraft[0].packetGenerator arrivalTime:vector ETV
attr "" ""
attr source computeArrivalTime
vector 2 Aerocom.aircraft[0].dataLink[0] tDistribution:vector ETV
attr "" ""
attr source computeTDistribution
vector 3 Aerocom.aircraft[0].linkSelector waitingTime:vector ETV
attr "" ""
attr source computeWaitingTime
vector 4 Aerocom.aircraft[0].linkSelector queueLength:vector ETV
attr "" ""
attr source computeQueueLength
vector 5 Aerocom.aircraft[0].linkSelector serviceTime:vector ETV
attr "" ""
attr source computeServiceTime
vector 6 Aerocom.aircraft[0].linkSelector responseTime:vector ETV
attr "" ""
attr source computeResponseTime
0	1512 235838 1023 41278 10 400 7883 8022 9967 70660244 635071967166
1	237350 310091 1024 41273 10.005245567619 399.990973989844 7687 2.767595e-006 0.511624106208 390.00681941603 39.585679544771
2	547441 16830 1034 41048 10.19835258653 398.023229865342 400 0.00012359181449871 5.0916301550693 389.91689248652 726.70497007989
3	564271 242081 1041 41274 10.4 399.990973989844 7687 0 0.40683582079 319.16494603691 83.72769284822
4	806352 209417 1041 41274 10.4 399.990973989844 7687 0 15 6242 38196
5	1015769 339003 1041 41274 10.4 399.990973989844 7687 0.0070281124497992 0.0087260034904014 60.190086944766 0.47256925149046
6	1354772 309983 1042 41275 10.407955449483 399.998720780459 7687 0.00702811245 0.414879948577 379.3550329817 89.195624750031

