file 62484180 1608327861                                        
version 2
run Exponential-selection-capacity-exponential-interarrival-time-0-20201218-22:43:48-14776
attr configname Exponential-selection-capacity-exponential-interarrival-time
attr datetime 20201218-22:43:48
attr experiment Exponential-selection-capacity-exponential-interarrival-time
attr inifile ../simulations/aerocom.ini
attr iterationvars "$0=0.5s, $1=0.5s, $2=4s"
attr iterationvarsf 0.5s,0.5s,4s-
attr measurement "$0=0.5s, $1=0.5s, $2=4s"
attr network Aerocom
attr processid 14776
attr repetition 0
attr replication #0
attr resultdir results
attr runnumber 0
attr seedset 0
param **.t 0.5s
param **.k 0.5s
param **.dataLink[*].s "1500 byte"
param **.dataLink[*].X 2
param **.aircraft[*].servingDL 0
param **.dataLink[*].dimPoolMax 400
param **.dataLink[*].dimPoolMin 100
param **.nDL 5
param **.setCapacityDistribution "\"exponential\""
param **.aircraft[*].distribution "\"exponential\""
param **.aircraft[*].m 4s
param **.aircraft[*].linkSelector.DLMaxCapacity 0
param **.aircraft[*].linkSelector.trasmitting false
param **.aircraft[*].linkSelector.operationMode 0

vector 0 Aerocom.dataLink[3] queueLength:vector ETV
attr "" ""
attr source computeQueueLength
vector 1 Aerocom.dataLink[2] responseTime:vector ETV
attr "" ""
attr source computeResponseTime
vector 2 Aerocom.dataLink[2] waitingTime:vector ETV
attr "" ""
attr source computeWaitingTime
vector 3 Aerocom.dataLink[4] responseTime:vector ETV
attr "" ""
attr source computeResponseTime
vector 4 Aerocom.dataLink[4] waitingTime:vector ETV
attr "" ""
attr source computeWaitingTime
vector 5 Aerocom.dataLink[1] responseTime:vector ETV
attr "" ""
attr source computeResponseTime
vector 6 Aerocom.dataLink[1] waitingTime:vector ETV
attr "" ""
attr source computeWaitingTime
vector 7 Aerocom.dataLink[3] responseTime:vector ETV
attr "" ""
attr source computeResponseTime
vector 8 Aerocom.dataLink[3] waitingTime:vector ETV
attr "" ""
attr source computeWaitingTime
vector 9 Aerocom.dataLink[1] queueLength:vector ETV
attr "" ""
attr source computeQueueLength
vector 10 Aerocom.dataLink[0] responseTime:vector ETV
attr "" ""
attr source computeResponseTime
vector 11 Aerocom.dataLink[0] waitingTime:vector ETV
attr "" ""
attr source computeWaitingTime
vector 12 Aerocom.dataLink[4] queueLength:vector ETV
attr "" ""
attr source computeQueueLength
vector 13 Aerocom.dataLink[2] queueLength:vector ETV
attr "" ""
attr source computeQueueLength
vector 14 Aerocom.dataLink[0] queueLength:vector ETV
attr "" ""
attr source computeQueueLength
12	2579 1180244 427644 1097115 10012.035291966456 25612.98459833393 32768 18249 48472 1092798063 38960975842121
14	1182823 1181479 428132 1104168 10024.039159302046 25779.470729234389 32768 18351 48525 1094106683 39010561537435
0	2364302 1150068 427104 1138655 10000.029767587277 26590.430787510903 32768 18420 48496 1096610245 39156674291333
9	3514370 1149954 427300 1148951 10004.127773258039 26831.058709999647 32768 17814 47839 1076266477 37812369395071
13	4664324 1182829 427787 1157510 10016.017445205213 27026.985398904622 32768 18451 48448 1097326001 39202590244547
12	5847153 1208821 1097121 1823109 25613.33345338929 42609.748939200849 32768 48473 78465 2079712929 1.3444564078894e+014
14	7055974 1208848 1104171 1824548 25779.487006522339 42643.816542258437 32768 48525 78545 2082721331 1.3483420042903e+014
0	8264822 1175917 1138662 1827507 26590.583720136049 42712.575167716842 32768 48497 78581 2083014688 1.3489910899293e+014
9	9440739 1176108 1148955 1839044 26831.13607344537 42976.581597641441 32768 47840 77968 2060842276 1.3209762033663e+014
13	10616847 1208751 1157513 1849703 27026.996617860617 43224.291650903693 32768 48449 78575 2079816146 1.344800437442e+014
0	11825598 1185440 1827510 2509362 42712.608274183723 58623.945694106588 32768 78582 108740 3069420615 2.899952649201e+014
14	13011038 1218193 1824551 2526217 42643.820419309776 59013.738093714984 32768 78546 108649 3066225326 2.8940381715362e+014
12	14229231 1218029 1823114 2543078 42609.82562878877 59414.94069263272 32768 78464 108489 3063113442 2.8880058818932e+014
9	15447260 1184876 1839047 2544995 42976.674656437721 59457.860596113525 32768 77969 108026 3047954667 2.8597522955869e+014
13	16632136 1218254 1849706 2563188 43224.31158872046 59887.272587345047 32768 78576 108659 3066968091 2.8952976265237e+014
12	17850390 1241499 2543081 3216712 59414.964601486606 75118.68677989923 32768 108490 138706 4050208015 5.0309673344544e+014
0	19091889 1208762 2509366 3221114 58623.96705117593 75219.047564924659 32768 108741 138806 4056145286 5.0455911060208e+014
9	20300651 1208793 2544998 3238975 59457.869826668572 75632.64413202373 32768 108027 138169 4033018705 4.9886552443924e+014
13	21509444 1241420 2563192 3243774 59887.364963503576 75746.620369225251 32768 108660 138844 4054887465 5.0426381976298e+014
14	22750864 1241435 2526222 3279314 59013.993620121868 76567.759492921015 32768 108650 138547 4050803981 5.0320158863724e+014
0	23992299 1208758 3221117 3920796 75219.068955350645 91499.778184628844 32768 138807 168912 5041218887 7.7803752113224e+014
12	25201057 1241429 3216715 3927797 75118.694342946429 91663.492179932393 32768 138707 168752 5037891538 7.7700617757443e+014
13	26442486 1241489 3243778 3936427 75746.807354734644 91866.011401291638 32768 138845 168957 5043863536 7.7885204198249e+014
9	27683975 1208861 3238978 3950293 75632.659287747569 92191.636131486714 32768 138170 168257 5020677796 7.7174199945241e+014
14	28892836 1241621 3279317 3967323 76567.837072781267 92591.37240165805 32768 138548 168687 5033330668 7.7563644354103e+014
0	30134457 1223018 3920800 4598490 91499.803353587197 107324.049826455549 32768 168913 199097 6030820807 1.112433085619e+015
14	31357475 1258754 3967326 4621480 92591.434727671757 107863.617075295883 32768 168688 198948 6023051565 1.1095966863983e+015
12	32616229 1258819 3927802 4649918 91663.57208093208 108528.322225889834 32768 168753 198764 6020247493 1.1085119664649e+015
13	33875048 1258146 3936430 4667851 91866.021246411606 108950.521632387354 32768 168958 198928 6028291105 1.1114722866077e+015
9	35133194 1227099 3950296 4680794 92191.680690448575 109248.26296028988 32768 168258 198232 6004387260 1.1027026652403e+015
0	36360293 1241537 4598493 5310008 107324.056676165633 123975.403365352733 32768 199098 229124 7016380858 1.5048388034323e+015
14	37601830 1274335 4621484 5324177 107863.699957967853 124304.158169481419 32768 198948 229029 7012657178 1.5032415021073e+015
12	38876165 1274199 4649923 5334524 108528.483630253682 124550.609334759459 32768 198765 228891 7007711966 1.5011395648242e+015
13	40150364 1274332 4667854 5383138 108950.605219463951 125686.132629456454 32768 198929 228942 7009429667 1.5018499277494e+015
9	41424696 1241604 4680797 5387670 109248.284824240571 125790.890690286734 32768 198233 228321 6988389949 1.492884673661e+015
14	42666300 1274311 5324180 6011777 124304.172336320431 140332.922212385423 32768 229025 259171 7998777518 1.9550150031879e+015
0	43940611 1241565 5310013 6031796 123975.525809659692 140800.502278918248 32768 229125 259155 8001072932 1.9560937525131e+015
12	45182176 1274310 5334529 6041678 124550.714980153446 141032.538064058665 32768 228892 258956 7992701425 1.9520331140344e+015
9	46456486 1241604 5387678 6064246 125791.124385443543 141561.209772968802 32768 228321 258480 7976394561 1.9440993951148e+015
13	47698090 1274298 5383144 6094144 125686.171378174877 142263.530590337322 32768 228943 258984 7993903970 1.9526180603939e+015
0	48972388 756303 6031800 6424726 140800.555419104072 149943.773266955175 19962 259156 277625 5357416592 1.4383943171475e+015
1	49728691 803632 427163 6426869 10001.5 149992.5 22862 9263.6902249884 137976.97461845 1685569801.5473 1.5576931880201e+014
2	50532323 803632 427163 6426869 10001.5 149992.5 22862 9260.6848049565 137972.7374111 1685418528.5945 1.5574705230786e+014
3	51335955 1057998 427193 6427127 10002.081379771377 149999.081379771377 22923 8984.5996104685 137272.64249387 1686537106.911 1.5556669590228e+014
4	52393953 1057998 427193 6427127 10002.081379771377 149999.081379771377 22923 8977.5674572713 137266.53375712 1686385394.8451 1.5554433080688e+014
5	53451951 1054681 427249 6427132 10003.115946753101 149999.115946753101 22851 9188.7739312188 137724.82620732 1679138528.5869 1.5475169382942e+014
6	54506632 1054679 427249 6427132 10003.115946753101 149999.115946753101 22851 9180.7189906635 137720.82612716 1678987068.6391 1.547294395953e+014
7	55561311 1057314 427257 6427136 10003.264036131784 149999.264036131784 22911 9300.8321222694 138056.40320496 1680321941.8315 1.5485947413015e+014
8	56618625 1057315 427257 6427136 10003.264036131784 149999.264036131784 22911 9296.7885892654 138049.30813943 1680170698.3075 1.5483735653986e+014
9	57675940 560187 6064250 6426668 141561.267012857643 149987.947353164598 14783 258481 271893 3919956902 1.0396614316094e+015
10	58236127 1079624 427308 6426759 10004.201013408868 149990.201013408868 22898 9174.2371398671 137411.60365836 1678578230.8959 1.5458809083927e+014
11	59315751 1079625 427308 6426759 10004.201013408868 149990.201013408868 22898 9169.2276821718 137406.58379117 1678426491.2426 1.5456583185745e+014
12	60395376 686653 6041681 6427161 141032.550178140933 149999.990812839794 17657 258957 275128 4715317476 1.2596157826439e+015
13	61082029 579582 6094147 6426827 142263.533028092936 149991.754689656693 14903 258985 272638 3961283502 1.0531591265714e+015
14	61661611 822567 6011781 6427005 140332.948484795943 149995.796603380148 21152 259172 278751 5688970132 1.5307604044412e+015

