version 2
run Exponential-capacity-11-20210217-10:20:41-1044
attr configname Exponential-capacity
attr datetime 20210217-10:20:41
attr experiment Exponential-capacity
attr inifile aerocom.ini
attr iterationvars "$0=35, $1=3.5"
attr iterationvarsf 35,3.5-
attr measurement "$0=35, $1=3.5"
attr network Aerocom
attr processid 1044
attr repetition 0
attr replication #0
attr resultdir results
attr runnumber 11
attr seedset 0
param **.t 3s
param **.k 35ms
param **.X 0.5s
param **.m 3.5s
param **.tDistribution "\"exponential\""
param **.operationMode 0
param **.s "70 byte"
param **.dimPoolMax 10000
param **.dimPoolMin 8000
param **.nDL 10
param **.nA 1
param **.DLMaxCapacity 0
param **.trasmitting false

vector 0 Aerocom.aircraft[0].packetGenerator arrivalTime:vector ETV
attr "" ""
attr source computeArrivalTime
vector 1 Aerocom.aircraft[0].linkSelector waitingTime:vector ETV
attr "" ""
attr source computeWaitingTime
vector 2 Aerocom.aircraft[0].linkSelector queueLength:vector ETV
attr "" ""
attr source computeQueueLength
vector 3 Aerocom.aircraft[0].dataLink[1] actualCapacity:vector ETV
attr "" ""
attr source computeActualCapacity
vector 4 Aerocom.aircraft[0].linkSelector serviceTime:vector ETV
attr "" ""
attr source computeServiceTime
vector 5 Aerocom.aircraft[0].linkSelector responseTime:vector ETV
attr "" ""
attr source computeResponseTime
vector 6 Aerocom.aircraft[0].dataLink[4] tDistribution:vector ETV
attr "" ""
attr source computeTDistribution
vector 7 Aerocom.aircraft[0].dataLink[6] tDistribution:vector ETV
attr "" ""
attr source computeTDistribution
vector 8 Aerocom.aircraft[0].dataLink[1] tDistribution:vector ETV
attr "" ""
attr source computeTDistribution
vector 9 Aerocom.aircraft[0].dataLink[0] actualCapacity:vector ETV
attr "" ""
attr source computeActualCapacity
vector 10 Aerocom.aircraft[0].dataLink[2] actualCapacity:vector ETV
attr "" ""
attr source computeActualCapacity
vector 11 Aerocom.aircraft[0].dataLink[3] actualCapacity:vector ETV
attr "" ""
attr source computeActualCapacity
vector 12 Aerocom.aircraft[0].dataLink[4] actualCapacity:vector ETV
attr "" ""
attr source computeActualCapacity
vector 13 Aerocom.aircraft[0].dataLink[5] actualCapacity:vector ETV
attr "" ""
attr source computeActualCapacity
vector 14 Aerocom.aircraft[0].dataLink[6] actualCapacity:vector ETV
attr "" ""
attr source computeActualCapacity
vector 15 Aerocom.aircraft[0].dataLink[7] actualCapacity:vector ETV
attr "" ""
attr source computeActualCapacity
vector 16 Aerocom.aircraft[0].dataLink[8] actualCapacity:vector ETV
attr "" ""
attr source computeActualCapacity
vector 17 Aerocom.aircraft[0].dataLink[9] actualCapacity:vector ETV
attr "" ""
attr source computeActualCapacity
vector 18 Aerocom.aircraft[0].dataLink[5] tDistribution:vector ETV
attr "" ""
attr source computeTDistribution
vector 19 Aerocom.aircraft[0].dataLink[8] tDistribution:vector ETV
attr "" ""
attr source computeTDistribution
vector 20 Aerocom.aircraft[0].dataLink[0] tDistribution:vector ETV
attr "" ""
attr source computeTDistribution
vector 21 Aerocom.aircraft[0].dataLink[2] tDistribution:vector ETV
attr "" ""
attr source computeTDistribution
vector 22 Aerocom.aircraft[0].dataLink[7] tDistribution:vector ETV
attr "" ""
attr source computeTDistribution
vector 23 Aerocom.aircraft[0].dataLink[9] tDistribution:vector ETV
attr "" ""
attr source computeTDistribution
vector 24 Aerocom.aircraft[0].dataLink[3] tDistribution:vector ETV
attr "" ""
attr source computeTDistribution
0	1476	10.089882227233	0.077872013003
0	1481	10.167754240236	0.010554806963
0	1486	10.178309047199	0.057431415227
0	1492	10.235740462426	0.026952690084
0	1497	10.26269315251	0.042595682337
0	1503	10.305288834847	0.020792572441
0	1508	10.326081407288	0.003696442527
0	1510	10.329777849815	0.003670864246
0	1512	10.333448714061	0.088174874553
0	1524	10.421623588614	0.015202097958
0	1529	10.436825686572	0.043841263372
0	1534	10.480666949944	0.02217119162
0	1540	10.502838141564	0.236788668198
0	1544	10.739626809762	0.064390647478
0	1546	10.80401745724	0.005665453035
0	1548	10.809682910275	0.082256205141
0	1550	10.891939115416	0.070906808599
0	1552	10.962845924015	0.001339901951
0	1554	10.964185825966	0.00620639513
0	1556	10.970392221096	0.024847127453
0	1558	10.995239348549	0.033458824837
0	1570	11.028698173386	0.006388851066
0	1575	11.035087024452	0.004626429837
0	1580	11.039713454289	0.052843820946
0	1603	11.092557275235	0.065937511031
0	1609	11.158494786266	0.070069527343
0	1614	11.228564313609	0.057635168546
0	1619	11.286199482155	0.018550100735
0	1624	11.30474958289	0.029465833661
0	1629	11.334215416551	0.005277685357
0	1631	11.339493101908	0.018300451053
0	1639	11.357793552961	0.001182537494
0	1641	11.358976090455	0.002508638451
0	1644	11.361484728906	0.141744639358
0	1655	11.503229368264	0.04184034982
0	1660	11.545069718084	0.016354539824
0	1665	11.561424257908	0.021150467515
0	1670	11.582574725423	0.019069999485
0	1675	11.601644724908	0.044811697133
0	1680	11.646456422041	0.001816939326
0	1682	11.648273361367	0.070447045767
0	1691	11.718720407134	0.015921914568
0	1696	11.734642321702	0.129848620717
0	1702	11.864490942419	0.00058687181
0	1704	11.865077814229	0.067780203312
0	1712	11.932858017541	0.009181525821
0	1717	11.942039543362	0.000412413117
0	1719	11.942451956479	0.05067279287
0	1728	11.993124749349	0.015618848718
0	1733	12.008743598067	0.100961411324
0	1739	12.109705009391	0.045825442741
0	1744	12.155530452132	0.048520197321
0	1749	12.204050649453	0.006590324133
0	1751	12.210640973586	0.014511438993
0	1759	12.225152412579	0.0257645885
0	1764	12.250917001079	0.023536118089
0	1769	12.274453119168	0.001955451851
0	1771	12.276408571019	0.014489262294
0	1779	12.290897833313	0.007809872284
0	1784	12.298707705597	0.006924032761
0	1786	12.305631738358	0.000654341465
0	1791	12.306286079823	0.006563163292
0	1793	12.312849243115	0.055244445274
0	1805	12.368093688389	0.021790907039
0	1810	12.389884595428	0.00887269968
0	1815	12.398757295108	0.072661087115
0	1820	12.471418382223	0.014827998547
0	1825	12.48624638077	0.100959050094
0	1831	12.587205430864	0.092127660189
0	1836	12.679333091053	0.03279985512
0	1841	12.712132946173	0.042657888117
0	1846	12.75479083429	0.031778740956
0	1851	12.786569575246	0.001132488163
0	1853	12.787702063409	0.053579092919
0	1861	12.841281156328	0.006298506954
0	1863	12.847579663282	0.024261991934
0	1871	12.871841655216	0.034001875533
0	1876	12.905843530749	0.001808901703
0	1878	12.907652432452	0.030132327284
0	1886	12.937784759736	0.042033981729
0	1891	12.979818741465	0.009508382462
0	1896	12.989327123927	0.17076965108
0	1904	13.160096775007	0.095247188957
0	1910	13.255343963964	0.010883873174
0	1915	13.266227837138	0.033314039764
0	1920	13.299541876902	0.039780877334
0	1925	13.339322754236	0.02684778791
0	1930	13.366170542146	0.069901018862
0	1935	13.436071561008	0.031198250192
0	1940	13.4672698112	0.048638697232
0	1945	13.515908508432	0.045842487998
0	1950	13.56175099643	0.116827701685
0	1955	13.678578698115	0.013086027357
0	1960	13.691664725472	0.028279301869
0	1965	13.719944027341	0.017775279294
0	1970	13.737719306635	0.00835635055
0	1975	13.746075657185	0.00824336007
0	1980	13.754319017255	0.008805951459
0	1985	13.763124968714	0.007211121697
0	1987	13.770336090411	0.008640074408
0	1995	13.778976164819	0.101117645716
0	2000	13.880093810535	0.02950425714
0	2006	13.909598067675	0.047087160163
0	2011	13.956685227838	0.021058764528
0	2016	13.977743992366	0.023598559937
0	2022	14.001342552303	0.123006753819
0	2024	14.124349306122	0.009030446738
0	2026	14.13337975286	0.0399398266
0	2028	14.17331957946	0.010272767817
0	2030	14.183592347277	0.00312040015
0	2032	14.186712747427	0.002092333702
0	2034	14.188805081129	0.002032532674
0	2036	14.190837613803	0.019946414786
0	2038	14.210784028589	0.023418980329
0	2040	14.234203008918	0.013078442804
0	2042	14.247281451722	0.074503453309
0	2044	14.321784905031	0.041715033628
0	2046	14.363499938659	0.131134311484
0	2049	14.494634250143	0.016604570162
0	2055	14.511238820305	0.033650385005
0	2072	14.54488920531	0.006928870737
0	2077	14.551818076047	0.027369150231
0	2088	14.579187226278	0.000874592366
0	2090	14.580061818644	0.067492604791
0	2119	14.647554423435	0.002436618488
0	2121	14.649991041923	0.047667610351
0	2130	14.697658652274	0.039813847694
0	2136	14.737472499968	0.022793075617
0	2141	14.760265575585	0.021160342642
0	2146	14.781425918227	0.039562444107
0	2151	14.820988362334	0.026919193038
0	2156	14.847907555372	0.032692111641
0	2161	14.880599667013	0.079444400552
0	2166	14.960044067565	0.043897114453
0	2171	15.003941182018	0.162387838423
0	2177	15.166329020441	0.022187550679
0	2183	15.18851657112	0.008557185772
0	2188	15.197073756892	0.021309151981
0	2193	15.218382908873	0.038076655177
0	2198	15.25645956405	0.082912135979
0	2203	15.339371700029	0.010696171564
0	2208	15.350067871593	0.005165861151
0	2210	15.355233732744	0.000730352651
0	2212	15.355964085395	0.009112299404
0	2220	15.365076384799	0.049713420945
0	2228	15.414789805744	0.074674715062
0	2233	15.489464520806	0.013499069292
0	2239	15.502963590098	0.08217453165
0	2245	15.585138121748	0.016927343562
0	2250	15.60206546531	0.036324752642
0	2255	15.638390217952	0.031062567497
0	2260	15.669452785449	0.013740055987
0	2265	15.683192841436	0.062235016789
0	2271	15.745427858225	0.025667868561
0	2276	15.771095726786	0.034702650251
0	2281	15.805798377037	1.937316e-006
0	2283	15.805800314353	0.072128743431
0	2291	15.877929057784	0.013081715284
0	2296	15.891010773068	0.011185112921
0	2301	15.902195885989	0.019395979017
0	2306	15.921591865006	0.055990180464
0	2311	15.97758204547	0.075801728831
0	2317	16.053383774301	0.007187171906
0	2319	16.060570946207	0.039867017774
0	2327	16.100437963981	0.106861463436
0	2332	16.207299427417	0.021316561445
0	2337	16.228615988862	0.04070896492
0	2342	16.269324953782	0.023117607791
0	2347	16.292442561573	0.008495147279
0	2352	16.300937708852	0.054413202823
0	2357	16.355350911675	0.10305680971
0	2363	16.458407721385	0.009122404528
0	2368	16.467530125913	0.045937779754
0	2373	16.513467905667	0.074296132888
0	2378	16.587764038555	0.010253301047
0	2383	16.598017339602	0.013175027303
0	2388	16.611192366905	0.00839732318
0	2393	16.619589690085	0.11049834395
0	2398	16.730088034035	0.025557968283
0	2404	16.755646002318	0.022336601196
0	2409	16.777982603514	0.000909921082
0	2411	16.778892524596	0.043517277228
0	2419	16.822409801824	0.008138375643
0	2424	16.830548177467	0.005840612443
0	2426	16.83638878991	0.019349342973
0	2434	16.855738132883	0.045884032886
0	2439	16.901622165769	0.016403676659
0	2444	16.918025842428	0.03637219728
0	2449	16.954398039708	0.021799025842
0	2454	16.97619706555	0.008467187567
0	2459	16.984664253117	0.011382560629
0	2464	16.996046813746	0.007222529776
0	2469	17.003269343522	0.030932497961
0	2474	17.034201841483	0.057682666061
0	2479	17.091884507544	0.069791372045
0	2484	17.161675879589	0.048113798383
0	2489	17.209789677972	0.004376140647
0	2491	17.214165818619	0.039321117484
0	2499	17.253486936103	0.025498334496
0	2504	17.278985270599	0.011346968972
0	2509	17.290332239571	0.004957471218
0	2511	17.295289710789	0.006729150429
0	2516	17.302018861218	0.044163443572
0	2525	17.34618230479	0.042664977081
0	2530	17.388847281871	0.017649797664
0	2535	17.406497079535	0.021771292168
0	2540	17.428268371703	0.029168238423
0	2545	17.457436610126	0.064234219103
0	2551	17.521670829229	0.007086056729
0	2553	17.528756885958	0.008023551382
0	2555	17.53678043734	0.005476651963
0	2557	17.542257089303	0.006309600485
0	2559	17.548566689788	0.02343392068
0	2561	17.572000610468	0.004666921815
0	2563	17.576667532283	0.015380938667
0	2565	17.59204847095	0.044814852389
0	2567	17.636863323339	0.098722258195
0	2569	17.735585581534	0.001082420205
0	2571	17.736668001739	0.050734417175
0	2574	17.787402418914	0.048102005505
0	2576	17.835504424419	0.048333708348
0	2578	17.883838132767	0.003400868743
0	2580	17.88723900151	0.081917218623
0	2582	17.969156220133	0.008581933242
0	2584	17.977738153375	0.003048800414
0	2586	17.980786953789	0.048416076315
0	2601	18.029203030104	0.028118711693
0	2612	18.057321741797	0.04604691904
0	2636	18.103368660837	0.030737527755
0	2650	18.134106188592	0.001634071028
0	2652	18.13574025962	0.114397374029
0	2669	18.250137633649	0.008212954724
0	2674	18.258350588373	0.01209318543
0	2679	18.270443773803	0.01183541502
0	2684	18.282279188823	0.009643477796
0	2689	18.291922666619	0.039582146772
0	2694	18.331504813391	0.003699051094
0	2696	18.335203864485	0.002278950268
0	2698	18.337482814753	0.000579813305
0	2700	18.338062628058	0.028389935778
0	2714	18.366452563836	0.092839548043
0	2719	18.459292111879	0.000324905853
0	2721	18.459617017732	0.038794341397
0	2730	18.498411359129	0.062649636157
0	2736	18.561060995286	0.053824005007
0	2741	18.614885000293	0.145458988345
0	2746	18.760343988638	0.011581845841
0	2751	18.771925834479	0.042549166568
0	2757	18.814475001047	0.030900819073
0	2762	18.84537582012	0.007015476828
0	2764	18.852391296948	0.002313220374
0	2769	18.854704517322	0.025138626804
0	2777	18.879843144126	0.023268271234
0	2782	18.90311141536	0.030399800601
0	2787	18.933511215961	0.132790832408
0	2792	19.066302048369	0.05421540877
0	2797	19.120517457139	0.073204480042
0	2803	19.193721937181	0.032641414934
0	2809	19.226363352115	0.014445545335
0	2814	19.24080889745	0.008624553777
0	2819	19.249433451227	0.114062234201
0	2824	19.363495685428	0.021254775102
0	2829	19.38475046053	0.009225198949
0	2834	19.393975659479	0.073881107103
0	2839	19.467856766582	0.104377023642
0	2844	19.572233790224	0.023723070072
0	2849	19.595956860296	0.099282406768
0	2855	19.695239267064	0.044003294845
0	2860	19.739242561909	0.056191056707
0	2866	19.795433618616	0.023304487032
0	2871	19.818738105648	0.034841227518
0	2876	19.853579333166	0.043150816206
0	2881	19.896730149372	0.072581651209
0	2886	19.969311800581	0.024130208825
0	2891	19.993442009406	0.012136365633
0	2896	20.005578375039	0.065150107504
0	2902	20.070728482543	0.066153559433
0	2907	20.136882041976	0.007563367581
0	2909	20.144445409557	0.033670417431
0	2917	20.178115826988	0.051948486893
0	2922	20.230064313881	0.000466383569
0	2924	20.23053069745	0.128088006577
0	2932	20.358618704027	0.014928753421
0	2937	20.373547457448	0.069396211661
0	2942	20.442943669109	0.005611693307
0	2944	20.448555362416	0.053062412544
0	2952	20.50161777496	0.140278237921
0	2957	20.641896012881	0.147065079919
0	2962	20.7889610928	0.022777906983
0	2967	20.811738999783	0.049023649394
0	2972	20.860762649177	0.024078021746
0	2977	20.884840670923	0.000141971246
0	2979	20.884982642169	0.035706548078
0	2988	20.920689190247	0.010989926432
0	2993	20.931679116679	0.016092696122
0	2998	20.947771812801	0.018496352991
0	3003	20.966268165792	0.005152876306
0	3005	20.971421042098	0.01956526845
0	3013	20.990986310548	0.060432168291
0	3019	21.051418478839	0.012375880134
0	3021	21.063794358973	0.007368665087
0	3023	21.07116302406	0.017945012492
0	3025	21.089108036552	0.02506158613
0	3027	21.114169622682	0.004500308305
0	3029	21.118669930987	0.008890398242
0	3031	21.127560329229	0.138167164365
0	3033	21.265727493594	0.00360389273
0	3035	21.269331386324	0.018237758738
0	3037	21.287569145062	0.069366161939
0	3040	21.356935307001	0.029474770599
0	3043	21.3864100776	0.126312935174
0	3051	21.512723012774	0.014734765432
0	3059	21.527457778206	0.113398703842
0	3094	21.640856482048	0.054435302612
0	3099	21.69529178466	0.082963565321
0	3104	21.778255349981	0.018548655275
0	3109	21.796804005256	0.052060041402
0	3114	21.848864046658	0.015580226879
0	3119	21.864444273537	0.014181400882
0	3124	21.878625674419	0.017849679185
0	3129	21.896475353604	0.002960282212
0	3131	21.899435635816	0.012575286679
0	3139	21.912010922495	0.018303867878
0	3144	21.930314790373	0.052242125747
0	3149	21.98255691612	0.009249466245
0	3154	21.991806382365	0.091230013081
0	3159	22.083036395446	0.004974392899
0	3161	22.088010788345	0.013772584389
0	3169	22.101783372734	0.001921758039
0	3171	22.103705130773	0.106920092265
0	3179	22.210625223038	0.045260175058
0	3184	22.255885398096	0.000491630693
0	3186	22.256377028789	0.000402263757
0	3188	22.256779292546	0.026684828948
0	3199	22.283464121494	0.05152714553
0	3204	22.334991267024	0.012713477662
0	3209	22.347704744686	0.005562661288
0	3211	22.353267405974	0.075053491258
0	3220	22.428320897232	0.002900179552
0	3222	22.431221076784	0.010097944862
0	3227	22.441319021646	0.003285609155
0	3232	22.444604630801	0.039598256866
0	3240	22.484202887667	0.039021059767
0	3245	22.523223947434	0.058203802324
0	3250	22.581427749758	0.009853340786
0	3255	22.591281090544	0.019806308957
0	3260	22.611087399501	0.019098020017
0	3265	22.630185419518	0.048820418194
0	3270	22.679005837712	0.028525641581
0	3275	22.707531479293	0.061936693812
0	3280	22.769468173105	0.068952014796
0	3285	22.838420187901	0.016676750391
0	3290	22.855096938292	0.045445597246
0	3295	22.900542535538	0.003553692938
0	3297	22.904096228476	0.011030601005
0	3305	22.915126829481	0.010356565564
0	3310	22.925483395045	0.004933875955
0	3312	22.930417271	0.031371522176
0	3320	22.961788793176	0.001993828636
0	3322	22.963782621812	0.022651114642
0	3330	22.986433736454	0.012563646143
0	3335	22.998997382597	0.02342560052
0	3340	23.022422983117	0.010639004573
0	3345	23.03306198769	0.021470368136
0	3350	23.054532355826	0.021317255936
0	3355	23.075849611762	0.026025411712
0	3360	23.101875023474	0.040240948571
0	3365	23.142115972045	0.020419831986
0	3370	23.162535804031	0.041632368797
0	3375	23.204168172828	0.067019479017
0	3381	23.271187651845	0.011669116843
0	3386	23.282856768688	0.019885966931
0	3391	23.302742735619	0.016727129563
0	3396	23.319469865182	0.061380012576
0	3401	23.380849877758	0.006994943827
0	3403	23.387844821585	0.024920282297
0	3411	23.412765103882	0.054381092571
0	3416	23.467146196453	0.003161803543
0	3418	23.470307999996	0.002048476463
0	3420	23.472356476459	0.037762441797
0	3431	23.510118918256	0.041790467971
0	3436	23.551909386227	0.008099734018
0	3441	23.560009120245	0.052787533107
0	3446	23.612796653352	0.065769145197
0	3452	23.678565798549	0.05258444778
0	3457	23.731150246329	0.040029171721
0	3462	23.77117941805	0.01051137781
0	3467	23.78169079586	0.006876166006
0	3469	23.788566961866	0.016383725863
0	3477	23.804950687729	0.002534668854
0	3479	23.807485356583	0.031001622611
0	3487	23.838486979194	0.000340739327
0	3489	23.838827718521	0.011150434676
0	3494	23.849978153197	0.07791293963
0	3502	23.927891092827	0.016218650964
0	3507	23.944109743791	0.005013855748
0	3509	23.949123599539	0.007681385631
0	3514	23.95680498517	0.052866156043
0	3522	24.009671141213	0.021557174932
0	3527	24.031228316145	0.090735701307
0	3532	24.121964017452	0.001597331732
0	3534	24.123561349184	0.043956271952
0	3542	24.167517621136	0.056294624718
0	3547	24.223812245854	0.023623284078
0	3552	24.247435529932	0.002802759958
0	3554	24.25023828989	0.022187624427
0	3562	24.272425914317	0.02560408687
0	3567	24.298030001187	0.075008489515
0	3573	24.373038490702	0.012825795214
0	3578	24.385864285916	0.02345811568
0	3583	24.409322401596	0.030158362213
0	3588	24.439480763809	0.018739152288
0	3593	24.458219916097	0.112168309036
0	3599	24.570388225133	0.006695361606
0	3601	24.577083586739	0.036303578294
0	3603	24.613387165033	0.022571797191
0	3607	24.635958962224	0.001260099041
0	3609	24.637219061265	0.053579694663
0	3611	24.690798755928	0.019698882064
0	3613	24.710497637992	0.028451442641
0	3615	24.738949080633	0.024968449898
0	3617	24.763917530531	0.006096830613
0	3619	24.770014361144	0.026888866965
0	3621	24.796903228109	0.005434995493
0	3623	24.802338223602	0.040032838269
0	3625	24.842371061871	0.036690118673
0	3627	24.879061180544	0.011380980467
0	3629	24.890442161011	0.027119483283
0	3631	24.917561644294	0.004828363118
0	3633	24.922390007412	0.013792015018
0	3635	24.93618202243	0.01745423165
0	3637	24.95363625408	0.005565420588
0	3639	24.959201674668	0.109649032134
0	3669	25.068850706802	0.00609695508
0	3674	25.074947661882	0.007251481379
0	3679	25.082199143261	0.00485053875
0	3684	25.087049682011	0.082013397553
0	3719	25.169063079564	0.03027283383
0	3727	25.199335913394	0.027469295686
0	3732	25.22680520908	0.003387911531
0	3734	25.230193120611	0.021366899575
0	3742	25.251560020186	0.084490575068
0	3747	25.336050595254	0.074809759165
0	3753	25.410860354419	0.003031594806
0	3755	25.413891949225	0.021476147341
0	3763	25.435368096566	0.056396619969
0	3768	25.491764716535	0.045078669128
0	3773	25.536843385663	0.073382269573
0	3779	25.610225655236	0.01782208704
0	3784	25.628047742276	0.003434183292
0	3786	25.631481925568	0.082035437428
0	3794	25.713517362996	0.019448061961
0	3799	25.732965424957	0.040994229323
0	3804	25.77395965428	0.022434074084
0	3809	25.796393728364	0.042094982434
0	3814	25.838488710798	0.030378949371
0	3819	25.868867660169	0.013897833251
0	3824	25.88276549342	0.044087440972
0	3829	25.926852934392	0.049482416534
0	3834	25.976335350926	0.000960473515
0	3836	25.977295824441	0.035376920708
0	3846	26.012672745149	0.046008273433
0	3851	26.058681018582	0.00960622327
0	3856	26.068287241852	0.050979607405
0	3861	26.119266849257	0.006124826688
0	3863	26.125391675945	0.000343505274
0	3865	26.125735181219	0.055704464298
0	3876	26.181439645517	0.012900402886
0	3881	26.194340048403	0.111938924187
0	3886	26.30627897259	0.009278258549
0	3891	26.315557231139	0.02144609057
0	3896	26.337003321709	0.024500897264
0	3901	26.361504218973	0.031290049094
0	3906	26.392794268067	0.107557632797
0	3911	26.500351900864	0.068249191915
0	3916	26.568601092779	0.028560649739
0	3921	26.597161742518	0.021387014645
0	3926	26.618548757163	0.003589316255
0	3928	26.622138073418	0.106187990034
0	3936	26.728326063452	0.034020381187
0	3941	26.762346444639	0.030010228591
0	3946	26.79235667323	0.06957788092
0	3951	26.86193455415	0.060167425913
0	3956	26.922101980063	0.006003851958
0	3958	26.928105832021	0.083831292629
0	3966	27.01193712465	0.170922464662
0	3971	27.182859589312	0.059158223417
0	3977	27.242017812729	0.003109133393
0	3979	27.245126946122	0.006077979712
0	3984	27.251204925834	0.003472753427
0	3986	27.254677679261	0.034694782702
0	3997	27.289372461963	0.035141791086
0	4002	27.324514253049	0.017787680892
0	4007	27.342301933941	0.104362288006
0	4012	27.446664221947	0.002266799248
0	4014	27.448931021195	0.096621155949
0	4022	27.545552177144	0.019309626441
0	4027	27.564861803585	0.020757855906
0	4033	27.585619659491	0.010476493385
0	4038	27.596096152876	0.045529309961
0	4043	27.641625462837	0.066175520405
0	4049	27.707800983242	0.047450147985
0	4054	27.755251131227	0.001185514933
0	4056	27.75643664616	0.012834680383
0	4061	27.769271326543	0.111781665544
0	4069	27.881052992087	0.004465075083
0	4071	27.88551806717	0.015367694496
0	4079	27.900885761666	0.020536908234
0	4084	27.9214226699	0.015440418376
0	4089	27.936863088276	0.017402325022
0	4094	27.954265413298	0.000576214939
0	4096	27.954841628237	0.026563767099
0	4105	27.981405395336	0.00716982935
0	4110	27.988575224686	0.065332416456
0	4116	28.053907641142	0.017952444714
0	4118	28.071860085856	0.026896190209
0	4120	28.098756276065	0.092721589178
0	4123	28.191477865243	0.039909760692
0	4125	28.231387625935	0.003672646156
0	4127	28.235060272091	0.032882569505
0	4129	28.267942841596	0.101707186128
0	4131	28.369650027724	0.003628479282
0	4133	28.373278507006	0.071270296555
0	4135	28.444548803561	0.003378944766
0	4137	28.447927748327	0.021190182357
0	4139	28.469117930684	0.002015752089
0	4141	28.471133682773	0.013844796014
0	4143	28.484978478787	0.003167761455
0	4145	28.488146240242	0.009272722817
0	4147	28.497418963059	0.009475353676
0	4150	28.506894316735	0.033359288839
0	4167	28.540253605574	0.064033975455
0	4196	28.604287581029	0.001177187232
0	4198	28.605464768261	0.025862200698
0	4212	28.631326968959	0.000550519332
0	4214	28.631877488291	0.025187571419
0	4228	28.65706505971	0.019600293067
0	4233	28.676665352777	0.036726975807
0	4238	28.713392328584	0.002467568193
0	4240	28.715859896777	0.027529568216
0	4250	28.743389464993	0.010159569529
0	4255	28.753549034522	0.001155139477
0	4257	28.754704173999	0.008748278583
0	4262	28.763452452582	0.030375165446
0	4270	28.793827618028	0.010218112511
0	4275	28.804045730539	0.051604777867
0	4281	28.855650508406	0.004916650093
0	4283	28.860567158499	0.016518883072
0	4291	28.877086041571	0.000423823577
0	4293	28.877509865148	0.023637455456
0	4301	28.901147320604	0.004295025256
0	4303	28.90544234586	0.139914721685
0	4312	29.045357067545	0.03372574437
0	4317	29.079082811915	0.009820157416
0	4322	29.088902969331	0.128084674146
0	4327	29.216987643477	0.016412246455
0	4332	29.233399889932	0.162409799858
0	4337	29.39580968979	0.001635721561
0	4339	29.397445411351	0.018411077852
0	4347	29.415856489203	0.012990660228
0	4352	29.428847149431	0.006225686525
0	4354	29.435072835956	0.062332713621
0	4362	29.497405549577	0.035637615258
0	4367	29.533043164835	0.057581419948
0	4372	29.590624584783	0.023588020548
0	4377	29.614212605331	0.035760142159
0	4382	29.64997274749	0.159173834815
0	4387	29.809146582305	0.016065977462
0	4392	29.825212559767	0.002363695491
0	4394	29.827576255258	0.013127168009
0	4402	29.840703423267	0.053512860475
0	4408	29.894216283742	0.056653137325
0	4413	29.950869421067	0.011908302686
0	4418	29.962777723753	0.002556808
0	4420	29.965334531753	0.009670681752
0	4425	29.975005213505	0.040273190753
0	4433	30.015278404258	0.038017115891
0	4438	30.053295520149	0.016772444307
0	4443	30.070067964456	0.009885634919
0	4448	30.079953599375	0.035172665817
0	4453	30.115126265192	0.038366739635
0	4458	30.153493004827	0.091547432635
0	4463	30.245040437462	0.025493215056
0	4468	30.270533652518	0.067330849973
0	4473	30.337864502491	0.019313074257
0	4478	30.357177576748	0.024097986082
0	4483	30.38127556283	0.02831428933
0	4488	30.40958985216	0.019541437624
0	4493	30.429131289784	0.011842114154
0	4498	30.440973403938	0.060519187319
0	4503	30.501492591257	0.042914627428
0	4508	30.544407218685	0.046909658669
0	4514	30.591316877354	0.018756457837
0	4519	30.610073335191	0.020743009628
0	4524	30.630816344819	0.015649896591
0	4529	30.64646624141	0.121472577819
0	4535	30.767938819229	0.061743058727
0	4540	30.829681877956	0.015793357947
0	4545	30.845475235903	0.090643915092
0	4550	30.936119150995	0.017735312486
0	4555	30.953854463481	0.001648474487
0	4557	30.955502937968	0.046970690941
0	4565	31.002473628909	0.009267379567
0	4570	31.011741008476	0.020866016199
0	4575	31.032607024675	0.014997766146
0	4580	31.047604790821	0.096920056899
0	4585	31.14452484772	0.059052640107
0	4590	31.203577487827	0.010408073477
0	4595	31.213985561304	0.148155552872
0	4601	31.362141114176	0.016830737851
0	4606	31.378971852027	0.121549949707
0	4612	31.500521801734	0.041807148023
0	4614	31.542328949757	0.082366716883
0	4616	31.62469566664	0.079579750834
0	4618	31.704275417474	0.01231185849
0	4620	31.716587275964	0.004516347611
0	4622	31.721103623575	0.169040208679
0	4625	31.890143832254	0.009676545079
0	4627	31.899820377333	0.010041818338
0	4629	31.909862195671	0.009068928956
0	4631	31.918931124627	0.00391805894
0	4633	31.922849183567	0.023533401571
0	4635	31.946382585138	0.105523889527
0	4659	32.051906474665	0.077742496412
0	4679	32.129648971077	0.009303579216
0	4684	32.138952550293	0.01551670386
0	4689	32.154469254153	0.04096525055
0	4694	32.195434504703	0.017028169892
0	4699	32.212462674595	0.00210449292
0	4701	32.214567167515	0.086997087952
0	4709	32.301564255467	0.045918707838
0	4714	32.347482963305	0.004229098869
0	4716	32.351712062174	0.074714583809
0	4724	32.426426645983	0.034905462346
0	4729	32.461332108329	0.011131909082
0	4734	32.472464017411	0.004987603098
0	4736	32.477451620509	0.016678053734
0	4744	32.494129674243	0.016407849207
0	4749	32.51053752345	0.016410735447
0	4754	32.526948258897	0.013725645137
0	4759	32.540673904034	0.048351067795
0	4764	32.589024971829	0.039892839233
0	4769	32.628917811062	0.009504452709
0	4774	32.638422263771	0.055557503039
0	4780	32.69397976681	0.006599765349
0	4782	32.700579532159	0.024536592826
0	4790	32.725116124985	0.020879247091
0	4795	32.745995372076	0.012296244854
0	4800	32.75829161693	0.012707759406
0	4805	32.770999376336	0.075992905847
0	4810	32.846992282183	0.063963419374
0	4815	32.910955701557	0.015178269938
0	4820	32.926133971495	0.009501448825
0	4825	32.93563542032	0.046931560361
0	4830	32.982566980681	0.024427814209
0	4835	33.00699479489	0.028367260151
0	4840	33.035362055041	0.100009887174
0	4846	33.135371942215	0.007876487285
0	4851	33.1432484295	0.0351790477
0	4856	33.1784274772	0.027832777046
0	4861	33.206260254246	0.070685457613
0	4866	33.276945711859	0.025662886854
0	4871	33.302608598713	0.098591910549
0	4876	33.401200509262	0.015011914252
0	4881	33.416212423514	0.048627547743
0	4886	33.464839971257	0.00087248335
0	4888	33.465712454607	0.042089507065
0	4897	33.507801961672	0.005639990259
0	4899	33.513441951931	0.120433041665
0	4907	33.633874993596	0.004948758946
0	4909	33.638823752542	0.181479529806
0	4917	33.820303282348	0.043075159786
0	4922	33.863378442134	0.021040412623
0	4927	33.884418854757	0.043213795662
0	4932	33.927632650419	0.00257272321
0	4934	33.930205373629	0.033113560944
0	4942	33.963318934573	0.012125166462
0	4947	33.975444101035	0.03900603811
0	4952	34.014450139145	0.005785255431
0	4954	34.020235394576	0.020766569889
0	4962	34.041001964465	0.018914094416
0	4967	34.059916058881	0.041684350869
0	4972	34.10160040975	0.00492608044
0	4974	34.10652649019	0.016636888437
0	4982	34.123163378627	0.03243235101
0	4987	34.155595729637	0.003688864547
0	4989	34.159284594184	0.016890132531
0	4997	34.176174726715	0.11288606293
0	5002	34.289060789645	0.079011687676
0	5007	34.368072477321	0.002631713321
0	5009	34.370704190642	0.120246818737
0	5017	34.490951009379	0.000682125253
0	5019	34.491633134632	0.027706318311
0	5027	34.519339452943	0.136181853164
0	5033	34.655521306107	0.0112469106
0	5038	34.666768216707	0.00562555142
0	5040	34.672393768127	0.031396855494
0	5048	34.703790623621	0.010477355103
0	5053	34.714267978724	0.079474853759
0	5058	34.793742832483	0.008496090308
0	5063	34.802238922791	0.018273895654
0	5068	34.820512818445	0.030355220659
0	5073	34.850868039104	0.028109787017
0	5078	34.878977826121	0.130179290881
0	5085	35.009157117002	0.011094208296
0	5087	35.020251325298	0.011159436694
0	5089	35.031410761992	0.021272466744
0	5091	35.052683228736	0.122817224285
0	5094	35.175500453021	0.017978996464
0	5096	35.193479449485	0.000903981555
0	5098	35.19438343104	0.009994912218
0	5100	35.204378343258	0.07663763501
0	5102	35.281015978268	0.024673226248
0	5104	35.305689204516	0.043158105453
0	5107	35.348847309969	0.013006551419
0	5109	35.361853861388	0.011389585101
0	5111	35.373243446489	0.016340252025
0	5113	35.389583698514	0.078837250452
0	5115	35.468420948966	0.026053239149
0	5118	35.494474188115	0.000940821683
0	5120	35.495415009798	0.048603704585
0	5142	35.544018714383	0.034388491995
0	5156	35.578407206378	0.014200422035
0	5164	35.592607628413	0.013992834537
0	5172	35.60660046295	0.090268959578
0	5195	35.696869422528	0.119522371585
0	5200	35.816391794113	0.06939844031
0	5205	35.885790234423	0.006461555552
0	5207	35.892251789975	0.001747046085
0	5212	35.89399883606	0.08111341219
0	5220	35.97511224825	0.010239271042
0	5225	35.985351519292	0.014013353601
0	5230	35.999364872893	0.020679232714
0	5235	36.020044105607	0.077011526216
0	5240	36.097055631823	0.003868055681
0	5242	36.100923687504	0.025142804232
0	5250	36.126066491736	0.014995436008
0	5256	36.141061927744	0.025012196558
0	5261	36.166074124302	0.047160708829
0	5266	36.213234833131	0.017118794372
0	5271	36.230353627503	0.039936516699
0	5276	36.270290144202	0.026432413622
0	5281	36.296722557824	0.034085750702
0	5286	36.330808308526	0.101329116596
0	5292	36.432137425122	0.043389432822
0	5297	36.475526857944	0.078177394788
0	5302	36.553704252732	0.008026101007
0	5307	36.561730353739	0.039566001941
0	5312	36.60129635568	0.014633208063
0	5317	36.615929563743	0.035663361338
0	5322	36.651592925081	0.039471615175
0	5327	36.691064540256	0.027820549262
0	5333	36.718885089518	0.073986738513
0	5338	36.792871828031	0.011143755562
0	5343	36.804015583593	0.027459484392
0	5348	36.831475067985	0.005616943758
0	5351	36.837092011743	0.011629121825
0	5359	36.848721133568	0.067901687346
0	5364	36.916622820914	0.001074562055
0	5366	36.917697382969	0.035280473917
0	5374	36.952977856886	0.043366277758
0	5380	36.996344134644	0.012465802355
0	5385	37.008809936999	0.000277037128
0	5387	37.009086974127	0.021580758098
0	5395	37.030667732225	0.016320395925
0	5400	37.04698812815	0.000869162271
0	5402	37.047857290421	0.026465818673
0	5410	37.074323109094	0.02858074411
0	5415	37.102903853204	0.089336677274
0	5420	37.192240530478	0.015683078893
0	5425	37.207923609371	0.003281438566
0	5427	37.211205047937	0.024450335213
0	5435	37.23565538315	0.01822726027
0	5440	37.25388264342	0.005837851534
0	5442	37.259720494954	0.000861477542
0	5444	37.260581972496	0.019399396569
0	5455	37.279981369065	0.014681776321
0	5460	37.294663145386	0.082820159235
0	5465	37.377483304621	0.034071539028
0	5471	37.411554843649	0.000299180653
0	5473	37.411854024302	0.011452363346
0	5478	37.423306387648	0.121428784357
0	5488	37.544735172005	0.008239205328
0	5490	37.552974377333	0.041092454788
0	5498	37.594066832121	0.004303689841
0	5500	37.598370521962	0.00366492957
0	5502	37.602035451532	0.030125014763
0	5513	37.632160466295	0.011976114207
0	5518	37.644136580502	0.04159152061
0	5523	37.685728101112	0.027108087578
0	5529	37.71283618869	0.039011385105
0	5534	37.751847573795	0.045076158369
0	5539	37.796923732164	0.104062291882
0	5544	37.900986024046	0.017235448173
0	5549	37.918221472219	9.474061e-005
0	5551	37.918316212829	0.009015470322
0	5556	37.927331683151	0.036464556269
0	5564	37.96379623942	0.021234934324
0	5569	37.985031173744	0.032104512892
0	5574	38.017135686636	0.125247560404
0	5579	38.14238324704	0.031098504931
0	5584	38.173481751971	0.06281355899
0	5589	38.236295310961	0.115172709059
0	5594	38.35146802002	0.086192549429
0	5599	38.437660569449	0.000595546831
0	5601	38.43825611628	0.038516398567
0	5609	38.476772514847	0.041731052098
0	5615	38.518503566945	0.020335302941
0	5617	38.538838869886	0.058809884003
0	5619	38.597648753889	0.040441615506
0	5621	38.638090369395	0.024953476769
0	5623	38.663043846164	0.036603885248
0	5625	38.699647731412	0.014224450336
0	5627	38.713872181748	0.001033613391
0	5629	38.714905795139	0.054762979274
0	5631	38.769668774413	0.088196104285
0	5633	38.857864878698	0.003580562335
0	5635	38.861445441033	0.027365954809
0	5637	38.888811395842	0.020421106031
0	5639	38.909232501873	0.16542383189
0	5672	39.074656333763	0.025685448846
0	5683	39.100341782609	0.016906855849
0	5691	39.117248638458	0.041440970772
0	5696	39.15868960923	0.057517363232
0	5702	39.216206972462	0.003334956901
0	5704	39.219541929363	0.0216318332
0	5712	39.241173762563	0.009046073705
0	5717	39.250219836268	0.06137068414
0	5722	39.311590520408	0.018485039675
0	5727	39.330075560083	0.027111480772
0	5732	39.357187040855	0.034170220804
0	5737	39.391357261659	0.076394986125
0	5742	39.467752247784	0.07630071565
0	5747	39.544052963434	0.07424040599
0	5752	39.618293369424	0.033757491662
0	5758	39.652050861086	0.013928193813
0	5763	39.665979054899	0.005013704632
0	5765	39.670992759531	0.018137974684
0	5773	39.689130734215	0.137951053962
0	5779	39.827081788177	0.027533909041
0	5784	39.854615697218	0.071891836935
0	5789	39.926507534153	0.034021713897
0	5794	39.96052924805	0.024451124843
0	5799	39.984980372893	0.016694921283
0	5804	40.001675294176	0.089443120083
0	5809	40.091118414259	0.02734090765
0	5814	40.118459321909	0.027283726009
0	5819	40.145743047918	0.004510752611
0	5821	40.150253800529	0.089877642005
0	5829	40.240131442534	0.039956543323
0	5834	40.280087985857	0.061997366176
0	5839	40.342085352033	0.011845439649
0	5844	40.353930791682	0.120785354528
0	5850	40.47471614621	0.001537453194
0	5852	40.476253599404	0.088305611147
0	5860	40.564559210551	0.004319331503
0	5862	40.568878542054	0.00128446746
0	5864	40.570163009514	0.003938548123
0	5869	40.574101557637	0.006723345165
0	5874	40.580824902802	0.0133178832
0	5882	40.594142786002	0.017250756893
0	5890	40.611393542895	0.009907535255
0	5895	40.62130107815	0.106383605655
0	5901	40.727684683805	0.028956407326
0	5906	40.756641091131	0.012485068844
0	5911	40.769126159975	0.082888261855
0	5917	40.85201442183	0.006121859103
0	5919	40.858136280933	0.030371430003
0	5927	40.888507710936	0.07609815175
0	5932	40.964605862686	0.031890103282
0	5937	40.996495965968	0.020695597495
0	5942	41.017191563463	0.00951530435
0	5947	41.026706867813	0.083461537013
0	5952	41.110168404826	0.030436537629
0	5958	41.140604942455	0.006111972877
0	5960	41.146716915332	0.005518521849
0	5965	41.152235437181	0.037873565957
0	5973	41.190109003138	0.014312113524
0	5978	41.204421116662	0.020310135579
0	5983	41.224731252241	0.034378336454
0	5988	41.259109588695	0.002784955428
0	5990	41.261894544123	0.015691525731
0	5998	41.277586069854	0.041728828473
0	6003	41.319314898327	0.084666798796
0	6009	41.403981697123	0.009947691023
0	6014	41.413929388146	0.073772312544
0	6019	41.48770170069	0.001414755218
0	6021	41.489116455908	0.019930263985
0	6029	41.509046719893	0.002163565203
0	6031	41.511210285096	0.025515235248
0	6039	41.536725520344	0.002205820549
0	6041	41.538931340893	0.022530368205
0	6049	41.561461709098	0.083407389562
0	6054	41.64486909866	0.007132488377
0	6056	41.652001587037	0.047131955099
0	6064	41.699133542136	0.019967709583
0	6069	41.719101251719	0.079918791205
0	6074	41.799020042924	0.007269615017
0	6079	41.806289657941	0.039078150075
0	6084	41.845367808016	0.043959845957
0	6089	41.889327653973	0.026346937821
0	6094	41.915674591794	0.0259088267
0	6099	41.941583418494	0.012706650404
0	6104	41.954290068898	0.013527296372
0	6109	41.96781736527	0.216856854155
0	6115	42.184674219425	0.000108652488
0	6117	42.184782871913	0.015739967878
0	6119	42.200522839791	0.031834974671
0	6122	42.232357814462	0.022263620903
0	6124	42.254621435365	0.036651728942
0	6127	42.291273164307	0.016632330357
0	6129	42.307905494664	0.000182109648
0	6131	42.308087604312	0.136102565297
0	6133	42.444190169609	0.122989258803
0	6163	42.567179428412	0.006718526568
0	6165	42.57389795498	0.038158595526
0	6173	42.612056550506	0.013911767797
0	6178	42.625968318303	0.01214251091
0	6184	42.638110829213	0.039918356624
0	6190	42.678029185837	0.007825967042
0	6195	42.685855152879	0.002285275848
0	6197	42.688140428727	0.090988563587
0	6205	42.779128992314	0.032710314572
0	6210	42.811839306886	0.012949271291
0	6215	42.824788578177	0.022729375438
0	6220	42.847517953615	0.018067120923
0	6225	42.865585074538	0.011692627907
0	6230	42.877277702445	0.035089684291
0	6235	42.912367386736	0.009532292922
0	6240	42.921899679658	0.077462953104
0	6245	42.999362632762	0.025291078314
0	6250	43.024653711076	0.019834568595
0	6255	43.044488279671	0.016056295593
0	6260	43.060544575264	0.092194598858
0	6265	43.152739174122	0.02134167605
0	6270	43.174080850172	0.03138400428
0	6275	43.205464854452	0.014409520226
0	6280	43.219874374678	0.019783934846
0	6286	43.239658309524	0.123310296943
0	6291	43.362968606467	0.031444082825
0	6296	43.394412689292	0.005012814502
0	6298	43.399425503794	0.015320880964
0	6306	43.414746384758	0.003563547469
0	6308	43.418309932227	0.037452887137
0	6316	43.455762819364	0.014723368534
0	6321	43.470486187898	0.036975434796
0	6326	43.507461622694	0.031293706084
0	6331	43.538755328778	0.060353715991
0	6336	43.599109044769	0.03767366608
0	6341	43.636782710849	0.01804066425
0	6346	43.654823375099	0.017719238848
0	6351	43.672542613947	0.001340107922
0	6353	43.673882721869	0.253171395848
0	6361	43.927054117717	0.146140526148
0	6366	44.073194643865	0.015179481464
0	6373	44.088374125329	0.020806310584
0	6378	44.109180435913	0.044730074521
0	6384	44.153910510434	0.097116411755
0	6389	44.251026922189	0.035523563543
0	6394	44.286550485732	0.039020339892
0	6399	44.325570825624	0.058692715655
0	6404	44.384263541279	0.010856864314
0	6409	44.395120405593	0.130870196731
0	6414	44.525990602324	0.029059122637
0	6419	44.555049724961	0.077189028133
0	6425	44.632238753094	0.110074914345
0	6430	44.742313667439	0.050620765025
0	6435	44.792934432464	0.004216039372
0	6437	44.797150471836	0.041935298575
0	6445	44.839085770411	0.011121926948
0	6450	44.850207697359	0.014305117898
0	6455	44.864512815257	0.002996727794
0	6457	44.867509543051	0.005592992315
0	6462	44.873102535366	0.050726265432
0	6470	44.923828800798	0.00226392618
0	6472	44.926092726978	0.000767458324
0	6474	44.926860185302	0.009692977886
0	6480	44.936553163188	0.005167115913
0	6485	44.941720279101	0.019814534309
0	6493	44.96153481341	0.010568425122
0	6498	44.972103238532	0.025834785989
0	6506	44.997938024521	0.071700410481
0	6511	45.069638435002	0.051911069281
0	6516	45.121549504283	0.006920611878
0	6518	45.128470116161	0.11157594603
0	6526	45.240046062191	0.019876069259
0	6531	45.25992213145	0.004367758229
0	6533	45.264289889679	0.013762605045
0	6541	45.278052494724	0.003961066634
0	6543	45.282013561358	0.030647357933
0	6552	45.312660919291	0.031179883066
0	6557	45.343840802357	0.096467457712
0	6563	45.440308260069	0.047881890748
0	6568	45.488190150817	0.09892833897
0	6574	45.587118489787	0.065970261497
0	6577	45.653088751284	0.001887793475
0	6579	45.654976544759	0.096118815458
0	6581	45.751095360217	0.031740208756
0	6583	45.782835568973	0.143497700243
0	6586	45.926333269216	0.077832398551
0	6590	46.004165667767	0.017867330695
0	6601	46.022032998462	0.053142920194
0	6618	46.075175918656	0.016750179987
0	6623	46.091926098643	0.008318305489
0	6628	46.100244404132	0.005598047467
0	6630	46.105842451599	0.050685114338
0	6638	46.156527565937	0.040424108675
0	6643	46.196951674612	0.007334757
0	6648	46.204286431612	0.037426587043
0	6653	46.241713018655	0.080159002697
0	6659	46.321872021352	0.069333435364
0	6664	46.391205456716	0.000313998557
0	6666	46.391519455273	0.003581146785
0	6668	46.395100602058	0.003309835778
0	6670	46.398410437836	0.024104879538
0	6684	46.422515317374	0.033790252989
0	6689	46.456305570363	0.030452796863
0	6694	46.486758367226	0.016869272335
0	6699	46.503627639561	0.009677068944
0	6704	46.513304708505	0.00355420697
0	6706	46.516858915475	0.006480461872
0	6711	46.523339377347	0.146834401704
0	6720	46.670173779051	0.068709315134
0	6726	46.738883094185	0.079413918032
0	6731	46.818297012217	0.002111130832
0	6733	46.820408143049	0.011068298704
0	6738	46.831476441753	0.022261766489
0	6746	46.853738208242	0.022432039812
0	6751	46.876170248054	0.004308865922
0	6753	46.880479113976	0.02287086409
0	6761	46.903349978066	0.02137639612
0	6766	46.924726374186	0.024852462098
0	6771	46.949578836284	0.136854926938
0	6776	47.086433763222	0.119669777594
0	6782	47.206103540816	0.019289828191
0	6787	47.225393369007	0.003686004672
0	6789	47.229079373679	0.068102460437
0	6797	47.297181834116	0.001416028448
0	6799	47.298597862564	0.004367563283
0	6802	47.302965425847	0.023137793029
0	6813	47.326103218876	0.011074958692
0	6818	47.337178177568	0.021453854404
0	6823	47.358632031972	0.018100842447
0	6828	47.376732874419	0.009387808265
0	6833	47.386120682684	0.017867940158
0	6838	47.403988622842	0.002123600506
0	6840	47.406112223348	0.038950233406
0	6848	47.445062456754	0.004627405994
0	6850	47.449689862748	0.014794142582
0	6858	47.46448400533	0.068012019471
0	6863	47.532496024801	0.043783203123
0	6868	47.576279227924	0.017859498922
0	6873	47.594138726846	0.035678831582
0	6878	47.629817558428	0.016810213483
0	6883	47.646627771911	0.017829997858
0	6888	47.664457769769	0.000777652821
0	6890	47.66523542259	0.01978240722
0	6898	47.68501782981	0.016436281124
0	6903	47.701454110934	0.033365007593
0	6908	47.734819118527	0.03792418659
0	6913	47.772743305117	0.002541562034
0	6915	47.775284867151	0.034362471696
0	6923	47.809647338847	0.060489078054
0	6928	47.870136416901	0.085865704453
0	6933	47.956002121354	0.037087573012
0	6938	47.993089694366	0.038994015776
0	6944	48.032083710142	0.045355723577
0	6949	48.077439433719	0.013708958896
0	6954	48.091148392615	0.026945167753
0	6959	48.118093560368	0.013304166097
0	6964	48.131397726465	0.004097451376
0	6966	48.135495177841	0.062707901756
0	6975	48.198203079597	0.018173880371
0	6980	48.216376959968	0.052333089135
0	6985	48.268710049103	0.018193768071
0	6990	48.286903817174	0.011553734292
0	6995	48.298457551466	0.013551911353
0	7000	48.312009462819	0.043802813493
0	7005	48.355812276312	0.001064279782
0	7007	48.356876556094	0.028860010311
0	7015	48.385736566405	0.046779894606
0	7020	48.432516461011	0.017859070263
0	7025	48.450375531274	0.004070208337
0	7027	48.454445739611	0.026489901103
0	7035	48.480935640714	0.03262653592
0	7040	48.513562176634	0.003118008512
0	7042	48.516680185146	0.0425164498
0	7050	48.559196634946	0.038347745459
0	7055	48.597544380405	0.035254544094
0	7060	48.632798924499	0.001052897844
0	7062	48.633851822343	0.111918056509
0	7070	48.745769878852	0.077028590603
0	7076	48.822798469455	0.003816115227
0	7078	48.826614584682	0.040112731227
0	7086	48.866727315909	0.070653231597
0	7092	48.937380547506	0.077675343262
0	7098	49.015055890768	0.00103686633
0	7100	49.016092757098	4.2290566e-005
0	7102	49.016135047664	0.02679386788
0	7104	49.042928915544	0.096883502019
0	7106	49.139812417563	0.018127320577
0	7108	49.15793973814	0.111210071751
0	7111	49.269149809891	0.025995331239
0	7113	49.29514514113	0.055692079217
0	7115	49.350837220347	0.015900065197
0	7118	49.366737285544	0.169315560717
0	7137	49.536052846261	0.007399741124
0	7142	49.543452587385	0.015359896196
0	7150	49.558812483581	0.000675783682
0	7152	49.559488267263	0.066014028739
0	7172	49.625502296002	0.025554270709
0	7177	49.651056566711	0.051541450189
0	7182	49.7025980169	0.064753122695
0	7187	49.767351139595	0.044619800839
0	7193	49.811970940434	0.016350362926
0	7198	49.82832130336	0.035123353576
0	7203	49.863444656936	0.008824888675
0	7208	49.872269545611	0.012854385862
0	7213	49.885123931473	0.002938601401
0	7215	49.888062532874	0.026972087128
0	7223	49.915034620002	0.003120987879
0	7225	49.918155607881	0.011234918026
0	7233	49.929390525907	0.008758864814
0	7238	49.938149390721	0.000305476371
0	7240	49.938454867092	0.003688164922
0	7242	49.942143032014	0.000884139263
0	7244	49.943027171277	0.010777857845
0	7252	49.953805029122	0.005453671514
0	7254	49.959258700636	0.002395360638
0	7259	49.961654061274	0.025236834155
0	7270	49.986890895429	0.002374955732
0	7275	49.989265851161	0.008815617464
0	7280	49.998081468625	0.067895161586
0	7289	50.065976630211	0.016142902216
0	7294	50.082119532427	0.006190824714
0	7296	50.088310357141	0.001983935841
0	7301	50.090294292982	0.028709064741
0	7309	50.119003357723	0.084746782626
0	7314	50.203750140349	0.051968492592
0	7320	50.255718632941	0.075684172995
0	7325	50.331402805936	0.02133457133
0	7330	50.352737377266	0.079650199408
0	7335	50.432387576674	0.005827156787
0	7337	50.438214733461	0.014131351749
0	7345	50.45234608521	0.007792359821
0	7350	50.460138445031	0.043680638095
0	7355	50.503819083126	0.019857884188
0	7360	50.523676967314	0.0194869784
0	7365	50.543163945714	0.026294533078
0	7371	50.569458478792	0.012568348899
0	7376	50.582026827691	0.015047277096
0	7381	50.597074104787	0.002555439034
0	7383	50.599629543821	0.053230656767
0	7391	50.652860200588	0.01917693532
0	7396	50.672037135908	0.048663626453
0	7401	50.720700762361	0.017204087556
0	7406	50.737904849917	0.091707055191
0	7412	50.829611905108	0.006118770001
0	7414	50.835730675109	0.001028298155
0	7419	50.836758973264	0.015088563953
0	7427	50.851847537217	0.079114015658
0	7432	50.930961552875	0.003517693331
0	7434	50.934479246206	0.017448071617
0	7442	50.951927317823	0.071705829775
0	7447	51.023633147598	0.073737724406
0	7452	51.097370872004	0.038548862741
0	7457	51.135919734745	0.041080120476
0	7462	51.176999855221	0.007492876813
0	7467	51.184492732034	0.1529499913
0	7473	51.337442723334	0.087575529389
0	7478	51.425018252723	0.049844585547
0	7483	51.47486283827	0.030335937473
0	7488	51.505198775743	0.015869469642
0	7494	51.521068245385	0.021301677392
0	7499	51.542369922777	0.024334652335
0	7504	51.566704575112	0.03598718614
0	7509	51.602691761252	0.016528006203
0	7514	51.619219767455	0.010257222423
0	7519	51.629476989878	0.015889700636
0	7525	51.645366690514	0.0280318039
0	7530	51.673398494414	0.010581484832
0	7535	51.683979979246	0.004950823675
0	7537	51.688930802921	0.023979202728
0	7545	51.712910005649	0.007832607025
0	7550	51.720742612674	0.040071025731
0	7555	51.760813638405	0.025258056169
0	7561	51.786071694574	0.011368588163
0	7566	51.797440282737	0.003590274096
0	7568	51.801030556833	0.026009747901
0	7576	51.827040304734	0.066834425648
0	7581	51.893874730382	0.004370130024
0	7583	51.898244860406	0.017619914041
0	7591	51.915864774447	0.006095922739
0	7593	51.921960697186	0.009287948522
0	7598	51.931248645708	0.001677801985
0	7603	51.932926447693	0.030818145341
0	7612	51.963744593034	0.123593449017
0	7619	52.087338042051	0.048080174264
0	7624	52.135418216315	0.000135373812
0	7626	52.135553590127	0.032865651123
0	7634	52.16841924125	0.006885224102
0	7636	52.175304465352	0.030280217062
0	7644	52.205584682414	0.033214522137
0	7649	52.238799204551	0.006525737197
0	7651	52.245324941748	0.002970499386
0	7656	52.248295441134	0.04058305881
0	7664	52.288878499944	0.074766787421
0	7669	52.363645287365	0.131728827774
0	7674	52.495374115139	0.044506350081
0	7681	52.53988046522	0.032830284046
0	7683	52.572710749266	0.118752575012
0	7685	52.691463324278	0.013932135175
0	7687	52.705395459453	0.02479876264
0	7689	52.730194222093	0.056804650597
0	7691	52.78699887269	0.012503812834
0	7693	52.799502685524	0.063353885401
0	7695	52.862856570925	0.027908946654
0	7697	52.890765517579	0.018781772904
0	7699	52.909547290483	0.093485874073
0	7701	53.003033164556	0.018801430798
0	7710	53.021834595354	0.025744486423
0	7721	53.047579081777	0.096549646302
0	7747	53.144128728079	0.010881222209
0	7752	53.155009950288	0.044827871307
0	7757	53.199837821595	0.073458645
0	7763	53.273296466595	0.001170916569
0	7765	53.274467383164	0.016278001031
0	7773	53.290745384195	0.019426110386
0	7778	53.310171494581	4.8450941e-005
0	7780	53.310219945522	0.003450982507
0	7782	53.313670928029	0.00996100644
0	7787	53.323631934469	0.134467070621
0	7798	53.45809900509	0.013407382348
0	7803	53.471506387438	0.029965815509
0	7808	53.501472202947	0.068509643728
0	7822	53.569981846675	0.036117224602
0	7831	53.606099071277	0.021469632314
0	7836	53.627568703591	0.015864956478
0	7841	53.643433660069	0.020581533409
0	7848	53.664015193478	0.038561667106
0	7853	53.702576860584	0.014336950603
0	7859	53.716913811187	0.029689338344
0	7864	53.746603149531	0.074407569948
0	7873	53.821010719479	0.052158718034
0	7881	53.873169437513	0.101531816441
0	7887	53.974701253954	0.080626240682
0	7896	54.055327494636	0.168514429991
0	7907	54.223841924627	0.018131016999
0	7913	54.241972941626	0.016547774065
0	7919	54.258520715691	0.078998049957
0	7925	54.337518765648	0.118500931602
0	7931	54.45601969725	0.002355393852
0	7933	54.458375091102	0.054937342411
0	7942	54.513312433513	0.040484475139
0	7947	54.553796908652	0.039411847919
0	7953	54.593208756571	0.009196439348
0	7958	54.602405195919	0.009831190442
0	7963	54.612236386361	0.027092521494
0	7968	54.639328907855	0.008537538445
0	7973	54.6478664463	0.051903577753
0	7978	54.699770024053	0.006355272618
0	7980	54.706125296671	0.048045340204
0	7990	54.754170636875	0.089627787017
0	7997	54.843798423892	0.044733020286
0	8003	54.888531444178	0.012188702196
0	8008	54.900720146374	0.023082598002
0	8013	54.923802744376	0.021121757735
0	8018	54.944924502111	0.007549494445
0	8023	54.952473996556	0.023839734733
0	8030	54.976313731289	0.008054401885
0	8035	54.984368133174	0.052704790008
0	8041	55.037072923182	0.026835388374
0	8047	55.063908311556	0.065079230035
0	8055	55.128987541591	0.02015730405
0	8061	55.149144845641	0.005241082289
0	8063	55.15438592793	0.129096519142
0	8076	55.283482447072	0.019484593243
0	8081	55.302967040315	0.012524843531
0	8086	55.315491883846	0.064770497631
0	8092	55.380262381477	0.002879189791
0	8094	55.383141571268	0.059637606155
0	8106	55.442779177423	0.04542427992
0	8114	55.488203457343	0.003781612341
0	8117	55.491985069684	0.129709672306
0	8127	55.62169474199	0.005951998108
0	8129	55.627646740098	0.053328459812
0	8141	55.68097519991	0.012694189767
0	8146	55.693669389677	0.009931253589
0	8151	55.703600643266	0.002742243038
0	8153	55.706342886304	0.001303613231
0	8155	55.707646499535	0.019347976673
0	8166	55.726994476208	0.018285023517
0	8171	55.745279499725	0.003985123006
0	8173	55.749264622731	0.073559275443
0	8184	55.822823898174	0.029394172548
0	8190	55.852218070722	0.019796802236
0	8195	55.872014872958	0.009908564015
0	8200	55.881923436973	0.011696839524
0	8206	55.893620276497	0.031759452198
0	8212	55.925379728695	0.095830815335
0	8221	56.02121054403	0.004375894209
0	8223	56.025586438239	0.051785129947
0	8231	56.077371568186	0.130370603093
0	8240	56.207742171279	0.033044943822
0	8249	56.240787115101	0.094378719887
0	8257	56.335165834988	9.3823042e-005
0	8259	56.33525965803	0.017403626444
0	8268	56.352663284474	0.093834828141
0	8278	56.446498112615	0.009705763513
0	8283	56.456203876128	0.039212567896
0	8288	56.495416444024	0.010087460877
0	8294	56.505503904901	0.008897163195
0	8299	56.514401068096	0.0231165863
0	8304	56.537517654396	0.000877260564
0	8306	56.53839491496	0.001428507512
0	8308	56.539823422472	0.000262372056
0	8310	56.540085794528	0.035729134667
0	8324	56.575814929195	0.091798893266
0	8329	56.667613822461	0.018366615543
0	8334	56.685980438004	0.041349188951
0	8339	56.727329626955	0.016585155265
0	8344	56.74391478222	0.042744806192
0	8349	56.786659588412	0.058008808223
0	8354	56.844668396635	0.031727544703
0	8359	56.876395941338	0.043209385442
0	8365	56.91960532678	0.026968806227
0	8370	56.946574133007	0.108023899861
0	8375	57.054598032868	0.021281106902
0	8380	57.07587913977	0.015181816633
0	8385	57.091060956403	0.032087085509
0	8390	57.123148041912	0.079740840998
0	8395	57.20288888291	0.03715436607
0	8400	57.24004324898	0.051433666055
0	8405	57.291476915035	0.016340526211
0	8410	57.307817441246	0.015479491615
0	8415	57.323296932861	0.038616385595
0	8420	57.361913318456	0.034019173758
0	8425	57.395932492214	0.021365174006
0	8430	57.41729766622	0.011916736704
0	8435	57.429214402924	0.003111647871
0	8437	57.432326050795	0.072612833384
0	8445	57.504938884179	0.009292326493
0	8450	57.514231210672	0.004174270449
0	8452	57.518405481121	0.002970580333
0	8454	57.521376061454	0.008358299581
0	8462	57.529734361035	0.013602174818
0	8467	57.543336535853	0.007075492769
0	8472	57.550412028622	0.033075629671
0	8480	57.583487658293	0.018055860288
0	8485	57.601543518581	0.016039609707
0	8490	57.617583128288	0.047859200165
0	8495	57.665442328453	0.045340983237
0	8500	57.71078331169	0.026196248222
0	8505	57.736979559912	0.03966858911
0	8510	57.776648149022	0.023407953946
0	8515	57.800056102968	0.005470242488
0	8517	57.805526345456	1.9114199e-005
0	8519	57.805545459655	0.006439088027
0	8524	57.811984547682	0.01939294507
0	8535	57.831377492752	0.002331179803
0	8537	57.833708672555	0.002298211481
0	8539	57.836006884036	0.010744208389
0	8547	57.846751092425	0.008172979711
0	8552	57.854924072136	0.014989031008
0	8561	57.869913103144	0.094292018974
0	8567	57.964205122118	0.003233563156
0	8569	57.967438685274	0.008490263561
0	8574	57.975928948835	0.03226577404
0	8582	58.008194722875	0.068400807009
0	8587	58.076595529884	0.04385773329
0	8592	58.120453263174	0.056840365533
0	8597	58.177293628707	0.005986813666
0	8599	58.183280442373	0.006066813243
0	8604	58.189347255616	0.014656577329
0	8612	58.204003832945	0.032573574482
0	8617	58.236577407427	0.045471976635
0	8622	58.282049384062	0.004302052585
0	8624	58.286351436647	0.038101566057
0	8632	58.324453002704	0.045553973796
0	8637	58.3700069765	0.067455657404
0	8642	58.437462633904	0.035511936399
0	8647	58.472974570303	0.02830765442
0	8652	58.501282224723	0.058484530132
0	8657	58.559766754855	0.000913288774
0	8659	58.560680043629	0.022846026719
0	8667	58.583526070348	0.00206601685
0	8669	58.585592087198	0.086222312021
0	8679	58.671814399219	0.002920680615
0	8681	58.674735079834	0.001771287326
0	8683	58.67650636716	0.025480800905
0	8694	58.701987168065	0.01212984532
0	8699	58.714117013385	0.049242569085
0	8704	58.76335958247	0.043940773502
0	8709	58.807300355972	0.001148194415
0	8711	58.808448550387	0.018951537278
0	8719	58.827400087665	0.021352477695
0	8724	58.84875256536	0.006646211511
0	8726	58.855398776871	0.060963490751
0	8734	58.916362267622	0.003969165277
0	8736	58.920331432899	0.038655638174
0	8744	58.958987071073	0.059504337524
0	8749	59.018491408597	0.027631680819
0	8754	59.046123089416	0.022428912502
0	8759	59.068552001918	0.031104640966
0	8765	59.099656642884	0.074881713304
0	8770	59.174538356188	0.079379663679
0	8775	59.253918019867	0.046255653716
0	8780	59.300173673583	0.029954722751
0	8785	59.330128396334	0.018450907639
0	8790	59.348579303973	0.019175404289
0	8795	59.367754708262	0.016366842704
0	8800	59.384121550966	0.042485119707
0	8805	59.426606670673	0.025372320271
0	8810	59.451978990944	0.015467661611
0	8815	59.467446652555	0.076956785138
0	8821	59.544403437693	0.126302925593
0	8823	59.670706363286	0.046783136356
0	8825	59.717489499642	0.072033191218
0	8827	59.78952269086	0.000180820014
0	8829	59.789703510874	0.005963207554
0	8831	59.795666718428	0.041464015273
0	8833	59.837130733701	0.040334385678
0	8835	59.877465119379	0.088185655563
0	8837	59.965650774942	0.00121326459
0	8839	59.966864039532	0.043380650557
0	8845	60.010244690089	0.075761951149
0	8877	60.086006641238	0.006818213378
0	8879	60.092824854616	0.065218509433
0	8887	60.158043364049	0.02312502827
0	8892	60.181168392319	0.024976390364
0	8897	60.206144782683	0.005291664926
0	8899	60.211436447609	0.004781310089
0	8904	60.216217757698	0.015565145923
0	8912	60.231782903621	0.034001378375
0	8918	60.265784281996	0.096826805882
0	8923	60.362611087878	0.009574770179
0	8928	60.372185858057	0.089877295192
0	8934	60.462063153249	0.03488132477
0	8939	60.496944478019	0.011635817255
0	8944	60.508580295274	0.041416883318
0	8949	60.549997178592	0.014523480395
0	8954	60.564520658987	0.003931713823
0	8956	60.56845237281	0.032088806305
0	8964	60.600541179115	0.022682462589
0	8970	60.623223641704	0.115576438336
0	8975	60.73880008004	0.030831766605
0	8980	60.769631846645	0.005597746135
0	8982	60.77522959278	0.010238482552
0	8990	60.785468075332	0.010393147057
0	8995	60.795861222389	0.007854252124
0	9000	60.803715474513	0.072378681031
0	9005	60.876094155544	0.035549943557
0	9010	60.911644099101	0.023697159932
0	9015	60.935341259033	0.050057677189
0	9020	60.985398936222	0.080228736905
0	9026	61.065627673127	0.015571446414
0	9031	61.081199119541	0.007182098642
0	9033	61.088381218183	0.043192800936
0	9041	61.131574019119	0.026625081064
0	9047	61.158199100183	0.030982589563
0	9052	61.189181689746	0.013822385223
0	9058	61.203004074969	0.058050768542
0	9063	61.261054843511	0.013320681476
0	9068	61.274375524987	0.007988631812
0	9073	61.282364156799	0.020726118139
0	9078	61.303090274938	0.055705373958
0	9083	61.358795648896	0.019863640434
0	9088	61.37865928933	0.01084307471
0	9093	61.38950236404	0.015475256018
0	9098	61.404977620058	0.012396951493
0	9103	61.417374571551	0.086266604775
0	9109	61.503641176326	0.133859937975
0	9115	61.637501114301	0.046053498112
0	9120	61.683554612413	0.001648704312
0	9122	61.685203316725	0.045510119971
0	9130	61.730713436696	0.007364591613
0	9135	61.738078028309	0.01198289445
0	9140	61.750060922759	0.025752766445
0	9145	61.775813689204	0.030172156955
0	9150	61.805985846159	0.016505850216
0	9155	61.822491696375	0.052864168654
0	9160	61.875355865029	0.009702120348
0	9165	61.885057985377	0.055567025065
0	9170	61.940625010442	0.040381731718
0	9175	61.98100674216	0.014784120729
0	9180	61.995790862889	0.038722357274
0	9186	62.034513220163	0.051571722183
0	9191	62.086084942346	0.11609735822
0	9196	62.202182300566	0.046599152266
0	9201	62.248781452832	0.073803361866
0	9206	62.322584814698	0.005340165185
0	9208	62.327924979883	0.208818249491
0	9217	62.536743229374	0.070332801585
0	9222	62.607076030959	0.015778343372
0	9227	62.622854374331	0.02037633686
0	9232	62.643230711191	0.001620132707
0	9234	62.644850843898	0.023321580661
0	9242	62.668172424559	0.013771883894
0	9247	62.681944308453	0.020820668956
0	9252	62.702764977409	0.024044847257
0	9257	62.726809824666	0.029364064903
0	9262	62.756173889569	0.006614248085
0	9265	62.762788137654	0.033973301175
0	9273	62.796761438829	0.003112002682
0	9275	62.799873441511	0.024132952267
0	9283	62.824006393778	0.02109838178
0	9288	62.845104775558	0.070553611252
0	9294	62.91565838681	0.094432906503
0	9300	63.010091293313	0.034585202861
0	9302	63.044676496174	0.050413706175
0	9304	63.095090202349	0.017962293343
0	9306	63.113052495692	0.013062690492
0	9309	63.126115186184	0.018866382799
0	9311	63.144981568983	0.076816846707
0	9313	63.22179841569	0.058280415458
0	9315	63.280078831148	0.041822484668
0	9318	63.321901315816	0.014980180266
0	9320	63.336881496082	0.021783930852
0	9322	63.358665426934	0.008314794003
0	9324	63.366980220937	0.010757854546
0	9326	63.377738075483	0.002142680124
0	9328	63.379880755607	0.029992308552
0	9330	63.409873064159	0.07306915921
0	9332	63.482942223369	0.007587650901
0	9334	63.49052987427	0.087770281734
0	9370	63.578300156004	0.047313773012
0	9390	63.625613929016	0.00447894807
0	9395	63.630092877086	0.096721675421
0	9403	63.726814552507	0.014251201319
0	9408	63.741065753826	0.03768305271
0	9414	63.778748806536	0.006748804608
0	9416	63.785497611144	0.045183694696
0	9425	63.83068130584	0.00431141803
0	9427	63.83499272387	0.006289887074
0	9432	63.841282610944	0.080543867811
0	9440	63.921826478755	0.048272537276
0	9445	63.970099016031	0.002049559691
0	9447	63.972148575722	0.024075617002
0	9455	63.996224192724	0.137781214544
0	9460	64.134005407268	0.003200352681
0	9462	64.137205759949	0.003549867419
0	9464	64.140755627368	0.017097125024
0	9475	64.157852752392	0.069692547417
0	9480	64.227545299809	0.045755198475
0	9485	64.273300498284	0.029255714864
0	9490	64.302556213148	0.030213699049
0	9495	64.332769912197	0.016055736947
0	9500	64.348825649144	0.01280421937
0	9505	64.361629868514	0.014667478125
0	9510	64.376297346639	0.157055444393
0	9515	64.533352791032	0.049566771817
0	9520	64.582919562849	0.029868674018
0	9525	64.612788236867	0.013219979694
0	9530	64.626008216561	0.101482452879
0	9535	64.72749066944	0.037483426623
0	9541	64.764974096063	0.028716364877
0	9546	64.79369046094	0.025494489139
0	9551	64.819184950079	0.029107503345
0	9556	64.848292453424	0.023223258973
0	9561	64.871515712397	0.001838413163
0	9563	64.87335412556	0.080999621451
0	9571	64.954353747011	0.003846597132
0	9573	64.958200344143	0.028310929102
0	9581	64.986511273245	0.033356869916
0	9586	65.019868143161	0.061378240607
0	9592	65.081246383768	0.04603908724
0	9597	65.127285471008	0.045257517826
0	9602	65.172542988834	0.009791488084
0	9607	65.182334476918	0.001376208748
0	9609	65.183710685666	0.116324674424
0	9617	65.30003536009	0.051915156941
0	9622	65.351950517031	0.047314639991
0	9627	65.399265157022	0.008555991241
0	9632	65.407821148263	0.009513823165
0	9637	65.417334971428	0.081710587772
0	9642	65.4990455592	0.036190203796
0	9647	65.535235762996	0.001535543728
0	9649	65.536771306724	0.014530123807
0	9657	65.551301430531	0.014177563021
0	9662	65.565478993552	0.045501610321
0	9667	65.610980603873	0.003677234152
0	9669	65.614657838025	0.030747342167
0	9677	65.645405180192	0.022591791986
0	9683	65.667996972178	0.049464443535
0	9688	65.717461415713	0.060022308644
0	9693	65.777483724357	0.010137249427
0	9698	65.787620973784	0.012393108003
0	9703	65.800014081787	0.094240995368
0	9709	65.894255077155	0.005726679473
0	9711	65.899981756628	0.173671146071
0	9720	66.073652902699	0.014030667478
0	9725	66.087683570177	0.006291743086
0	9727	66.093975313263	0.058847753834
0	9735	66.152823067097	0.02517538703
0	9740	66.177998454127	0.005294430577
0	9742	66.183292884704	0.069693977197
0	9751	66.252986861901	0.009028083025
0	9756	66.262014944926	0.014953666571
0	9761	66.276968611497	0.002496795225
0	9763	66.279465406722	0.009726956638
0	9768	66.28919236336	0.042811640919
0	9776	66.332004004279	0.045965022437
0	9782	66.377969026716	0.017601934584
0	9787	66.3955709613	0.13282613168
0	9793	66.52839709298	0.01302986241
0	9795	66.54142695539	0.024523486476
0	9797	66.565950441866	0.044382517335
0	9799	66.610332959201	0.017440108602
0	9801	66.627773067803	0.014330375943
0	9803	66.642103443746	0.01741144921
0	9805	66.659514892956	0.045538942325
0	9807	66.705053835281	0.05538192276
0	9809	66.760435758041	0.059096723981
0	9811	66.819532482022	0.042853406259
0	9813	66.862385888281	0.008591431875
0	9815	66.870977320156	0.013442505009
0	9817	66.884419825165	0.127494839081
0	9823	67.011914664246	0.128539585483
0	9864	67.140454249729	0.006200754382
0	9866	67.146655004111	0.077761152087
0	9874	67.224416156198	0.012028638475
0	9879	67.236444794673	0.042247490632
0	9884	67.278692285305	0.006937046219
0	9886	67.285629331524	0.020342255609
0	9894	67.305971587133	0.014836231911
0	9899	67.320807819044	0.008130687745
0	9904	67.328938506789	0.022891524688
0	9909	67.351830031477	0.0382731782
0	9914	67.390103209677	0.025847938796
0	9919	67.415951148473	0.049069193145
0	9924	67.465020341618	0.067250887759
0	9929	67.532271229377	0.032428791869
0	9934	67.564700021246	0.07707939559
0	9940	67.641779416836	0.023954662955
0	9945	67.665734079791	0.00870080835
0	9950	67.674434888141	0.004396362227
0	9952	67.678831250368	0.034133016485
0	9960	67.712964266853	0.053755270302
0	9965	67.766719537155	0.004137566826
0	9967	67.770857103981	0.023676445795
0	9975	67.794533549776	0.021499809752
0	9980	67.816033359528	0.067372754318
0	9986	67.883406113846	0.013618502044
0	9991	67.89702461589	0.005068564707
0	9993	67.902093180597	0.013318539853
0	10001	67.91541172045	0.117423753278
0	10006	68.032835473728	0.023061799139
0	10011	68.055897272867	0.023649581052
0	10016	68.079546853919	0.045804330591
0	10022	68.12535118451	0.00262854098
0	10024	68.12797972549	0.002509227632
0	10026	68.130488953122	0.011503172018
0	10034	68.14199212514	0.07396893995
0	10044	68.21596106509	0.081505406051
0	10049	68.297466471141	0.046456304037
0	10054	68.343922775178	0.014227239865
0	10059	68.358150015043	0.006796684257
0	10061	68.3649466993	0.12282076132
0	10069	68.48776746062	0.097983296896
0	10074	68.585750757516	0.020552187995
0	10079	68.606302945511	0.024704819829
0	10084	68.63100776534	0.016007526901
0	10089	68.647015292241	0.299635639076
0	10095	68.946650931317	0.05458429486
0	10100	69.001235226177	0.007690331093
0	10102	69.00892555727	0.022031026547
0	10110	69.030956583817	0.026793216585
0	10115	69.057749800402	0.002750097943
0	10117	69.060499898345	0.011999390405
0	10122	69.07249928875	0.061780662285
0	10130	69.134279951035	0.012692925456
0	10135	69.146972876491	0.054699804404
0	10140	69.201672680895	0.031296999658
0	10145	69.232969680553	0.025325711883
0	10150	69.258295392436	0.089160793781
0	10155	69.347456186217	0.000340567708
0	10157	69.347796753925	0.057263840921
0	10165	69.405060594846	0.005130852739
0	10167	69.410191447585	0.045049973703
0	10175	69.455241421288	0.043566672758
0	10180	69.498808094046	0.028668659019
0	10185	69.527476753065	0.031279216211
0	10190	69.558755969276	0.089420827641
0	10195	69.648176796917	0.042144240604
0	10200	69.690321037521	0.02372949326
0	10205	69.714050530781	0.015671189617
0	10210	69.729721720398	0.072454981836
0	10215	69.802176702234	0.034739919125
0	10220	69.836916621359	0.062847992859
0	10225	69.899764614218	0.01997179653
0	10230	69.919736410748	0.008420615971
0	10235	69.928157026719	0.018693359579
0	10240	69.946850386298	0.05162564101
0	10245	69.998476027308	0.018766971655
0	10251	70.017242998963	0.00042860436
0	10253	70.017671603323	0.001140322875
0	10255	70.018811926198	0.013644128628
0	10257	70.032456054826	0.002202706865
0	10259	70.034658761691	0.009128110468
0	10261	70.043786872159	0.066240696517
0	10263	70.110027568676	0.024743885742
0	10265	70.134771454418	0.041620882608
0	10267	70.176392337026	0.046726507951
0	10269	70.223118844977	0.00916648567
0	10271	70.232285330647	0.003597371121
0	10273	70.235882701768	0.004399741107
0	10275	70.240282442875	0.025320610002
0	10277	70.265603052877	0.001454674158
0	10279	70.267057727035	0.097555102144
0	10282	70.364612829179	0.022867721352
0	10284	70.387480550531	0.009086300289
0	10286	70.39656685082	0.031032824711
0	10288	70.427599675531	0.039568901054
0	10290	70.467168576585	0.079882269775
0	10308	70.54705084636	0.031452678414
0	10325	70.578503524774	0.088519600399
0	10364	70.667023125173	0.000354013647
0	10366	70.66737713882	0.0159632118
0	10374	70.68334035062	0.022607618375
0	10379	70.705947968995	0.093496363465
0	10384	70.79944433246	0.043177514716
0	10389	70.842621847176	0.027621025802
0	10394	70.870242872978	0.001574008378
0	10396	70.871816881356	0.029873608462
0	10404	70.901690489818	0.074069934681
0	10409	70.975760424499	0.006887596314
0	10411	70.982648020813	0.025694858572
0	10419	71.008342879385	0.004309952742
0	10421	71.012652832127	0.001089932671
0	10424	71.013742764798	0.009807401734
0	10436	71.023550166532	0.00889475695
0	10442	71.032444923482	0.004645166045
0	10445	71.037090089527	0.107523102408
0	10468	71.144613191935	0.008844163192
0	10474	71.153457355127	0.03055636681
0	10483	71.184013721937	0.027164311217
0	10489	71.211178033154	0.003979430995
0	10492	71.215157464149	0.070941043498
0	10501	71.286098507647	0.011866323968
0	10506	71.297964831615	0.055463999739
0	10513	71.353428831354	0.021353510577
0	10518	71.374782341931	0.001151194443
0	10520	71.375933536374	0.000741042115
0	10522	71.376674578489	0.041971149362
0	10536	71.418645727851	0.018563113271
0	10541	71.437208841122	0.001677267098
0	10543	71.43888610822	0.023529926408
0	10551	71.462416034628	0.217960125879
0	10567	71.680376160507	0.00977507657
0	10572	71.690151237077	0.053655224202
0	10580	71.743806461279	0.031089943576
0	10585	71.774896404855	0.009210631381
0	10590	71.784107036236	0.048976884685
0	10598	71.833083920921	0.023574627666
0	10603	71.856658548587	0.009413968492
0	10609	71.866072517079	0.047704066609
0	10617	71.913776583688	0.033911514101
0	10624	71.947688097789	0.064098054304
0	10631	72.011786152093	0.035721086963
0	10636	72.047507239056	0.009095868323
0	10641	72.056603107379	0.103843471448
0	10646	72.160446578827	0.005033397418
0	10648	72.165479976245	0.052721293179
0	10659	72.218201269424	0.093616578785
0	10667	72.311817848209	0.066015208941
0	10675	72.37783305715	0.038884067123
0	10680	72.416717124273	0.023595888031
0	10686	72.440313012304	0.073142086069
0	10692	72.513455098373	0.007174824092
0	10698	72.520629922465	0.009256259667
0	10703	72.529886182132	0.191671159799
0	10712	72.721557341931	0.004821776524
0	10715	72.726379118455	0.004848264474
0	10720	72.731227382929	0.015094916625
0	10728	72.746322299554	0.022317110174
0	10733	72.768639409728	0.010195096919
0	10738	72.778834506647	0.002468282761
0	10740	72.781302789408	0.002643776132
0	10742	72.78394656554	0.100791032347
0	10754	72.884737597887	0.036195993357
0	10760	72.920933591244	0.1172592787
0	10771	73.038192869944	0.010125476486
0	10776	73.04831834643	0.044477514178
0	10781	73.092795860608	0.020938582537
0	10786	73.113734443145	0.015077016958
0	10791	73.128811460103	0.01190348541
0	10796	73.140714945513	0.010273984117
0	10801	73.15098892963	0.088926020301
0	10808	73.239914949931	0.010790414294
0	10814	73.250705364225	0.020937608117
0	10820	73.271642972342	0.004765480068
0	10823	73.27640845241	0.074167448348
0	10834	73.350575900758	0.026115074895
0	10839	73.376690975653	0.001575506829
0	10841	73.378266482482	0.005352838286
0	10843	73.383619320768	0.026860537306
0	10855	73.410479858074	0.013330315403
0	10860	73.423810173477	0.021098486653
0	10866	73.44490866013	0.034488658559
0	10872	73.479397318689	0.013814492973
0	10877	73.493211811662	0.045509685531
0	10883	73.538721497193	0.01249309727
0	10886	73.551214594463	0.000860025102
0	10888	73.552074619565	0.010861221515
0	10900	73.56293584108	0.019681284874
0	10905	73.582617125954	0.007789447294
0	10910	73.590406573248	0.036956881476
0	10917	73.627363454724	0.023748184197
0	10924	73.651111638921	0.067164909864
0	10930	73.718276548785	0.014816564212
0	10935	73.733093112997	0.022574154319
0	10942	73.755667267316	0.014048099633
0	10948	73.769715366949	0.121815099713
0	10958	73.891530466662	0.002397523862
0	10960	73.893927990524	0.010806101878
0	10966	73.904734092402	0.000488672389
0	10971	73.905222764791	0.00047602716
0	10973	73.905698791951	0.084928394569
0	10988	73.99062718652	0.023140938944
0	10994	74.013768125464	0.018690816925
0	10999	74.032458942389	0.010355352252
0	11004	74.042814294641	0.039558429362
0	11013	74.082372724003	0.060748395733
0	11022	74.143121119736	0.021077290292
0	11028	74.164198410028	0.00927402475
0	11033	74.173472434778	0.007837933616
0	11038	74.181310368394	0.013019160295
0	11045	74.194329528689	0.092812671889
0	11054	74.287142200578	0.054827843181
0	11060	74.341970043759	0.004580202752
0	11062	74.346550246511	0.043951910163
0	11070	74.390502156674	0.022980112487
0	11079	74.413482269161	0.028579646588
0	11085	74.442061915749	0.003367402296
0	11087	74.445429318045	0.042721135515
0	11095	74.48815045356	0.009114877432
0	11100	74.497265330992	0.01898328928
0	11106	74.516248620272	0.040477526815
0	11114	74.556726147087	0.000186346944
0	11116	74.556912494031	0.026159653643
0	11124	74.583072147674	0.000399703029
0	11126	74.583471850703	0.027952009065
0	11135	74.611423859768	0.025054625656
0	11140	74.636478485424	0.062482494115
0	11149	74.698960979539	0.003043781219
0	11152	74.702004760758	0.002194625029
0	11154	74.704199385787	0.00183491066
0	11159	74.706034296447	0.082321955978
0	11170	74.788356252425	0.117854740927
0	11179	74.906210993352	0.036866746474
0	11185	74.943077739826	0.068565494217
0	11194	75.011643234043	0.035846117265
0	11201	75.047489351308	0.005771736458
0	11203	75.053261087766	0.001073585649
0	11205	75.054334673415	2.3255268e-005
0	11207	75.054357928683	0.084306345924
0	11227	75.138664274607	0.099456033455
0	11238	75.238120308062	0.000993333207
0	11240	75.239113641269	0.011416327913
0	11245	75.250529969182	0.007179094143
0	11250	75.257709063325	0.007198419199
0	11255	75.264907482524	0.079187878133
0	11265	75.344095360657	0.041162090453
0	11270	75.38525745111	0.004742773967
0	11272	75.390000225077	0.004035598835
0	11277	75.394035823912	0.01776173574
0	11285	75.411797559652	0.010759285256
0	11291	75.422556844908	0.049956247763
0	11297	75.472513092671	0.129243580242
0	11308	75.601756672913	0.028969563762
0	11313	75.630726236675	0.035705602148
0	11320	75.666431838823	0.045888691228
0	11325	75.712320530051	0.025738378483
0	11330	75.738058908534	0.007498432263
0	11336	75.745557340797	0.017757692963
0	11343	75.76331503376	0.018589113169
0	11350	75.781904146929	0.052130377954
0	11355	75.834034524883	0.024147500013
0	11362	75.858182024896	0.005317790051
0	11364	75.863499814947	0.00977256134
0	11372	75.873272376287	0.119753786116
0	11385	75.993026162403	0.216096897553
0	11393	76.209123059956	0.069095834161
0	11402	76.278218894117	0.038921711022
0	11408	76.317140605139	0.033650298706
0	11414	76.350790903845	0.07532929364
0	11423	76.426120197485	0.001534885508
0	11425	76.427655082993	0.017471011368
0	11433	76.445126094361	0.042239015745
0	11439	76.487365110106	0.090584678323
0	11445	76.577949788429	0.085579229459
0	11450	76.663529017888	0.010144870246
0	11456	76.673673888134	0.026024267056
0	11461	76.69969815519	0.006014307418
0	11464	76.705712462608	0.015305634961
0	11473	76.721018097569	0.054103217312
0	11478	76.775121314881	0.004485200506
0	11480	76.779606515387	0.126438709012
0	11491	76.906045224399	0.049213273097
0	11499	76.955258497496	0.002241523132
0	11501	76.957500020628	0.075705461967
0	11512	77.033205482595	0.003687722233
0	11514	77.036893204828	0.003697409644
0	11516	77.040590614472	0.013390155592
0	11518	77.053980770064	0.049801299152
0	11528	77.103782069216	0.026125556538
0	11539	77.129907625754	0.00060226926
0	11541	77.130509895014	0.042640947166
0	11550	77.17315084218	0.119451964194
0	11562	77.292602806374	0.108969093816
0	11569	77.40157190019	0.033413193387
0	11575	77.434985093577	0.004387560193
0	11577	77.43937265377	0.028137989871
0	11586	77.467510643641	0.015419102306
0	11592	77.482929745947	0.01228169851
0	11597	77.495211444457	0.010837162902
0	11603	77.506048607359	0.092721717335
0	11609	77.598770324694	0.057653260106
0	11615	77.6564235848	0.010819119157
0	11620	77.667242703957	0.006250966507
0	11622	77.673493670464	0.061638974027
0	11631	77.735132644491	0.073299360664
0	11636	77.808432005155	0.14724418171
0	11641	77.955676186865	0.052007888923
0	11646	78.007684075788	0.053539060213
0	11651	78.061223136001	0.075341098687
0	11656	78.136564234688	0.025615346383
0	11661	78.162179581071	0.121771796927
0	11667	78.283951377998	0.002392542423
0	11669	78.286343920421	0.02982040171
0	11677	78.316164322131	0.022380504769
0	11683	78.3385448269	0.021463768253
0	11688	78.360008595153	0.020184813428
0	11693	78.380193408581	0.023227668633
0	11698	78.403421077214	0.007932565145
0	11703	78.411353642359	0.079054220846
0	11708	78.490407863205	0.019282619109
0	11713	78.509690482314	0.00819199662
0	11718	78.517882478934	0.015497647272
0	11723	78.533380126206	0.016469756667
0	11728	78.549849882873	0.00625621687
0	11730	78.556106099743	0.035868113572
0	11738	78.591974213315	0.02037963659
0	11743	78.612353849905	0.04406136018
0	11748	78.656415210085	0.010671359801
0	11753	78.667086569886	0.002030820091
0	11755	78.669117389977	0.025839629512
0	11763	78.694957019489	0.133830395078
0	11770	78.828787414567	0.001252757045
0	11772	78.830040171612	0.014092643764
0	11777	78.844132815376	0.08284239156
0	11786	78.926975206936	0.008076314294
0	11791	78.93505152123	0.059318049859
0	11796	78.994369571089	0.012844120726
0	11801	79.007213691815	0.028149117424
0	11806	79.035362809239	0.146462760866
0	11812	79.181825570105	0.066823767148
0	11818	79.248649337253	0.038652608391
0	11823	79.287301945644	0.114821706268
0	11828	79.402123651912	0.009849200703
0	11833	79.411972852615	0.004099229367
0	11835	79.416072081982	0.007858007923
0	11840	79.423930089905	0.034877602916
0	11848	79.458807692821	0.002724687197
0	11850	79.461532380018	0.217406503174
0	11858	79.678938883192	0.015796255495
0	11863	79.694735138687	0.154477928647
0	11868	79.849213067334	0.060755442329
0	11874	79.909968509663	0.032362152192
0	11879	79.942330661855	0.011275962839
0	11884	79.953606624694	0.004794642704
0	11886	79.958401267398	0.016087505982
0	11894	79.97448877338	0.030629605495
0	11899	80.005118378875	0.050159220367
0	11904	80.055277599242	7.2336805e-005
0	11906	80.055349936047	0.041669347887
0	11914	80.097019283934	0.007762427727
0	11916	80.104781711661	0.018611807612
0	11924	80.123393519273	0.109422902542
0	11930	80.232816421815	0.00628280436
0	11932	80.239099226175	0.014039737235
0	11941	80.25313896341	0.078476112999
0	11946	80.331615076409	0.035601625246
0	11951	80.367216701655	0.029953396209
0	11957	80.397170097864	0.011539448198
0	11962	80.408709546062	0.010386137503
0	11967	80.419095683565	0.103358225072
0	11973	80.522453908637	0.009457773483
0	11975	80.53191168212	0.045640332255
0	11977	80.577552014375	0.020821715868
0	11979	80.598373730243	0.013998496414
0	11981	80.612372226657	0.018062965399
0	11983	80.630435192056	0.054917479655
0	11986	80.685352671711	0.002497866372
0	11988	80.687850538083	0.004006615529
0	11990	80.691857153612	0.100352212545
0	11992	80.792209366157	0.017433678559
0	11994	80.809643044716	0.054118674525
0	11996	80.863761719241	0.008750849995
0	11998	80.872512569236	0.024019350513
0	12000	80.896531919749	0.040290171745
0	12002	80.936822091494	0.013855289789
0	12004	80.950677381283	0.003782880755
0	12006	80.954460262038	0.007008853422
0	12008	80.96146911546	0.017705832577
0	12010	80.979174948037	0.006365419973
0	12012	80.98554036801	0.011335159757
0	12014	80.996875527767	0.009627880982
0	12017	81.006503408749	0.024706996085
0	12032	81.031210404834	0.008719861331
0	12037	81.039930266165	0.015071892713
0	12045	81.055002158878	0.043289479208
0	12062	81.098291638086	0.042895055068
0	12082	81.141186693154	0.051382971949
[...]
21	28102	190.098393415664	4.4068659490538
21	28748	194.505259364718	0.98663025837274
21	28895	195.491889623091	4.4661431570037
21	29482	199.958032780095	2.2217815092785
21	29811	202.179814289373	3.1909639217887
21	30241	205.370778211162	6.9758605017895
21	31355	212.346638712951	0.31098129837197
21	31397	212.657620011323	7.0254177062207
21	32674	219.683037717544	0.30307877653036
21	32752	219.986116494074	0.53086832904459
21	32845	220.516984823119	0.80191826174657
21	32979	221.318903084866	1.0679738269862
21	33128	222.386876911852	4.621707039762
21	33815	227.008583951614	0.056808935722111
21	33825	227.065392887336	0.1093228705379
21	33861	227.174715757874	1.2520511781996
21	34080	228.426766936074	1.838349475002
21	34388	230.265116411076	2.1489325487024
21	34664	232.414048959778	1.9882756571201
21	34937	234.402324616898	0.59816509434225
21	34996	235.00048971124	1.1477304003919
21	35214	236.148220111632	7.2082079621631
21	36348	243.356428073795	9.9266505759847
21	37824	253.28307864978	0.13739984187845
21	37856	253.420478491658	2.3715456631246
21	38179	255.792024154783	1.3785123477652
21	38416	257.170536502548	2.4910810131701
21	38803	259.661617515718	1.2361988432705
21	38984	260.897816358988	1.7080632369898
21	39232	262.605879595978	4.8589041905876
21	40028	267.464783786566	3.1805859436672
21	40428	270.645369730233	9.0658441176437
21	41895	279.711213847877	3.7832006859551
21	42556	283.494414533832	2.688575249453
21	42970	286.182989783285	2.9895682007513
21	43389	289.172557984036	2.1036708038978
21	43770	291.276228787934	0.68400129634766
21	43863	291.960230084282	7.6942945797673
21	45026	299.654524664049	0.65827737038759
21	45115	300.312802034437	0.22522252202023
21	45159	300.538024556457	5.6145069908601
21	46025	306.152531547317	5.0222124473151
21	46851	311.174743994632	1.0294079046215
21	47070	312.204151899253	1.5195563816163
21	47310	313.723708280869	2.4014336588241
21	47641	316.125141939693	0.070138628219987
21	47642	316.195280567913	0.66229776739992
21	47761	316.857578335313	1.8456268677224
21	48020	318.703205203035	2.4469187343929
21	48419	321.150123937428	0.940896399422
21	48565	322.09102033685	6.2484538519318
21	49587	328.339474188782	1.5921570156928
21	49835	329.931631204475	3.6077880801025
21	50413	333.539419284578	10.154275731826
21	52029	343.693695016404	3.291200027072
21	52520	346.984895043476	1.1300566545734
21	52690	348.114951698049	3.0881994350532
21	53152	351.203151133102	1.0771264163634
21	53332	352.280277549465	4.964005833416
21	54000	357.244283382881	2.5935700301847
21	54328	359.837853413066	2.9348273964876
21	54707	362.772680809554	0.45043595099635
21	54766	363.22311676055	0.6628849668934
21	54877	363.886001727443	0.49965452261994
21	54920	364.385656250063	2.899856074574
21	55484	367.285512324637	0.36187572482602
21	55563	367.647388049463	3.7857964792885
21	56063	371.433184528751	1.2623071025507
21	56266	372.695491631302	1.7926049763685
21	56604	374.488096607671	2.6702586017472
21	56924	377.158355209418	2.3991615954015
21	57282	379.557516804819	0.0061931119847609
21	57283	379.563709916804	0.33410179210719
21	57346	379.897811708911	10.339762547261
21	58887	390.237574256172	5.1984441166045
21	59682	395.436018372776	5.8653783732536
22	1798	12.313726549034	3.1862583372779
22	2238	15.499984886312	0.48249557913301
22	2313	15.982480465445	10.018987674326
22	3844	26.001468139771	2.1716798347672
22	4122	28.173147974538	1.6944612178096
22	4407	29.867609192348	10.578273787286
22	5849	40.445882979634	0.90228066555986
22	6008	41.348163645194	5.3516756987192
22	6725	46.699839343913	1.4707337582
22	6974	48.170573102113	1.6079474280271
22	7192	49.77852053014	10.825848372382
22	8966	60.604368902522	4.1442533517777
22	9540	64.7486222543	0.91867287064434
22	9682	65.667295124944	7.3572769111096
22	10768	73.024572036054	1.1628103702879
22	11040	74.187382406342	0.97486119405509
22	11233	75.162243600397	0.35156775325492
22	11302	75.513811353652	0.96086066612019
22	11438	76.474672019772	1.0494057342004
22	11608	77.524077753972	0.72592570725655
22	11666	78.250003461229	0.95994590661269
22	11817	79.209949367842	0.9665632727378
22	11929	80.17651264058	0.47069961539469
22	11985	80.647212255975	0.79235858753533
22	12162	81.43957084351	0.52912139772893
22	12208	81.968692241239	0.52830247781598
22	12303	82.496994719055	5.4331507610799
22	13014	87.930145480135	2.6731995972103
22	13357	90.603345077345	1.6989573923134
22	13634	92.302302469658	2.6541887103624
22	13917	94.95649118002	6.1937141206312
22	14970	101.150205300651	1.2098342015302
22	15112	102.360039502181	6.5101318526832
22	15987	108.870171354864	1.3116681563967
22	16171	110.181839511261	0.67259112459458
22	16260	110.854430635856	2.5338239032597
22	16652	113.388254539116	5.8656955440101
22	17554	119.253950083126	7.8176161522971
22	18822	127.071566235423	3.9355672715841
22	19267	131.007133507007	8.836449034655
22	20725	139.843582541662	1.2450161362636
22	20875	141.088598677926	11.809727581967
22	22825	152.898326259893	1.9487482334808
22	23074	154.847074493374	0.73734609190123
22	23167	155.584420585275	2.8166073127921
22	23577	158.401027898067	15.865257109258
22	25751	174.266285007325	3.9169182748501
22	26312	178.183203282175	3.3087586650785
22	26862	181.491961947253	1.2346078007853
22	27051	182.726569748038	2.2913636997101
22	27369	185.017933447748	2.4416097452652
22	27754	187.459543193013	4.1464891592869
22	28315	191.6060323523	1.2409544370202
22	28452	192.84698678932	1.0331285850609
22	28648	193.880115374381	3.1390155621175
22	29083	197.019130936498	1.1198480092885
22	29229	198.138978945786	3.8392266098838
22	29797	201.97820555567	0.15986738708026
22	29808	202.13807294275	9.256225016453
22	31217	211.394297959203	0.79063712565201
22	31329	212.184935084855	3.6674596460812
22	31990	215.852394730936	0.66193960521858
22	32161	216.514334336155	3.7468263848137
22	32803	220.261160720969	5.9409930474139
22	33700	226.202153768383	0.42076862074789
22	33783	226.622922389131	6.2609716335039
22	34748	232.883894022635	3.7023224311994
22	35292	236.586216453834	2.9341756749721
22	35755	239.520392128806	1.2540401393417
22	35984	240.774432268148	3.3026825819097
22	36442	244.077114850058	2.486392409993
22	36876	246.563507260051	0.76081337169809
22	36990	247.324320631749	8.499947440247
22	38182	255.824268071996	2.2191950981115
22	38524	258.043463170108	0.59422897065781
22	38646	258.637692140766	1.5331996583927
22	38868	260.170891799159	3.2597713842356
22	39377	263.430663183395	0.51088862775603
22	39452	263.941551811151	8.4483585141455
22	40675	272.389910325296	0.50502704516982
22	40756	272.894937370466	2.6424482606555
22	41192	275.537385631122	0.83710577965915
22	41307	276.374491410781	0.61436485784592
22	41365	276.988856268627	12.065298264513
22	43374	289.05415453314	1.8665980004763
22	43677	290.920752533616	3.6876676456264
22	44248	294.608420179242	1.6050012337176
22	44480	296.21342141296	3.3172476771312
22	45015	299.530669090091	1.6917303038527
22	45234	301.222399393944	1.6531149545935
22	45489	302.875514348538	3.7070296323719
22	46080	306.58254398091	0.82553864917414
22	46219	307.408082630084	0.042004159567686
22	46220	307.450086789652	5.2598812079225
22	47160	312.709967997574	2.051148364348
22	47433	314.761116361922	3.6336194384459
22	48003	318.394735800368	4.6894102054842
22	48730	323.084146005852	0.48800823692163
22	48791	323.572154242774	0.5189371974841
22	48869	324.091091440258	0.78984548546715
22	48996	324.880936925725	1.3335297940629
22	49173	326.214466719788	6.1599541647163
22	50237	332.374420884504	0.8340631380041
22	50370	333.208484022508	6.230504218393
22	51466	339.438988240901	14.457035886657
22	53530	353.896024127558	2.923300004334
22	53977	356.819324131892	0.38895453056547
22	53999	357.208278662457	0.39939487707682
22	54038	357.607673539534	0.73313791883415
22	54110	358.340811458368	2.2638161471731
22	54456	360.604627605541	0.35990456876535
22	54471	360.964532174306	5.2479190285141
22	55268	366.21245120282	0.1621953014486
22	55298	366.374646504269	0.34937291361277
22	55363	366.724019417882	0.69283328497174
22	55504	367.416852702854	0.65577660925064
22	55615	368.072629312105	2.2920911801722
22	55963	370.364720492277	8.1085284854786
22	57101	378.473248977756	0.65017729126694
22	57227	379.123426269023	0.34829611986583
22	57270	379.471722388889	0.029300814333314
22	57271	379.501023203222	1.0321906486021
22	57428	380.533213851824	1.6222694190236
22	57702	382.155483270848	1.9598394818668
22	57923	384.115322752715	1.3537041572767
22	58090	385.469026909992	7.098919842925
22	59282	392.567946752917	0.37991568916569
22	59316	392.947862442083	1.5636143231781
22	59539	394.511476765261	2.9909686982136
22	59949	397.502445463475	1.4692925182006
22	60138	398.971737981676	2.2804519049435
23	1901	13.034736668212	4.7264103624311
23	2573	17.761147030643	6.6087639146457
23	3572	24.369910945289	0.25698387981324
23	3605	24.626894825102	8.8747559547331
23	4896	33.501650779835	1.9676799423511
23	5117	35.469330722186	2.2274338054403
23	5528	37.696764527626	2.1035407124729
23	5778	39.800305240099	2.4198470712186
23	6121	42.220152311318	7.8333183271819
23	7288	50.0534706385	1.2552480548093
23	7472	51.308718693309	9.8470108292533
23	9046	61.155729522562	4.807173226955
23	9719	65.962902749517	1.6328135283263
23	9939	67.595716277843	7.4928350381844
23	11223	75.088551316027	1.8694230725
23	11503	76.957974388527	2.1699481596215
23	11811	79.127922548148	5.5951807101777
23	12581	84.723103258326	1.0117484730514
23	12744	85.734851731377	0.78243511988207
23	12836	86.517286851259	3.6585540234924
23	13308	90.175840874751	0.66204143956655
23	13383	90.837882314318	0.0077577452830852
23	13384	90.845640059601	2.8999228454794
23	13815	93.74556290508	1.3502612947895
23	13971	95.095824199869	1.9910783529716
23	14372	97.086902552841	3.9880570459315
23	14959	101.074959598772	0.83583713604125
23	15032	101.910796734813	3.3916070707124
23	15494	105.302403805525	1.0433313731097
23	15698	106.345735178635	3.7736726930053
23	16158	110.11940787164	0.09696491704777
23	16175	110.216372788688	0.21041527946957
23	16201	110.426788068158	1.4747075637769
23	16401	111.901495631935	4.4055990210837
23	17079	116.307094653019	1.2743940420286
23	17300	117.581488695048	6.2760456231261
23	18267	123.857534318174	0.30791956203762
23	18359	124.165453880212	5.9204414490618
23	19166	130.085895329274	0.74877529783293
23	19251	130.834670627107	6.3763825927021
23	20310	137.211053219809	0.12643459812152
23	20333	137.337487817931	1.4379449256192
23	20553	138.77543274355	0.60519700537918
23	20658	139.380629748929	4.099925358454
23	21229	143.480555107383	4.6854281023522
23	22109	148.165983209735	0.24766164116079
23	22148	148.413644850896	1.684192355915
23	22381	150.097837206811	0.32190323115279
23	22463	150.419740437964	0.57929492353295
23	22506	150.999035361497	1.2297433444377
23	22707	152.228778705935	0.41380568446897
23	22785	152.642584390404	3.1744871308823
23	23218	155.817071521286	0.31833458409627
23	23249	156.135406105382	5.3731040486679
23	23899	161.50851015405	6.244783128557
23	24758	167.753293282607	0.80908334030217
23	24862	168.562376622909	3.8951614315318
23	25442	172.457538054441	3.4128834920311
23	25947	175.870421546472	0.090702695307817
23	25973	175.96112424178	1.0174956655909
23	26117	176.978619907371	10.244045539457
23	27714	187.222665446828	0.8800007974928
23	27817	188.102666244321	2.1203502308745
23	28104	190.223016475196	4.7647216285009
23	28807	194.987738103697	3.5063177475746
23	29277	198.494055851272	1.4651173942576
23	29483	199.95917324553	1.150489956651
23	29682	201.109663202181	7.9688117187596
23	30870	209.078474920941	1.0974267698376
23	30990	210.175901690779	0.095407149334544
23	31000	210.271308840114	8.6944337525099
23	32584	218.965742592624	0.74649923933879
23	32684	219.712241831963	1.8468383355019
23	33025	221.559080167465	0.93029798846885
23	33134	222.489378155934	1.0726479175845
23	33337	223.562026073518	4.3817709920057
23	33975	227.943797065524	2.940881227557
23	34482	230.884678293081	5.0220186382318
23	35175	235.906696931313	1.5434690573537
23	35449	237.450165988667	0.67559839915206
23	35560	238.125764387819	9.5472025767415
23	37024	247.672966964561	0.68651255572848
23	37101	248.359479520289	0.53893243789133
23	37151	248.89841195818	0.53530907118271
23	37242	249.433721029363	12.89104317806
23	39199	262.324764207423	0.1904147668719
23	39221	262.515178974295	2.9488033209119
23	39737	265.463982295207	8.4601758597095
23	40885	273.924158154916	2.2278402025234
23	41283	276.151998357439	1.4278871512703
23	41522	277.579885508709	0.072708087690866
23	41543	277.6525935964	19.513402438353
23	44649	297.165996034753	4.3017237421261
23	45247	301.467719776879	3.8014209672883
23	45841	305.269140744167	0.98271039958125
23	46049	306.251851143748	0.45311123977492
23	46097	306.704962383523	1.1700598858348
23	46281	307.875022269358	2.117207271648
23	46669	309.992229541006	0.32525983383521
23	46733	310.317489374841	1.1111220201725
23	46890	311.428611395014	1.1105716854345
23	47122	312.539183080449	1.9557037114527
23	47392	314.494886791902	2.3257940164798
23	47759	316.820680808382	1.2928351641891
23	47952	318.113515972571	1.6725855930733
23	48181	319.786101565644	2.9417870336787
23	48669	322.727888599323	0.081947667614225
23	48685	322.809836266937	0.9757492220558
23	48830	323.785585488993	5.9909525187844
23	49829	329.776538007777	1.8618330577714
23	50141	331.638371065548	1.7194044024024
23	50397	333.35777546795	0.70698901227447
23	50522	334.064764480224	7.6272798665052
23	51783	341.692044346729	8.270103597299
23	52970	349.962147944028	1.1343987175462
23	53129	351.096546661574	1.1748339385351
23	53328	352.271380600109	6.8689864144534
23	54226	359.140367014562	6.5587768336816
23	55198	365.699143848244	0.84779475157283
23	55336	366.546938599817	1.8862767116866
23	55669	368.433215311504	0.56608662390043
23	55727	368.999301935404	1.0487609279302
23	55902	370.048062863334	9.1509283866574
23	57243	379.198991249991	0.14734917338462
23	57259	379.346340423376	1.9086831573429
23	57563	381.255023580719	0.94253897186399
23	57708	382.197562552583	3.4010931269022
23	58135	385.598655679485	13.764848575909
23	60164	399.363504255394	2.2968674919385
24	2735	18.527692622347	1.136312442241
24	2854	19.664005064588	4.9691999851495
24	3606	24.633205049738	1.368739580575
24	3845	26.001944630313	1.5640173326607
24	4029	27.565961962974	0.082737600254544
24	4045	27.648699563229	4.1187299545198
24	4624	31.767429517749	2.7625316337105
24	5032	34.52996115146	0.5561904462513
24	5093	35.086151597711	1.0402724223642
24	5252	36.126424020075	1.3230792072979
24	5487	37.449503227373	2.185892604752
24	5757	39.635395832125	1.1726517232226
24	5916	40.808047555348	1.4676321738589
24	6126	42.275679729207	4.0039198901016
24	6658	46.279599619309	3.2559217815913
24	7133	49.5355214009	2.9895969590251
24	7680	52.525118359925	0.72482296041573
24	7762	53.249941320341	0.78170289814831
24	7895	54.031644218489	6.3409074038718
24	8930	60.372551622361	1.640075420557
24	9185	62.012627042918	0.7486085676486
24	9264	62.761235610567	7.5199347381347
24	10281	70.281170348702	6.8008974670721
24	11520	77.082067815774	0.30041601859835
24	11568	77.382483834372	4.6084497551525
24	12216	81.990933589524	0.74265444667327
24	12351	82.733588036197	4.061540111629
24	12862	86.795128147826	1.325461285887
24	13080	88.120589433713	7.2457673522617
24	14004	95.366356785975	2.1254981710325
24	14429	97.491854957008	0.61587309071447
24	14510	98.107728047722	3.6927082923893
24	15023	101.800436340111	1.9702036678518
24	15324	103.770640007963	0.50016799301304
24	15396	104.270808000976	8.795126105117
24	16606	113.065934106093	3.6346466942043
24	17150	116.700580800297	2.3242603046111
24	17517	119.024841104908	5.5418110307764
24	18408	124.566652135684	0.98909763641697
24	18602	125.555749772101	0.23148820329919
24	18647	125.7872379754	1.1828913083509
24	18821	126.970129283751	4.2441387864774
24	19314	131.214268070228	0.60739445388582
24	19401	131.821662524114	13.09960706888
24	21535	144.921269592994	3.8798340161506
24	22195	148.801103609145	3.08008989844
24	22645	151.881193507585	0.1866080830828
24	22683	152.067801590668	12.248143436004
24	24301	164.315945026672	0.056110250993108
24	24305	164.372055277665	0.22901846975062
24	24329	164.601073747416	2.9295932399941
24	24732	167.53066698741	5.2270311308637
24	25513	172.757698118274	0.30235737852638
24	25604	173.0600554968	1.9267514638326
24	25828	174.986806960633	0.40457432938258
24	25847	175.391381290016	0.86818227511691
24	26016	176.259563565133	5.6999689120054
24	26940	181.959532477138	9.6346577706683
24	28314	191.594190247806	0.69238437905666
24	28387	192.286574626863	7.616598849035
24	29479	199.903173475898	2.043111736338
24	29790	201.946285212236	0.0056532962066554
24	29791	201.951938508443	5.5188740086072
24	30657	207.47081251705	3.3683102349399
24	31106	210.83912275199	8.1574770427615
24	32591	218.996599794752	0.25627948262597
24	32642	219.252879277378	2.0168205130649
24	32973	221.269699790443	0.45164377882488
24	33036	221.721343569268	2.2954959569992
24	33391	224.016839526267	0.9254649761773
24	33523	224.942304502444	3.3053458574979
24	34062	228.247650359942	2.3260738149217
24	34463	230.573724174864	0.69656594612208
24	34503	231.270290120986	2.2832561322795
24	34826	233.553546253265	1.4577644804479
24	34998	235.011310733713	0.27848251767652
24	35083	235.28979325139	0.95403532855715
24	35224	236.243828579947	0.20836712329088
24	35266	236.452195703238	1.4680301882665
24	35511	237.920225891505	11.760705543552
24	37263	249.680931435057	2.4423447763296
24	37572	252.123276211387	2.8740211849861
24	38088	254.997297396373	4.0919656807329
24	38708	259.089263077106	1.3126989046598
24	38914	260.401961981766	0.39045562263864
24	38972	260.792417604405	1.399332737069
24	39178	262.191750341474	3.5939657937966
24	39807	265.785716135271	1.8089193890224
24	40034	267.594635524293	3.5186560109185
24	40469	271.113291535211	1.3389846896797
24	40691	272.452276224891	0.11337912623309
24	40708	272.565655351124	3.1152101174667
24	41205	275.680865468591	8.1605239234703
24	42623	283.841389392061	5.3093335860346
24	43388	289.150722978096	0.15722010785414
24	43431	289.30794308595	4.8999416861423
24	44181	294.207884772092	4.6225584725876
24	44898	298.83044324468	0.93498117546078
24	45027	299.765424420141	2.335906697984
24	45354	302.101331118125	9.6351430133372
24	46938	311.736474131462	0.13254819418527
24	46952	311.869022325647	0.21996142587365
24	47011	312.088983751521	7.1557920936216
24	48102	319.244775845143	1.9209151899983
24	48423	321.165691035141	1.0972475027147
24	48582	322.262938537856	3.933950673347
24	49172	326.196889211203	2.9415884448522
24	49724	329.138477656055	0.81650474046415
24	49836	329.954982396519	0.44716585837115
24	49933	330.40214825489	1.0864035934234
24	50108	331.488551848313	4.1059911861323
24	50791	335.594543034445	1.8276979847793
24	51100	337.422241019224	1.2453608616508
24	51334	338.667601880875	5.0781251304372
24	52038	343.745727011312	1.4517194100089
24	52239	345.197446421321	2.6324939762444
24	52641	347.829940397565	0.43489293370715
24	52725	348.264833331272	1.2200409555645
24	52919	349.484874286836	1.4368487052697
24	53088	350.921722992106	5.6781351432112
24	53938	356.599858135317	0.34827997058374
24	53994	356.948138105901	4.0980197480612
24	54497	361.046157853962	1.7534223799808
24	54713	362.799580233943	2.0866864734204
24	55043	364.886266707363	1.5555579092047
24	55308	366.441824616568	1.1764403713086
24	55551	367.618264987877	3.0747807320248
24	56001	370.693045719902	1.0766508149597
24	56130	371.769696534862	3.7101989580674
24	56730	375.479895492929	0.050122703236757
24	56731	375.530018196166	0.77612876190453
24	56803	376.306146958071	1.7502714170063
24	57068	378.056418375077	0.77213211135867
24	57201	378.828550486436	2.9182526578219
24	57609	381.746803144258	3.9558401374603
24	58162	385.702643281718	4.6291849933707
24	58904	390.331828275089	0.18522421603475
24	58949	390.517052491124	1.986050967834
24	59274	392.503103458958	1.6561412703911
24	59483	394.159244729349	0.77745542384972
24	59606	394.936700153199	3.661067350749
24	60102	398.597767503948	3.240049630835

