file 737631 1609410365                                          
version 2
run Exponential-selection-capacity-exponential-interarrival-time-1-20201231-10:50:25-9608
attr configname Exponential-selection-capacity-exponential-interarrival-time
attr datetime 20201231-10:50:25
attr experiment Exponential-selection-capacity-exponential-interarrival-time
attr inifile aerocom.ini
attr iterationvars $0=1
attr iterationvarsf 1-
attr measurement $0=1
attr network Aerocom
attr processid 9608
attr repetition 0
attr replication #0
attr resultdir results
attr runnumber 1
attr seedset 0
param **.t 0.5s
param **.k 0.5s
param **.dataLink[*].s "70 byte"
param **.dataLink[*].X 1
param **.nDL 1
param **.dataLink[*].dimPoolMax 100
param **.dataLink[*].dimPoolMin 10
param **.tDistribution "\"exponential\""
param **.aircraft[*].m 1s
param **.aircraft[*].linkSelector.DLMaxCapacity 0
param **.aircraft[*].linkSelector.trasmitting false
param **.operationMode 0

vector 0 Aerocom.aircraft[0].dataLink[0] queueLength:vector ETV
attr "" ""
attr source computeQueueLength
vector 1 Aerocom.aircraft[0].dataLink[0] waitingTime:vector ETV
attr "" ""
attr source computeWaitingTime
vector 2 Aerocom.aircraft[0].dataLink[0] responseTime:vector ETV
attr "" ""
attr source computeResponseTime
0	1243 211193 148561 198956 10000.335380543637 13385.212385552649 6834 0 23 13062 74516
1	212436 260527 148561 198957 10000.335380543637 13385.212385552649 6834 -1e-012 7.239058628868 6364.2457053858 14949.510456063
2	472963 264666 148561 198957 10000.335380543637 13385.212385552649 6834 -1e-012 10.923233840556 12129.245705386 37971.513674437

