file 8818551 1613383341                                         
version 2
run Exponential-capacity-1-20210215-11:02:20-888
attr configname Exponential-capacity
attr datetime 20210215-11:02:20
attr experiment Exponential-capacity
attr inifile aerocom.ini
attr iterationvars "$0=10, $1=2"
attr iterationvarsf 10,2-
attr measurement "$0=10, $1=2"
attr network Aerocom
attr processid 888
attr repetition 0
attr replication #0
attr resultdir results
attr runnumber 1
attr seedset 0
param **.t 1s
param **.k 10ms
param **.X 0.4s
param **.m 2s
param **.tDistribution "\"exponential\""
param **.operationMode 0
param **.s "70 byte"
param **.dimPoolMax 10000
param **.dimPoolMin 8000
param **.nDL 1
param **.nA 1
param **.DLMaxCapacity 0
param **.trasmitting false

vector 0 Aerocom.aircraft[0].dataLink[0] actualCapacity:vector ETV
attr "" ""
attr source computeActualCapacity
vector 1 Aerocom.aircraft[0].packetGenerator arrivalTime:vector ETV
attr "" ""
attr source computeArrivalTime
vector 2 Aerocom.aircraft[0].linkSelector waitingTime:vector ETV
attr "" ""
attr source computeWaitingTime
vector 3 Aerocom.aircraft[0].linkSelector queueLength:vector ETV
attr "" ""
attr source computeQueueLength
vector 4 Aerocom.aircraft[0].linkSelector serviceTime:vector ETV
attr "" ""
attr source computeServiceTime
vector 5 Aerocom.aircraft[0].linkSelector responseTime:vector ETV
attr "" ""
attr source computeResponseTime
vector 6 Aerocom.aircraft[0].dataLink[0] tDistribution:vector ETV
attr "" ""
attr source computeTDistribution
0	1506 1015977 5724 189284 10 332.718703104975 32768 8005 9974 294416553 2652295576403
1	1017483 1342266 5725 190029 10.002616319138 334.179259405181 32768 4.011e-008 0.107223249796 324.17673621716 6.4215077879631
2	2359749 1212925 5733 190175 10.017843739311 334.591370460736 32768 0 0.596888581665 1991.418216962 616.5809749011
3	3572674 925833 5733 190175 10.017843739311 334.591370460736 32768 0 68 199564 6437594
4	4498507 1472753 5733 190175 10.017843739311 334.591370460736 32768 0.0070182474433527 0.0087445346658339 255.99224474493 2.0052478470869
5	5971260 1342391 5735 190178 10.025837344427 334.599634923546 32768 0.007018247443 0.604971722543 2247.4104617068 649.9410051371
0	7313651 213798 189289 227764 332.726941306693 400 6718 8016 9899 59771740 533465760720
1	7527449 272531 190031 227749 334.179352536302 399.974672125632 6522 2.306095e-006 0.10350655095 65.828555667873 1.3356747668135
2	7799980 241310 190178 227754 334.599634923546 399.976437131539 6522 0 0.460922689478 236.99256623884 66.508545995513
3	8041290 189141 190178 227754 334.599634923546 399.976437131539 6522 0 49 22070 582468
4	8230431 298440 190178 227754 334.599634923546 399.976437131539 6522 0.0070714213556925 0.0087325349301397 51.461786437748 0.40731604443629
5	8528871 272536 190181 227759 334.607884776227 399.984189928083 6522 0.007074994946 0.46901985547 288.45435267659 70.62993834816
6	8801407 17142 5849 226598 10.19835258653 398.023229865342 400 0.00012359181449871 5.0916301550693 389.91689248652 726.70497007989

