file 10211546 1613502075                                        
version 2
run Exponential-capacity-0-20210216-20:01:10-7008
attr configname Exponential-capacity
attr datetime 20210216-20:01:10
attr experiment Exponential-capacity
attr inifile aerocom.ini
attr iterationvars "$0=9, $1=0.3"
attr iterationvarsf 9,0.3-
attr measurement "$0=9, $1=0.3"
attr network Aerocom
attr processid 7008
attr repetition 0
attr replication #0
attr resultdir results
attr runnumber 0
attr seedset 0
param **.t 1s
param **.k 9ms
param **.X 50ms
param **.m 0.3s
param **.tDistribution "\"exponential\""
param **.operationMode 0
param **.s "70 byte"
param **.dimPoolMax 10000
param **.dimPoolMin 8000
param **.nDL 10
param **.nA 1
param **.DLMaxCapacity 0
param **.trasmitting false

vector 0 Aerocom.aircraft[0].packetGenerator arrivalTime:vector ETV
attr "" ""
attr source computeArrivalTime
vector 1 Aerocom.aircraft[0].linkSelector responseTime:vector ETV
attr "" ""
attr source computeResponseTime
vector 2 Aerocom.aircraft[0].linkSelector waitingTime:vector ETV
attr "" ""
attr source computeWaitingTime
vector 3 Aerocom.aircraft[0].linkSelector queueLength:vector ETV
attr "" ""
attr source computeQueueLength
vector 4 Aerocom.aircraft[0].dataLink[8] actualCapacity:vector ETV
attr "" ""
attr source computeActualCapacity
vector 5 Aerocom.aircraft[0].linkSelector serviceTime:vector ETV
attr "" ""
attr source computeServiceTime
vector 6 Aerocom.aircraft[0].dataLink[4] tDistribution:vector ETV
attr "" ""
attr source computeTDistribution
vector 7 Aerocom.aircraft[0].dataLink[0] actualCapacity:vector ETV
attr "" ""
attr source computeActualCapacity
vector 8 Aerocom.aircraft[0].dataLink[1] actualCapacity:vector ETV
attr "" ""
attr source computeActualCapacity
vector 9 Aerocom.aircraft[0].dataLink[2] actualCapacity:vector ETV
attr "" ""
attr source computeActualCapacity
vector 10 Aerocom.aircraft[0].dataLink[3] actualCapacity:vector ETV
attr "" ""
attr source computeActualCapacity
vector 11 Aerocom.aircraft[0].dataLink[4] actualCapacity:vector ETV
attr "" ""
attr source computeActualCapacity
vector 12 Aerocom.aircraft[0].dataLink[5] actualCapacity:vector ETV
attr "" ""
attr source computeActualCapacity
vector 13 Aerocom.aircraft[0].dataLink[6] actualCapacity:vector ETV
attr "" ""
attr source computeActualCapacity
vector 14 Aerocom.aircraft[0].dataLink[7] actualCapacity:vector ETV
attr "" ""
attr source computeActualCapacity
vector 15 Aerocom.aircraft[0].dataLink[9] actualCapacity:vector ETV
attr "" ""
attr source computeActualCapacity
vector 16 Aerocom.aircraft[0].dataLink[5] tDistribution:vector ETV
attr "" ""
attr source computeTDistribution
vector 17 Aerocom.aircraft[0].dataLink[0] tDistribution:vector ETV
attr "" ""
attr source computeTDistribution
vector 18 Aerocom.aircraft[0].dataLink[3] tDistribution:vector ETV
attr "" ""
attr source computeTDistribution
vector 19 Aerocom.aircraft[0].dataLink[8] tDistribution:vector ETV
attr "" ""
attr source computeTDistribution
vector 20 Aerocom.aircraft[0].dataLink[9] tDistribution:vector ETV
attr "" ""
attr source computeTDistribution
vector 21 Aerocom.aircraft[0].dataLink[6] tDistribution:vector ETV
attr "" ""
attr source computeTDistribution
vector 22 Aerocom.aircraft[0].dataLink[1] tDistribution:vector ETV
attr "" ""
attr source computeTDistribution
vector 23 Aerocom.aircraft[0].dataLink[7] tDistribution:vector ETV
attr "" ""
attr source computeTDistribution
vector 24 Aerocom.aircraft[0].dataLink[2] tDistribution:vector ETV
attr "" ""
attr source computeTDistribution
1	3580 1342199 6323 195630 10.005238441452 301.85345225307 32768 0.007005604484 0.169650081531 675.5376900578 29.614107419902
2	1345779 1210694 6323 195636 10.005238441452 301.858401719088 32768 0 0.162072683826 437.07975840752 21.516438484347
3	2556473 919465 6323 195636 10.005238441452 301.858401719088 32768 0 22 50003 338433
5	3475938 1471634 6323 195636 10.005238441452 301.858401719088 32768 0.0070049034324027 0.0087292679885272 238.41499351531 1.7361951218434
0	4947572 1342201 6321 195663 10.005231214764 301.895187569655 32768 3.6099e-008 0.096500924816 291.90165072413 5.2073499154391
0	6289773 446673 195671 257151 301.906881938898 399.984749715246 10690 2.075485e-006 0.093155895855 98.130373617798 1.8051015975744
1	6736446 446627 195641 257156 301.865706320987 399.993106394233 10689 0.007003501751 0.174836437918 220.96896396811 9.5444908004263
2	7183073 403581 195641 257156 301.865706320987 399.993106394233 10689 0 0.167553874456 143.42994973278 6.9097921842447
3	7586654 308555 195641 257156 301.865706320987 399.993106394233 10689 0 23 15720 98954
4	7895209 156386 6323 257117 10.005238441452 399.9 5487 8029 9995 52112728 495870216446
5	8051595 488644 195641 257156 301.865706320987 399.993106394233 10689 0.0070035017508754 0.0087205680827208 77.605581194554 0.56387005929838
6	8540239 19208 6444 256934 10.195530479815 399.531824074835 448 0.00046858062143858 4.5969873950114 392.60944509323 663.24396395861
7	8559447 209642 6449 257117 10.2 399.9 7175 8007 9977 68323656 651623210362
8	8769089 170042 6449 257117 10.2 399.9 5903 8029 9993 56127832 534549097954
9	8939131 138219 6449 257117 10.2 399.9 4916 8007 9982 46509261 441022575387
10	9077350 209022 6449 257117 10.2 399.9 6903 8032 9972 66017384 632401728716
11	9286372 155791 6449 257117 10.2 399.9 5260 8004 9993 49717033 471017350589
12	9442163 171022 6449 257117 10.2 399.9 5744 8003 9986 54425655 516653000049
13	9613185 140383 6449 257156 10.2 399.993106394233 4798 8020 9982 45371105 429951432153
14	9753568 162031 6449 257117 10.2 399.9 5470 8018 9987 51802919 491631278661
15	9915599 139926 6449 257117 10.2 399.9 4801 8018 9966 45315191 428654308015
16	10055525 16317 6468 256324 10.231100016177 398.599861515051 373 0.0024855087139075 5.8553159328738 390.84022742546 802.17398724391
17	10071842 18189 6566 256346 10.427056730335 398.62556036574 414 0.004703906220746 5.6853850636561 391.58372694686 721.55513685387
18	10090031 18201 6688 256863 10.589143172582 399.384120383163 415 0.0018844320688851 5.4400638357789 389.86273410498 710.29195188133
19	10108232 17695 6950 256727 11.019995833196 399.139608699086 402 0.00012359181449871 7.7512023953318 390.10962708975 845.86750006598
20	10125927 16992 7057 255883 11.167216926612 397.8417113111 387 0.0025859150943617 6.5044674794512 388.92988761984 770.5822460086
21	10142919 16459 7398 256014 11.770581468296 398.054009604438 375 0.0015419235172678 7.2888921875472 388.51856274567 827.55298216986
22	10159378 17184 7891 255412 12.476454100424 396.963073561627 391 0.0027066362142686 6.3651571449549 387.88865806586 753.37949136275
23	10176562 18373 8577 256317 13.481960993213 398.584954438043 418 0.00038836613746553 5.4284265520006 387.88024916169 747.54762606095
24	10194935 16609 9298 256347 14.694997286335 398.628191179598 379 0.00090222306082665 5.2881247296081 386.67360661758 751.94746314648

