version 2
run Exponential-capacity-2-20210215-11:02:22-2396
attr configname Exponential-capacity
attr datetime 20210215-11:02:22
attr experiment Exponential-capacity
attr inifile aerocom.ini
attr iterationvars "$0=10, $1=3"
attr iterationvarsf 10,3-
attr measurement "$0=10, $1=3"
attr network Aerocom
attr processid 2396
attr repetition 0
attr replication #0
attr resultdir results
attr runnumber 2
attr seedset 0
param **.t 1s
param **.k 10ms
param **.X 0.4s
param **.m 3s
param **.tDistribution "\"exponential\""
param **.operationMode 0
param **.s "70 byte"
param **.dimPoolMax 10000
param **.dimPoolMin 8000
param **.nDL 1
param **.nA 1
param **.DLMaxCapacity 0
param **.trasmitting false

scalar Aerocom.aircraft[0].linkSelector responseTime:mean 0.050708660832002
attr "" ""
attr source computeResponseTime
scalar Aerocom.aircraft[0].linkSelector meanMalus:sum 9815.9999999955
attr "" ""
attr source computeMeanMalus
scalar Aerocom.aircraft[0].linkSelector waitingTime:mean 0.042885933142536
attr "" ""
attr source computeWaitingTime
scalar Aerocom.aircraft[0].linkSelector serviceTime:mean 0.007822727689468
attr "" ""
attr source computeServiceTime
scalar Aerocom.aircraft[0].linkSelector queueLength:mean 4.3330363960295
attr "" ""
attr source computeQueueLength
scalar Aerocom.aircraft[0].dataLink[0] sentPackets:count 39290
attr source computeSentPackets
scalar Aerocom.aircraft[0].dataLink[0] actualCapacity:mean 8972.4326737697
attr "" ""
attr source computeActualCapacity
scalar Aerocom.controlTower receivedPackets:count 39290
attr source computeReceivedPackets

