file 73843115 1609669104                                        
version 2
run Exponential-selection-capacity-exponential-interarrival-time-0-20210103-11:18:11-13060
attr configname Exponential-selection-capacity-exponential-interarrival-time
attr datetime 20210103-11:18:11
attr experiment Exponential-selection-capacity-exponential-interarrival-time
attr inifile aerocom.ini
attr iterationvars $0=0.5
attr iterationvarsf 0.5-
attr measurement $0=0.5
attr network Aerocom
attr processid 13060
attr repetition 0
attr replication #0
attr resultdir results
attr runnumber 0
attr seedset 0
param **.t 0.5s
param **.k 0.5s
param **.dataLink[*].s "70 byte"
param **.dataLink[*].X 0.5
param **.nDL 1
param **.dataLink[*].dimPoolMax 100
param **.dataLink[*].dimPoolMin 10
param **.tDistribution "\"exponential\""
param **.aircraft[*].m 1s
param **.aircraft[*].linkSelector.DLMaxCapacity 0
param **.aircraft[*].linkSelector.trasmitting false
param **.operationMode 0

vector 0 Aerocom.aircraft[0].dataLink[0] actualCapacity:vector ETV
attr "" ""
attr source computeActualCapacity
vector 1 Aerocom.aircraft[0].dataLink[0] meanMalus:vector ETV
attr "" ""
attr source computeMeanMalus
vector 2 Aerocom.aircraft[0].dataLink[0] waitingTime:vector ETV
attr "" ""
attr source computeWaitingTime
vector 3 Aerocom.aircraft[0].dataLink[0] responseTime:vector ETV
attr "" ""
attr source computeResponseTime
vector 4 Aerocom.aircraft[0].packetGenerator arrivalTime:vector ETV
attr "" ""
attr source computeArrivalTime
vector 5 Aerocom.aircraft[0].dataLink[0] queueLength:vector ETV
attr "" ""
attr source computeQueueLength
vector 6 Aerocom.aircraft[0].dataLink[0] tDistribution:vector ETV
attr "" ""
attr source computeTDistribution
0	1699 895511 148850 310435 10000 20891.70337553642 32768 10 99 1794245 113369989
2	897210 1387852 148853 390814 10000.142963296749 26314.766365361821 32768 -3e-012 12.7590574895 62069.213797848 236714.25001804
3	2285062 1415710 148853 390814 10000.142963296749 26314.766365361821 32768 0.714285714286 17.199904962908 113729.57220146 543606.71805917
4	3700772 1434440 148859 390869 10000.335380543637 26319.464179132675 32768 2.005491e-006 5.175327547487 16320.31896762 16233.471373226
5	5135212 1015346 148861 390871 10000.335380543637 26319.464179132675 32768 0 31 124554 1077932
6	6150558 1502254 148862 391786 10000.33654955662 26381.930974226323 32768 6.0133526603536e-005 4.885625744685 16382.938942448 16212.798527172
0	7652812 895868 310445 471887 20892 31797 32768 10 98 1785661 112013719
2	8548680 1390793 390827 632574 26315.75197406878 42624.313660135932 32768 -6e-012 15.851436700654 62491.791920491 239334.61612494
3	9939473 1415761 390827 632574 26315.75197406878 42624.313660135932 32768 0.714285714286 18.020215494687 114656.63826062 550029.12538772
4	11355234 1434345 390879 632616 26320.654348163831 42626.805892038358 32768 1.2104546e-005 7.140592652943 16306.334192977 16262.333498181
5	12789579 1015245 390881 632618 26320.654348163831 42626.805892038358 32768 0 33 125086 1044770
0	13804824 895597 471892 633284 31797.373763904857 42669 32768 10 99 1778575 111451645
6	14700421 1501988 391805 636020 26383.275492005092 42850.98715956921 32768 1.2466140895249e-005 5.6231143763239 16468.306867282 16589.957314016
0	16202409 895488 633292 794656 42669.47485297264 53570 32768 10 99 1789135 112696159
2	17097897 1392016 632579 874200 42624.5 58846.329753839903 32768 -4e-012 14.91306157038 64112.656953024 258572.67069158
3	18489913 1415608 632579 874200 42624.5 58846.329753839903 32768 0.707070707071 18.972129720492 116072.31314941 572844.27278097
4	19905521 1434431 632620 874220 42626.988541140419 58847.523085822318 32768 2.0031986e-005 5.178351573534 16221.052991208 16013.616595593
5	21339952 1015706 632622 874222 42626.988541140419 58847.523085822318 32768 0 37 129654 1157516
6	22355658 1502597 636029 879803 42851.582359286796 59233.664401050703 32768 9.9985463006899e-006 5.3050974404493 16382.127122487 16442.253169651
1	23858255 1076347 148852 928796 10000.08438216588 62538.342610824403 32768 0.5 0.5 16384 8192
0	24934602 896322 794664 956397 53570.543402081177 64413.691915533318 32768 10 99 1788823 112518931
2	25830924 1408175 874208 1116877 58846.716884768965 75296.540439938763 32768 -1.2e-011 16.115195507239 64147.891817461 247872.81497499
3	27239099 1431157 874208 1116877 58846.716884768965 75296.540439938763 32768 0.714285714286 19.065413210717 115453.32294074 555762.70396368
4	28670256 1450418 874228 1116950 58848.041532348462 75301.923510937212 32768 6.384024e-006 5.054304310921 16454.201841323 16519.587989107
5	30120674 1031660 874230 1116952 58848.041532348462 75301.923510937212 32768 0 30 128737 1107583
0	31152334 918678 956402 1118058 64413.88370592032 75377.489864449917 32768 10 99 1794367 113020957
6	32071012 1518741 879804 1121794 59233.709481773444 75631.960325363251 32768 1.0144417637191e-005 5.3796045254337 16398.367294609 16444.406446468
0	33589753 926930 1118068 1279678 75377.970421902903 86329.627316856483 32768 10 99 1781364 111941988
2	34516683 1425099 1116882 1359755 75296.888186310205 91767.158422251405 32768 -8e-012 13.161606578198 61155.963496881 229172.56631154
3	35941782 1447908 1116882 1359755 75296.888186310205 91767.158422251405 32768 0.714285714286 15.963167842288 112732.87376748 530040.1971306
4	37389690 1467222 1116958 1359781 75302.243373671363 91769.385324265298 32768 1.656942e-006 5.057800898872 16467.962404489 16643.883916635
5	38856912 1047896 1116960 1359783 75302.243373671363 91769.385324265298 32768 0 31 121322 1008902
6	39904808 1535030 1121797 1363006 75632.076776382774 91999.006812368368 32768 7.3807368513526e-007 4.8908609436916 16367.29761025 16333.461861796
0	41439838 927411 1279680 1441266 86329.744744217346 97297 32768 10 99 1802474 113995916
2	42367249 1441698 1359757 1602606 91767.321478895271 108284.848397990317 32768 -8e-012 14.06114213786 63846.592413039 246476.48965432
3	43808947 1463937 1359757 1602606 91767.321478895271 108284.848397990317 32768 0.707070707071 17.593316963447 114863.43134602 551263.28823518
4	45272884 1483872 1359787 1602654 91770.205778160665 108287.039274660405 32768 1.4607426e-005 5.032937806411 16517.136784053 16571.503810716
5	46756756 1065080 1359789 1602656 91770.205778160665 108287.039274660405 32768 0 39 128012 1106074
0	47821836 951297 1441282 1602707 97298 108289.408935893405 32768 10 99 1811027 114776465
6	48773133 1551732 1363016 1604065 91999.374386632308 108382.519549741931 32768 2.1083841381586e-005 5.852274599145 16383.825495108 16321.151538686
1	50324865 1115632 928849 1707351 62543.910274238042 115371.166666666666 32768 0.5 0.5 16384 8192
0	51440497 960493 1602709 1764264 108289.571024189798 119206.342105263158 32768 10 99 1805885 114430563
2	52400990 1458533 1602614 1845077 108285.313906114293 124652.702117445688 32768 -8e-012 15.991806521411 61788.770414416 229306.2709468
3	53859523 1480672 1602614 1845077 108285.313906114293 124652.702117445688 32768 0.707070707071 18.718709825593 112965.42644582 530323.06105419
4	55340195 1500135 1602660 1845122 108287.34256221346 124656.625134461921 32768 1.4774603e-005 5.66525934355 16370.048405664 16297.0444912
5	56840330 1080970 1602662 1845124 108287.34256221346 124656.625134461921 32768 0 32 123646 1017212
6	57921300 1567737 1604077 1846064 108383.199881740104 124722.156695576691 32768 3.1400803357218e-006 5.5625266860612 16340.308887718 16288.356351675
0	59489037 960481 1764270 1926116 119206.776409245403 130149 32768 10 99 1800867 113906807
6	60449518 1567873 1846076 2085019 124723.508769457807 141015.100749319168 32768 9.6802605473928e-006 5.2879901362365 16292.366575877 16259.111638127
0	62017391 958827 1926121 2087713 130149.241749635497 141203 32768 10 99 1797384 113429632
2	62976218 1459466 1845093 2088640 124654.857762579975 141263.691828512706 32768 -2.4e-011 12.006216697683 62714.550589015 237188.93625565
3	64435684 1480884 1845093 2088640 124654.857762579975 141263.691828512706 32768 0.707070707071 17.102077246167 114189.24110113 543934.04340323
4	65916568 1499954 1845130 2088653 124657.390967877016 141264.539999955219 32768 9.947788e-006 5.289227811502 16607.73706078 16757.91785364
5	67416522 1080854 1845132 2088655 124657.390967877016 141264.539999955219 32768 0 27 123143 1009375
0	68497376 776466 2087718 2218253 141204 150000 26467 10 99 1439247 90134959
1	69273842 748206 1707367 2218216 115372.041714874591 149998.710561018456 21471 0.5 0.5 10735.5 5367.75
2	70022048 781953 2088647 2218241 141264.00384373669 149999.281087564603 17538 -2.4e-011 11.770047483149 34091.751631975 128727.07923435
3	70804001 792827 2088647 2218241 141264.00384373669 149999.281087564603 17538 0.714285714286 16.049048130612 61893.521502002 294644.3697474
4	71596828 802695 2088661 2218250 141265.128028657286 149999.848571743832 17535 3.4984261e-005 4.107563135677 8736.0637260074 8728.0827147721
5	72399523 578635 2088663 2218252 141265.128028657286 149999.848571743832 17535 0 29 69286 591842
6	72978158 864955 2085031 2218246 141015.875345334597 149999.77689386553 18079 5.7116153357767e-005 4.3167988770307 8984.5056076948 8808.5499409228

