file 9117566 1613479562                                         
version 2
run Exponential-capacity-26-20210216-13:46:00-25448
attr configname Exponential-capacity
attr datetime 20210216-13:46:00
attr experiment Exponential-capacity
attr inifile aerocom.ini
attr iterationvars "$0=2, $1=10, $2=0.5, $3=0.5"
attr iterationvarsf 2,10,0.5,0.5-
attr measurement "$0=2, $1=10, $2=0.5, $3=0.5"
attr network Aerocom
attr processid 25448
attr repetition 2
attr replication #2
attr resultdir results
attr runnumber 26
attr seedset 2
param **.t 2s
param **.k 10ms
param **.X 0.5s
param **.m 0.5s
param **.tDistribution "\"exponential\""
param **.operationMode 0
param **.s "70 byte"
param **.dimPoolMax 10000
param **.dimPoolMin 8000
param **.nDL 10
param **.nA 1
param **.DLMaxCapacity 0
param **.trasmitting false

vector 0 Aerocom.aircraft[0].dataLink[0] actualCapacity:vector ETV
attr "" ""
attr source computeActualCapacity
vector 1 Aerocom.aircraft[0].dataLink[1] actualCapacity:vector ETV
attr "" ""
attr source computeActualCapacity
vector 2 Aerocom.aircraft[0].dataLink[2] actualCapacity:vector ETV
attr "" ""
attr source computeActualCapacity
vector 3 Aerocom.aircraft[0].dataLink[3] actualCapacity:vector ETV
attr "" ""
attr source computeActualCapacity
vector 4 Aerocom.aircraft[0].dataLink[4] actualCapacity:vector ETV
attr "" ""
attr source computeActualCapacity
vector 5 Aerocom.aircraft[0].dataLink[5] actualCapacity:vector ETV
attr "" ""
attr source computeActualCapacity
vector 6 Aerocom.aircraft[0].dataLink[6] actualCapacity:vector ETV
attr "" ""
attr source computeActualCapacity
vector 7 Aerocom.aircraft[0].dataLink[7] actualCapacity:vector ETV
attr "" ""
attr source computeActualCapacity
vector 8 Aerocom.aircraft[0].dataLink[8] actualCapacity:vector ETV
attr "" ""
attr source computeActualCapacity
vector 9 Aerocom.aircraft[0].dataLink[9] actualCapacity:vector ETV
attr "" ""
attr source computeActualCapacity
vector 10 Aerocom.aircraft[0].packetGenerator arrivalTime:vector ETV
attr "" ""
attr source computeArrivalTime
vector 11 Aerocom.aircraft[0].linkSelector responseTime:vector ETV
attr "" ""
attr source computeResponseTime
vector 12 Aerocom.aircraft[0].linkSelector waitingTime:vector ETV
attr "" ""
attr source computeWaitingTime
vector 13 Aerocom.aircraft[0].linkSelector queueLength:vector ETV
attr "" ""
attr source computeQueueLength
vector 14 Aerocom.aircraft[0].linkSelector serviceTime:vector ETV
attr "" ""
attr source computeServiceTime
vector 15 Aerocom.aircraft[0].dataLink[0] tDistribution:vector ETV
attr "" ""
attr source computeTDistribution
vector 16 Aerocom.aircraft[0].dataLink[5] tDistribution:vector ETV
attr "" ""
attr source computeTDistribution
vector 17 Aerocom.aircraft[0].dataLink[2] tDistribution:vector ETV
attr "" ""
attr source computeTDistribution
vector 18 Aerocom.aircraft[0].dataLink[9] tDistribution:vector ETV
attr "" ""
attr source computeTDistribution
vector 19 Aerocom.aircraft[0].dataLink[8] tDistribution:vector ETV
attr "" ""
attr source computeTDistribution
vector 20 Aerocom.aircraft[0].dataLink[1] tDistribution:vector ETV
attr "" ""
attr source computeTDistribution
vector 21 Aerocom.aircraft[0].dataLink[6] tDistribution:vector ETV
attr "" ""
attr source computeTDistribution
vector 22 Aerocom.aircraft[0].dataLink[3] tDistribution:vector ETV
attr "" ""
attr source computeTDistribution
vector 23 Aerocom.aircraft[0].dataLink[7] tDistribution:vector ETV
attr "" ""
attr source computeTDistribution
vector 24 Aerocom.aircraft[0].dataLink[4] tDistribution:vector ETV
attr "" ""
attr source computeTDistribution
10	3622 1375533 5690 192199 10.0000051843 338.006319040219 32768 3.43436e-007 0.111387644188 328.00732916894 6.5217265145529
12	1379155 1201189 5692 192202 10.00651214061 338.007314524556 32768 0 0.097368848108 156.92481552778 2.9559930584441
13	2580344 952360 5692 192202 10.00651214061 338.007314524556 32768 0 13 15812 46802
14	3532704 1505408 5692 192202 10.00651214061 338.007314524556 32768 0.0070021006301891 0.0086967325133557 237.33901261421 1.7199272435808
11	5038112 1375691 5692 192208 10.00651214061 338.012523924122 32768 0.00700210063 0.104464641316 394.2673580375 6.9540436996649
0	6413803 123009 5688 228378 10 400 4219 8011 9996 40334762 386210128226
1	6536812 109859 5688 228378 10 400 3836 8058 9997 36586133 349567816125
2	6646671 115500 5688 228378 10 400 4003 8019 9972 38207130 365238734888
3	6762171 161006 5688 228378 10 400 5429 8035 9994 51996434 498709124946
4	6923177 101849 5688 228378 10 400 3541 8050 9948 33671240 320694202898
5	7025026 153142 5688 228378 10 400 5202 8009 9978 49863439 478661337313
6	7178168 208395 5688 228378 10 400 6982 8014 9985 67239325 648189956785
7	7386563 153654 5688 228378 10 400 5221 8049 9981 49762783 474913284243
8	7540217 133009 5688 228378 10 400 4631 8018 9996 44186589 422186514977
9	7673226 109024 5688 228378 10 400 3780 8064 9993 35806002 339700329940
10	7782250 268089 192203 228376 338.007334353241 399.998945131452 6266 1.40559e-006 0.112081417393 61.998930705349 1.2430033764839
11	8050339 268108 192212 228372 338.014843025309 399.996293728241 6266 0.007011920264 0.065064143343 72.768675680504 1.1806686784015
12	8318447 234882 192205 228377 338.011373167977 399.998945131452 6266 0 0.057868419659 27.231013024549 0.45346974166086
13	8553329 187166 192205 228377 338.011373167977 399.998945131452 6266 0 8 2751 7113
14	8740495 292969 192205 228377 338.011373167977 399.998945131452 6266 0.0070049034324027 0.0086462450592885 45.536295403485 0.33113563465037
15	9033464 7317 5708 228312 10.03811018219 399.878397220879 168 0.0036094664976787 17.797918339339 389.98354667749 1937.7865044186
16	9040781 8683 5715 227657 10.07210134922 398.753699240805 200 0.011384425402896 10.683453574358 394.16238826281 1446.9060972634
17	9049464 8894 5778 227990 10.156399251049 399.320729344979 204 0.0064162123800635 8.0914965480683 392.4426179407 1374.3217599403
18	9058358 8678 6091 226441 10.819748911723 396.842962390983 199 0.0071136829881651 9.1989595010915 389.72029710402 1442.2024279013
19	9067036 8823 6122 228155 10.883653582273 399.55147264292 203 0.0018564521835412 10.292266746282 390.76148241442 1466.2212869651
20	9075859 8774 6937 227515 12.301861684204 398.479601218204 202 0.023568902198615 11.397805116473 391.6546106686 1444.1664301061
21	9084633 7657 7416 227294 13.016051670226 398.145200931154 176 0.016686175152747 15.414290325557 387.40772536497 1777.326920931
22	9092290 9108 7650 228311 13.464600362358 399.878088104899 209 0.0043568394680401 11.699003843561 386.84841633071 1536.7232396436
23	9101398 7975 8373 226971 14.88013127667 397.630326923909 183 0.0014883428637058 11.688337911536 387.76154702311 1680.6119957314
24	9109373 8191 9839 228167 17.359049821192 399.590343441671 188 0.0023583069883165 11.802727022865 383.97632185082 1559.2537441288

