version 2
run Exponential-capacity-10-20210215-11:02:32-10724
attr configname Exponential-capacity
attr datetime 20210215-11:02:32
attr experiment Exponential-capacity
attr inifile aerocom.ini
attr iterationvars "$0=50, $1=2"
attr iterationvarsf 50,2-
attr measurement "$0=50, $1=2"
attr network Aerocom
attr processid 10724
attr repetition 0
attr replication #0
attr resultdir results
attr runnumber 10
attr seedset 0
param **.t 1s
param **.k 50ms
param **.X 0.4s
param **.m 2s
param **.tDistribution "\"exponential\""
param **.operationMode 0
param **.s "70 byte"
param **.dimPoolMax 10000
param **.dimPoolMin 8000
param **.nDL 1
param **.nA 1
param **.DLMaxCapacity 0
param **.trasmitting false

vector 0 Aerocom.aircraft[0].dataLink[0] actualCapacity:vector ETV
attr "" ""
attr source computeActualCapacity
vector 1 Aerocom.aircraft[0].packetGenerator arrivalTime:vector ETV
attr "" ""
attr source computeArrivalTime
vector 2 Aerocom.aircraft[0].dataLink[0] tDistribution:vector ETV
attr "" ""
attr source computeTDistribution
vector 3 Aerocom.aircraft[0].linkSelector waitingTime:vector ETV
attr "" ""
attr source computeWaitingTime
vector 4 Aerocom.aircraft[0].linkSelector queueLength:vector ETV
attr "" ""
attr source computeQueueLength
vector 5 Aerocom.aircraft[0].linkSelector serviceTime:vector ETV
attr "" ""
attr source computeServiceTime
vector 6 Aerocom.aircraft[0].linkSelector responseTime:vector ETV
attr "" ""
attr source computeResponseTime
0	1023	10	8763
0	1041	10.4	8799
0	1042	10.407955449483	8804
0	1047	10.415906380878	8808
0	1050	10.423853701496	8812
0	1053	10.431797414614	8817
0	1056	10.439736622962	8821
0	1059	10.44767223117	8825
0	1062	10.455604242501	8829
0	1065	10.463532660215	8834
0	1072	10.484421101191	8845
0	1077	10.527340749582	8868
0	1082	10.552557939911	8882
0	1087	10.59738748345	8906
0	1092	10.710574162243	8967
0	1097	10.753035202821	8990
0	1102	10.803968139322	9017
0	1107	10.816589138967	9024
0	1112	10.927664483891	9084
0	1117	11.080278566735	9167
0	1122	11.137258964912	9197
0	1127	11.166890166285	9213
0	1132	11.196709136001	9230
0	1137	11.290382129994	9280
0	1143	11.482532459156	9291
0	1148	11.542644387518	9257
0	1151	11.550206232608	9253
0	1158	11.56647172655	9244
0	1163	11.639312654478	9202
0	1168	11.723358764705	9155
0	1173	11.749894889536	9140
0	1178	11.775145826924	9126
0	1183	11.831409927766	9094
0	1188	11.937884897569	9034
0	1193	11.952255421373	9025
0	1198	11.995782212689	9001
0	1199	12	8998
0	1214	12.403559126365	9124
0	1215	12.411231200017	9189
0	1218	12.418849003913	9253
0	1221	12.42641411793	9317
0	1224	12.433927265939	9381
0	1231	12.457486880605	9579
0	1237	12.511378624812	9827
0	1242	12.546168597857	9750
0	1247	12.584261986422	9665
0	1252	12.740535404305	9316
0	1257	12.753638266389	9287
0	1262	12.805278116921	9172
0	1270	12.830393656834	9116
0	1278	12.857963456341	9086
0	1284	12.906186134616	9130
0	1290	12.952806278636	9173
0	1296	12.985011514052	9203
0	1299	12.991504614461	9209
0	1307	13.017736888901	9234
0	1312	13.035683249694	9250
0	1317	13.098635425557	9309
0	1323	13.15260143549	9358
0	1329	13.169584672119	9374
0	1334	13.186714653354	9390
0	1339	13.210896437683	9412
0	1346	13.259015190472	9457
0	1353	13.328164150799	9521
0	1358	13.356162204303	9547
0	1368	13.461534584551	9645
0	1373	13.468813283473	9651
0	1376	13.476066417863	9658
0	1383	13.49195184501	9673
0	1386	13.499188483075	9680
0	1395	13.538992406369	9617
0	1401	13.560843807058	9557
0	1408	13.605530260973	9434
0	1414	13.645657860261	9324
0	1420	13.688361847043	9207
0	1423	13.695964757872	9186
0	1431	13.74302248723	9056
0	1443	13.916649261194	8818
0	1450	13.969441741627	8806
0	1455	13.988798246234	8802
0	1459	14	8800
0	1462	14.01702877129	8796
0	1467	14.029532846039	8794
0	1475	14.142964545674	8770
0	1478	14.150752169209	8768
0	1486	14.173487871135	8763
0	1489	14.181476003053	8762
0	1496	14.207226979449	8756
0	1505	14.414117467475	8712
0	1510	14.525363200336	8689
0	1515	14.540441495997	8686
0	1520	14.622486374893	8668
0	1525	14.66099021787	8660
0	1530	14.721841192637	8647
0	1535	14.751544867553	8641
0	1538	14.759645781799	8639
0	1543	14.767748571474	8637
0	1551	14.888033698018	8674
0	1556	14.909750980815	8691
0	1561	14.972381357061	8739
0	1566	15.004054487947	8763
0	1571	15.342324013944	9023
0	1576	15.434310653198	9093
0	1581	15.442404157534	9099
0	1586	15.559913022022	9190
0	1591	15.661208462877	9267
0	1594	15.668762147996	9273
0	1599	15.67631094558	9279
0	1606	15.707484783639	9303
0	1611	15.755283104835	9339
0	1616	15.764410034929	9346
0	1619	15.771899870153	9352
0	1627	15.84651039319	9360
0	1632	15.940706837519	9342
0	1636	16	9331
0	1653	16.4	9256
0	1654	16.407562662057	9254
0	1657	16.415126958577	9253
0	1660	16.422692072594	9251
0	1663	16.430258822135	9250
0	1668	16.437826389703	9248
0	1671	16.445395593855	9247
0	1674	16.452965616565	9246
0	1677	16.46053645801	9244
0	1684	16.492956740117	9238
0	1689	16.516320368437	9234
0	1694	16.546535322029	9228
0	1699	16.573778178436	9223
0	1704	16.637794888627	9211
0	1707	16.64539449779	9209
0	1714	16.741029153046	9191
0	1719	16.763774745286	9187
0	1724	16.949272774881	9152
0	1727	16.95692137628	9151
0	1734	17.046940025056	9134
0	1739	17.060056490514	9131
0	1742	17.067722682607	9130
0	1749	17.133035356209	9118
0	1754	17.155347997235	9113
0	1759	17.29957858484	9086
0	1764	17.365043503041	9074
0	1769	17.434358070642	9061
0	1774	17.443772819403	9059
0	1779	17.464503446536	9055
0	1785	17.501310001535	9047
0	1790	17.534933027377	9019
0	1793	17.542694419993	9012
0	1800	17.558425476155	8999
0	1805	17.56958243656	8989
0	1810	17.579473911933	8981
0	1813	17.587268144201	8974
0	1818	17.595068456213	8967
0	1825	17.668705269119	8905
0	1830	17.699835136318	8878
0	1835	17.712510421575	8867
0	1840	17.816311974597	8779
0	1845	17.837494829665	8761
0	1850	17.981722044085	8638
0	1854	18	8623
0	1872	18.4	8469
0	1873	18.408265438659	8472
0	1876	18.416527950463	8476
0	1879	18.424786563016	8479
0	1882	18.433042253546	8482
0	1889	18.441295024119	8486
0	1892	18.449543904628	8489
0	1895	18.457789869995	8493
0	1898	18.466031951709	8496
0	1901	18.474271123084	8500
0	1908	18.48254965676	8503
0	1913	18.542598202087	8528
0	1918	18.556181605604	8534
0	1923	18.800138250004	8635
0	1928	18.9362056628	8692
0	1933	18.951754053048	8698
0	1938	18.999345538425	8718
0	1943	19.056175363188	8742
0	1948	19.094529345917	8758
0	1953	19.194387944291	8799
0	1958	19.238956873137	8818
0	1963	19.308440726326	8847
0	1968	19.373929994894	8874
0	1974	19.540826711587	9722
0	1980	19.559521036382	9731
0	1985	19.599920039052	9655
0	1990	19.625313295186	9607
0	1995	19.637250938828	9585
0	2000	19.649027167499	9563
0	2005	19.661607098155	9539
0	2010	19.671908700579	9520
0	2015	19.684251664019	9496
0	2020	19.828705443614	9225
0	2025	19.870854382385	9146
0	2030	19.938121754047	9019
0	2035	19.968205703373	8963
0	2039	20	8903
0	2063	20.4	8367
0	2064	20.40836620055	8362
0	2067	20.416737403611	8357
0	2070	20.42511361517	8353
0	2073	20.433493837844	8348
0	2076	20.441879079818	8343
0	2079	20.450269347108	8338
0	2082	20.458664645741	8334
0	2087	20.467063973795	8329
0	2090	20.475468344068	8324
0	2093	20.483877762617	8320
0	2096	20.492291224155	8315
0	2103	20.519285626649	8300
0	2108	20.70662035734	8194
0	2113	20.730341171857	8181
0	2118	20.778413150436	8154
0	2123	20.788311537203	8148
0	2128	20.827410323247	8127
0	2131	20.836023587674	8122
0	2138	20.925077747757	8072
0	2141	20.933749700185	8067
0	2149	20.996655217526	8099
0	2154	21.053532142803	8164
0	2159	21.086093679399	8201
0	2164	21.116322740316	8236
0	2169	21.172840517612	8301
0	2174	21.211296507667	8345
0	2179	21.257999524297	8398
0	2184	21.371491525086	8529
0	2189	21.434201688591	8601
0	2194	21.66618431491	8867
0	2199	21.69788081588	8903
0	2204	21.710105366982	8917
0	2209	21.740547012669	8952
0	2214	21.79494223435	9014
0	2220	21.913388142892	9164
0	2225	21.928668387983	9184
0	2228	21.936290339203	9194
0	2233	21.943904000286	9205
0	2238	21.951508563024	9215
0	2244	22	9279
0	2260	22.4	9475
0	2263	22.407387862797	9478
0	2266	22.414773387169	9481
0	2269	22.422156574596	9484
0	2272	22.429537426557	9487
0	2275	22.436915944529	9490
0	2278	22.444292129987	9492
0	2281	22.451666761255	9495
0	2288	22.493468368885	9511
0	2293	22.530136752543	9525
0	2298	22.579711967188	9544
0	2301	22.587046418152	9547
0	2308	22.682755796827	9584
0	2313	22.701443961518	9591
0	2318	22.717422694262	9597
0	2323	22.745131235714	9608
0	2328	22.825117207806	9638
0	2333	22.93340539185	9680
0	2338	22.943672780287	9684
0	2343	23.000625662821	9705
0	2348	23.153284896301	9764
0	2353	23.183737126936	9775
0	2358	23.241892791107	9798
0	2363	23.274917945094	9810
0	2368	23.287053869778	9815
0	2374	23.364787016668	9796
0	2379	23.512011030539	9701
0	2384	23.525043037008	9692
0	2389	23.590668436656	9650
0	2394	23.696805769353	9581
0	2399	23.711453342277	9572
0	2404	23.730274809853	9560
0	2409	23.742270985825	9552
0	2414	23.900125762896	9450
0	2419	23.936637146158	9427
0	2424	23.968546576438	9406
0	2427	23.975988634699	9401
0	2433	24	9386
0	2458	24.4	9128
0	2459	24.407668711656	9123
0	2462	24.415341626267	9118
0	2467	24.423018748443	9113
0	2470	24.430700082801	9108
0	2473	24.438385633965	9103
0	2476	24.446075406567	9098
0	2479	24.453769405248	9093
0	2482	24.461467634655	9088
0	2485	24.469170099444	9083
0	2488	24.476876804277	9078
0	2491	24.484587753825	9073
0	2494	24.492302952767	9068
0	2501	24.516679827975	9052
0	2506	24.585413825665	9008
0	2509	24.593184696002	9003
0	2516	24.647838480138	8968
0	2521	24.684264672275	8944
0	2526	24.700474627949	8934
0	2529	24.708309864125	8929
0	2536	24.717169801731	8923
0	2541	24.780260435405	8882
0	2546	24.841210402664	8843
0	2552	24.866424399327	8836
0	2557	24.897526245281	8845
0	2562	24.939195157313	8856
0	2567	25.03095832746	8880
0	2572	25.041081265645	8883
0	2577	25.052543481905	8886
0	2580	25.060421042112	8888
0	2587	25.069380985403	8891
0	2592	25.102858014946	8900
0	2595	25.110723183485	8902
0	2602	25.131497815635	8907
0	2608	25.195519033334	8918
0	2613	25.336550830755	8933
0	2616	25.344386944043	8933
0	2623	25.410574884154	8940
0	2628	25.479292034875	8948
0	2633	25.548340189658	8955
0	2636	25.556157051746	8956
0	2643	25.670223171609	8968
0	2648	25.682483076241	8969
0	2651	25.690287736738	8970
0	2658	25.756004328712	8977
0	2663	25.796173916845	8981
0	2668	25.86195522976	8988
0	2673	25.905865983696	8993
0	2676	25.913649815565	8994
0	2682	26	9003
0	2707	26.4	9045
0	2708	26.407739082366	9046
0	2711	26.415477309207	9047
0	2714	26.423214680711	9047
0	2719	26.430952052215	9048
0	2722	26.438688568572	9049
0	2725	26.446424229971	9050
0	2728	26.454159036601	9051
0	2731	26.46189298865	9051
0	2734	26.469626940699	9052
0	2737	26.477360038357	9053
0	2740	26.485092281812	9054
0	2743	26.492823671253	9055
0	2750	26.515801421826	9057
0	2755	26.59269285755	9065
0	2760	26.800491412328	9087
0	2765	26.817036906387	9089
0	2770	26.877821430055	9095
0	2775	26.921965457303	9100
0	2780	26.931987567057	9101
0	2783	26.939679029534	9102
0	2790	26.971204491597	9105
0	2795	27.004444879075	9109
0	2800	27.047873165648	9113
0	2806	27.237574354802	9065
0	2811	27.31502493876	9040
0	2816	27.419602767391	9006
0	2821	27.466233360154	8991
0	2826	27.48686985349	8984
0	2831	27.499190644601	8980
0	2836	27.66213669346	8928
0	2841	27.692500657891	8918
0	2846	27.705679513533	8913
0	2851	27.811223952252	8879
0	2857	27.960333986026	8783
0	2862	27.994224086129	8754
0	2863	28	8749
0	2877	28.402220430657	8406
0	2878	28.410547815858	8399
0	2881	28.418882141373	8392
0	2886	28.42722341878	8385
0	2889	28.435571659686	8378
0	2892	28.443926875728	8370
0	2899	28.527588286537	8299
0	2905	28.562060013429	8314
0	2910	28.579397678618	8367
0	2915	28.672469260767	8652
0	2920	28.766974345672	8940
0	2925	28.777779156502	8973
0	2932	28.825879752832	9120
0	2941	28.900091876965	9347
0	2944	28.90758091088	9370
0	2956	29.083741005744	9870
0	2961	29.105067796346	9853
0	2968	29.204205241576	9774
0	2973	29.2122219463	9768
0	2979	29.288025392791	9708
0	2986	29.488422875535	9550
0	2996	29.698515846847	9384
0	3001	29.731055713965	9358
0	3006	29.801089498813	9302
0	3011	29.835486672736	9275
0	3014	29.843033842547	9269
0	3021	29.8866988432	9235
0	3027	29.902398738103	9222
0	3032	29.925388303992	9204
0	3037	29.951811665407	9183
0	3040	29.959434446633	9177
0	3047	29.987123300773	9155
0	3051	30	9145
0	3058	30.105975352388	9061
0	3059	30.113700769009	9055
0	3062	30.121431304625	9049
0	3067	30.129166966024	9043
0	3075	30.163099460964	9016
0	3078	30.170863436119	9010
0	3085	30.182229041746	9001
0	3098	30.379610705124	8845
0	3101	30.387524780873	8839
0	3110	30.410813064364	8820
0	3115	30.509907581419	8742
0	3120	30.552014396561	8709
0	3125	30.73246144681	8566
0	3130	30.753511111712	8549
0	3135	30.915509260057	8421
0	3141	30.993273978075	8664
0	3146	31.111793357106	9370
0	3151	31.13829143607	9528
0	3157	31.212662923787	9593
0	3163	31.234920390757	9600
0	3168	31.255179534874	9599
0	3173	31.280679076566	9598
0	3176	31.287972262646	9597
0	3183	31.30287274641	9597
0	3188	31.329021129093	9595
0	3193	31.403652737303	9592
0	3198	31.41686626051	9591
0	3203	31.547194850626	9585
0	3206	31.554497928352	9585
0	3213	31.573976246752	9584
0	3216	31.581280086485	9583
0	3223	31.72946460433	9576
0	3228	31.79412199727	9573
0	3233	31.80143422959	9573
0	3236	31.80874646191	9572
0	3243	31.833520173553	9571
0	3248	31.907130381453	9567
0	3253	31.925292492398	9566
0	3258	31.933239151381	9566
0	3262	32	9563
0	3285	32.4	9543
0	3286	32.407335219533	9543
0	3289	32.414670439066	9543
0	3292	32.422005658599	9542
0	3295	32.429341646861	9542
0	3298	32.436677635123	9542
0	3303	32.444013623385	9541
0	3306	32.451350380538	9541
0	3309	32.458687137691	9541
0	3312	32.466023894844	9540
0	3315	32.473361421049	9540
0	3318	32.480698947254	9539
0	3325	32.527811675855	9537
0	3330	32.626314554135	9532
0	3335	32.650138483265	9531
0	3340	32.715060765045	9528
0	3343	32.722407532467	9528
0	3350	32.735895470678	9527
0	3355	32.75069056434	9526
0	3358	32.758038874229	9526
0	3365	32.802555418812	9524
0	3368	32.809905271815	9523
0	3375	32.837762480637	9522
0	3380	32.855710546556	9521
0	3385	32.889175690155	9520
0	3390	32.904374268116	9519
0	3395	32.935046222596	9517
0	3400	32.965499445362	9516
0	3405	33.002678604951	9514
0	3410	33.060165674338	9511
0	3415	33.08933686289	9510
0	3420	33.148811675457	9507
0	3425	33.244553788339	9502
0	3430	33.261223955258	9501
0	3435	33.289632479445	9500
0	3440	33.313528378821	9499
0	3445	33.401214111072	9495
0	3450	33.411206887968	9494
0	3455	33.446807291249	9492
0	3460	33.524494566351	9489
0	3463	33.53187152915	9488
0	3468	33.539249269454	9488
0	3475	33.585884168927	9486
0	3480	33.645584837457	9483
0	3485	33.657155886055	9482
0	3490	33.732566647636	9479
0	3495	33.826522569347	9474
0	3500	33.901643209033	9470
0	3505	33.958827740062	9468
0	3510	33.973843994076	9467
0	3515	33.983667088371	9466
0	3519	34	9466
0	3542	34.4	9446
0	3543	34.407410544146	9446
0	3546	34.414821088292	9445
0	3549	34.422232417037	9445
0	3552	34.429643745782	9445
0	3555	34.437055074527	9444
0	3558	34.444467188038	9444
0	3561	34.451879301549	9444
0	3564	34.45929141506	9443
0	3571	34.466704313503	9443
0	3574	34.474117211946	9442
0	3577	34.481530895488	9442
0	3580	34.48894457903	9442
0	3587	34.525025173045	9440
0	3592	34.605446065499	9436
0	3597	34.639193614182	9434
0	3600	34.646613584502	9434
0	3607	34.674894163304	9433
0	3612	34.711471430261	9431
0	3618	34.818626415282	9501
0	3623	34.836948979874	9514
0	3628	34.870460573703	9538
0	3633	34.913543948293	9569
0	3638	34.940314165848	9588
0	3643	35.100554607329	9703
0	3648	35.110119409624	9710
0	3653	35.161981664329	9747
0	3658	35.194227088887	9771
0	3661	35.20139114579	9776
0	3668	35.272569651321	9827
0	3673	35.300710911412	9847
0	3678	35.341355829471	9876
0	3683	35.377025043611	9902
0	3688	35.38573480163	9908
0	3694	35.424147468723	9935
0	3699	35.431911747998	9928
0	3704	35.489101516954	9874
0	3709	35.541515972202	9825
0	3714	35.557774515726	9810
0	3719	35.596516634701	9774
0	3722	35.603678492692	9767
0	3729	35.623117174894	9749
0	3734	35.648051791538	9725
0	3739	35.656002392378	9718
0	3745	35.812643866855	9080
0	3750	35.821353802684	8954
0	3755	35.831713061797	8804
0	3758	35.839663993192	8688
0	3766	35.955804399373	8480
0	3771	35.999051304844	8424
0	3772	36	8423
0	3791	36.407360896487	8665
0	3792	36.415439373117	8682
0	3797	36.423502031491	8699
0	3800	36.431548933434	8717
0	3803	36.439579219083	8734
0	3806	36.447593874453	8751
0	3809	36.455592960272	8768
0	3812	36.463576536914	8785
0	3819	36.481204836654	8823
0	3824	36.58603665033	9048
0	3829	36.611496774673	9103
0	3832	36.619186547275	9119
0	3839	36.733596232844	9365
0	3845	36.761379178502	9330
0	3851	36.819942363249	9165
0	3860	36.851991040512	9074
0	3870	36.912126729703	9362
0	3875	36.955525228804	9668
0	3881	36.975379276305	9751
0	3889	37.038361334836	9744
0	3894	37.109050501313	9736
0	3897	37.116240312324	9735
0	3905	37.16096106449	9730
0	3912	37.226687169394	9755
0	3918	37.240410345494	9761
0	3925	37.313238356073	9787
0	3931	37.321988108484	9785
0	3934	37.329141915331	9784
0	3943	37.402056636444	9770
0	3948	37.420485783425	9766
0	3957	37.580398532264	9735
0	3962	37.593653187334	9733
0	3967	37.624290459577	9727
0	3974	37.659291741383	9720
0	3979	37.703991811517	9712
0	3989	37.857645572656	9682
0	3994	37.955144418248	9663
0	4001	37.995945346446	9641
0	4002	38	9634
0	4008	38.02649822451	9591
0	4012	38.033796733529	9579
0	4021	38.18332294778	9334
0	4026	38.231923492333	9254
0	4032	38.274795247464	9184
0	4038	38.374192220206	9021
0	4046	38.460145685795	8880
0	4051	38.468722617164	8866
0	4056	38.588481606633	8670
0	4065	38.83265655615	8270
0	4073	38.917168303888	8211
0	4076	38.925693453078	8226
0	4081	38.934203056774	8241
0	4086	38.942697171566	8257
0	4093	38.984817802793	8332
0	4099	39.035020361487	8421
0	4104	39.06043133419	8467
0	4109	39.209520317056	8733
0	4112	39.217535890169	8747
0	4123	39.350788824479	8985
0	4129	39.378374005109	9034
0	4135	39.408028084975	9087
0	4140	39.422994504096	9114
0	4147	39.488036375469	9230
0	4152	39.582572833191	9399
0	4159	39.650358758884	9520
0	4162	39.65771170006	9533
0	4169	39.670387609336	9556
0	4178	39.83007570297	9029
0	4182	39.837828499514	8981
0	4189	39.858408230939	8854
0	4194	39.887746671273	8673
0	4200	39.909804411809	8537
0	4205	39.934664876126	8384
0	4208	39.943014112767	8332
0	4215	39.973436279037	8144
0	4220	39.983678892394	8081
0	4226	40	8107
0	4230	40.077010915903	8251
0	4236	40.102657265494	8298
0	4241	40.141080394364	8370
0	4250	40.273539807476	8475
0	4257	40.330553751322	8371
0	4260	40.338915954165	8355
0	4271	40.382775487981	8333
0	4278	40.528071468164	8311
0	4281	40.536494040658	8310
0	4288	40.63506971936	8295
0	4291	40.643508537925	8294
0	4298	40.670168472393	8290
0	4301	40.678612380716	8288
0	4308	40.692826398254	8286
0	4311	40.701274382806	8285
0	4318	40.710598518643	8284
0	4323	40.72413473818	8282
0	4328	40.771790865093	8274
0	4333	40.863267972886	8260
0	4336	40.871742549157	8259
0	4343	40.901895669929	8255
0	4346	40.910375379196	8253
0	4353	40.938664371002	8249
0	4358	40.966664789669	8245
0	4363	41.019131897965	8237
0	4366	41.027630137615	8236
0	4373	41.061984949978	8230
0	4378	41.076498620734	8228
0	4381	41.08500615598	8227
0	4386	41.093514725325	8226
0	4393	41.134039454313	8219
0	4398	41.148636757899	8217
0	4403	41.222357869138	8206
0	4406	41.230888212789	8205
0	4413	41.252980059375	8201
0	4416	41.261515603821	8200
0	4423	41.287353315137	8196
0	4426	41.295894066723	8195
0	4433	41.493367239339	8165
0	4438	41.541546874153	8158
0	4443	41.555575670462	8156
0	4448	41.738553776385	8128
0	4453	41.761999842749	8124
0	4459	41.994013842546	9348
0	4462	42	9388
0	4483	42.401502075323	9589
0	4484	42.408802106609	9585
0	4487	42.416105184335	9582
0	4490	42.42341054856	9578
0	4493	42.430718963678	9575
0	4496	42.438029668639	9571
0	4499	42.445343428957	9568
0	4502	42.452659482469	9564
0	4505	42.459978595811	9561
0	4512	42.584495117567	9501
0	4517	42.607446513941	9490
0	4520	42.614822699399	9486
0	4527	42.629576318941	9479
0	4532	42.706023262477	9442
0	4537	42.786956315798	9403
0	4542	42.803968176779	9395
0	4545	42.808802106609	9393
0	4554	42.821436019283	9387
0	4566	42.878969148929	9359
0	4572	42.933279314487	9297
0	4577	42.957239949211	9233
0	4582	42.971362284809	9196
0	4589	43.021608950262	9062
0	4596	43.076418578312	8916
0	4603	43.207200624933	8569
0	4611	43.243619503585	8472
0	4617	43.339806432118	8216
0	4625	43.3673965382	8303
0	4631	43.401822232602	8488
0	4637	43.442271217359	8706
0	4642	43.470187556822	8857
0	4648	43.487104862757	8948
0	4654	43.573560844641	9162
0	4660	43.634867455253	9129
0	4666	43.701881253352	9092
0	4671	43.728676193119	9078
0	4677	43.758309064016	9062
0	4683	43.780666059146	9049
0	4692	43.954198313173	8955
0	4697	44	8930
0	4700	44.042535326871	8907
0	4705	44.064964622707	8894
0	4715	44.194455929982	8877
0	4720	44.219792090677	8905
0	4723	44.227652843063	8913
0	4730	44.289248041289	8981
0	4735	44.302487154956	8995
0	4740	44.332295749526	9028
0	4745	44.353721129735	9051
0	4752	44.492178353877	9203
0	4757	44.576539268315	9295
0	4762	44.59140794471	9311
0	4768	44.803058734527	9807
0	4773	44.827102645742	9868
0	4779	45.000745431037	9646
0	4784	45.060469928212	9543
0	4789	45.178136666616	9340
0	4794	45.29182202495	9143
0	4799	45.309410394221	9113
0	4802	45.317091728579	9100
0	4810	45.557348331778	8841
0	4815	45.571171967605	8845
0	4820	45.585517422374	8848
0	4825	45.598473035168	8851
0	4828	45.606381746048	8853
0	4835	45.637689407327	8861
0	4840	45.788437820936	8896
0	4845	45.899498530096	8923
0	4850	45.912789357547	8926
0	4855	45.934956077347	8931
0	4860	45.993477863848	8945
0	4861	46	8947
0	4883	46.401303464742	9042
0	4884	46.409045114819	9044
0	4887	46.416785052899	9046
0	4892	46.42452327974	9047
0	4895	46.432260651244	9049
0	4898	46.439996312643	9051
0	4903	46.447730264692	9053
0	4906	46.455462508147	9055
0	4909	46.463193043763	9057
0	4914	46.470921872293	9058
0	4917	46.478649847563	9060
0	4920	46.486376116879	9062
0	4925	46.494100680993	9064
0	4933	46.55574995974	9031
0	4938	46.612739730073	8995
0	4943	46.626317519657	8986
0	4948	46.705685381142	8936
0	4953	46.715113617355	8930
0	4958	46.750165892821	8908
0	4963	46.779993388665	8889
0	4968	46.797559452742	8878
0	4974	46.815713394751	8866
0	4991	46.924274688819	8798
0	4997	47.01565100221	8740
0	5004	47.037334244979	8726
0	5009	47.0509077433	8718
0	5015	47.11795282953	8675
0	5021	47.152849706972	8653
0	5028	47.193374364331	8628
0	5036	47.336245631722	8537
0	5041	47.347497756415	8530
0	5046	47.397753538844	8499
0	5052	47.437514648909	8473
0	5060	47.53849387407	8410
0	5067	47.575155141004	8413
0	5073	47.716000727502	8624
0	5078	47.737446319291	8656
0	5086	47.806914244638	8760
0	5089	47.814905112218	8772
0	5097	47.868288516659	8852
0	5102	47.8763456456	8864
0	5108	48	9050
0	5113	48.124117610619	9235
0	5114	48.13169746985	9247
0	5127	48.314718974768	9335
0	5132	48.37625491732	9304
0	5138	48.406312649639	9289
0	5143	48.468046643442	9257
0	5146	48.475608488532	9253
0	5153	48.519027049376	9231
0	5158	48.536348715751	9222
0	5163	48.592071627337	9194
0	5168	48.600336277953	9190
0	5173	48.630002806366	9174
0	5178	48.657022941246	9161
0	5183	48.716572013916	9130
0	5186	48.724239045679	9126
0	5193	48.747376255169	9115
0	5198	48.793708185184	9091
0	5201	48.801408108185	9087
0	5208	48.823106752438	9076
0	5213	48.984372556624	8994
0	5218	49.097246396162	8936
0	5221	49.105079878705	8932
0	5228	49.272787156244	8846
0	5231	49.280700337343	8842
0	5238	49.313342075622	8826
0	5243	49.507887580142	8726
0	5248	49.523954595285	8718
0	5253	49.531991097313	8714
0	5258	49.576843748018	8691
0	5263	49.591811398165	8684
0	5268	49.705346903535	8626
0	5273	49.717484175403	8620
0	5278	49.743589740624	8606
0	5283	49.786954341566	8584
0	5289	49.827111180162	8581
0	5293	50	8593
0	5310	50.4	8623
0	5313	50.408117824423	8624
0	5316	50.41623470754	8624
0	5319	50.424351590657	8625
0	5322	50.432467532686	8625
0	5327	50.440583474715	8626
0	5330	50.448698475874	8627
0	5333	50.456812536382	8627
0	5336	50.46492659689	8628
0	5339	50.473039716964	8628
0	5346	50.498353299945	8630
0	5352	50.516934087686	8626
0	5357	50.533204923544	8620
0	5362	50.556548140722	8613
0	5367	50.669172784226	8577
0	5372	50.706391697296	8565
0	5375	50.71456449356	8563
0	5382	50.777169591965	8543
0	5387	50.826296009101	8527
0	5392	50.846582326294	8520
0	5397	50.866572089918	8514
0	5402	50.995527746457	8473
0	5407	51.166273991579	8418
0	5412	51.265414620593	8387
0	5417	51.274645414238	8384
0	5420	51.282994650879	8381
0	5427	51.393017497487	8346
0	5432	51.407645027547	8341
0	5437	51.42766410412	8335
0	5442	51.45720586514	8326
0	5447	51.567222331162	8291
0	5450	51.575665221043	8288
0	5458	51.608666416753	8326
0	5463	51.630088468193	8374
0	5468	51.665820177562	8454
0	5473	51.733192618747	8604
0	5478	51.757648039278	8658
0	5483	51.814700205991	8785
0	5488	51.852460796879	8869
0	5493	51.901154726453	8978
0	5497	52	9198
0	5513	52.4	9438
0	5514	52.407416825599	9439
0	5517	52.414832865434	9441
0	5522	52.42224733424	9442
0	5525	52.429661017782	9444
0	5528	52.437073131293	9445
0	5531	52.444484460038	9447
0	5534	52.45189421975	9448
0	5539	52.459303195195	9450
0	5546	52.561245468603	9471
0	5551	52.577165119406	9474
0	5556	52.616392954252	9482
0	5561	52.62441715962	9483
0	5566	52.641030190799	9487
0	5571	52.738032601293	9507
0	5574	52.74539559698	9508
0	5581	52.789968366968	9517
0	5586	52.851920192337	9530
0	5591	52.869728481415	9533
0	5594	52.877071395503	9535
0	5601	52.900953903166	9540
0	5606	52.924268754488	9544
0	5609	52.931603205452	9546
0	5616	52.963318727265	9552
0	5621	53.004148361707	9561
0	5627	53.131772186384	9572
0	5632	53.154176584803	9574
0	5635	53.161488053364	9574
0	5642	53.193793404487	9576
0	5647	53.219832347731	9578
0	5652	53.228172135637	9579
0	5655	53.235479787793	9579
0	5662	53.257116241512	9580
0	5667	53.278090207685	9582
0	5672	53.396404720877	9590
0	5677	53.445078348059	9593
0	5680	53.452375335446	9593
0	5687	53.461866268057	9594
0	5692	53.635335959996	9605
0	5697	53.647106253321	9606
0	5702	53.705809760161	9610
0	5705	53.713093839245	9610
0	5710	53.720377918329	9611
0	5717	53.760229237552	9613
0	5722	53.777337972133	9614
0	5727	53.836754430147	9618
0	5732	53.875480269544	9621
0	5737	53.931210819694	9624
0	5742	53.99560533165	9629
0	5743	54	9629
0	5761	54.402875037746	9655
0	5762	54.410125167213	9656
0	5765	54.417374545838	9656
0	5768	54.424623924463	9657
0	5771	54.431872552401	9657
0	5774	54.439121180339	9658
0	5777	54.446369057746	9658
0	5784	54.48911892433	9661
0	5789	54.533545359946	9664
0	5795	54.623279015646	9665
0	5800	54.787811457159	9636
0	5813	54.910943670629	9614
0	5816	54.9182247191	9612
0	5824	54.966817878339	9604
0	5829	55.02643366705	9593
0	5835	55.055484099823	9588
0	5840	55.139498219827	9573
0	5846	55.197271956264	9562
0	5851	55.23291978022	9556
0	5856	55.285211044859	9546
0	5861	55.305531688196	9543
0	5864	55.312866907729	9541
0	5874	55.385241106289	9528
0	5881	55.511235540981	9506
0	5884	55.518599311231	9504
0	5892	55.555444851186	9498
0	5897	55.584617859801	9493
0	5908	55.820937619644	9450
0	5913	55.857631117995	9443
0	5918	55.881783769208	9439
0	5925	55.940985156025	9428
0	5931	56	9418
0	5946	56.228345027051	9377
0	5947	56.235810101169	9375
0	5950	56.243276767836	9374
0	5953	56.250744231032	9373
0	5956	56.258212490927	9371
0	5959	56.265044016438	9370
0	5960	56.265682344731	9370
0	5970	56.273367516638	9369
0	5977	56.382503211102	9349
0	5983	56.49150423346	9330
0	5988	56.597561956302	9310
0	5993	56.64578694439	9302
0	5998	56.665684364122	9298
0	6001	56.673212864875	9297
0	6008	56.698758191716	9292
0	6013	56.895831125947	9257
0	6018	56.93516528172	9250
0	6023	57.037867905913	9231
0	6028	57.086470354337	9223
0	6033	57.121400532684	9216
0	6038	57.145250420231	9212
0	6043	57.273026306064	9189
0	6048	57.312084745563	9182
0	6053	57.351061497005	9175
0	6056	57.358690924798	9174
0	6063	57.485902060742	9151
0	6068	57.542982836918	9140
0	6073	57.631550502884	9125
0	6078	57.648472559525	9121
0	6083	57.821023065993	9090
0	6086	57.82872383607	9089
0	6093	57.949370300767	9067
0	6096	57.957090605168	9066
0	6103	57.964811761135	9065
0	6106	57.972533768857	9063
0	6111	57.980257480652	9062
0	6118	57.99163255141	9060
0	6122	58	9058
0	6137	58.4	8986
0	6138	58.407789895393	8985
0	6143	58.415580657775	8984
0	6146	58.423372287339	8982
0	6149	58.431165651846	8981
0	6152	58.438959884114	8979
0	6155	58.446755852485	8978
0	6158	58.454552689197	8977
0	6165	58.5208655181	8965
0	6170	58.566422808504	8956
0	6175	58.595987947782	8951
0	6180	58.609581239711	8949
0	6185	58.728812006873	8927
0	6190	58.772292774915	8919
0	6195	58.781024164739	8918
0	6200	58.78890776738	8916
0	6205	58.843012861604	8907
0	6210	58.863458738066	8903
0	6215	58.892473217465	8898
0	6220	58.941585126685	8889
0	6223	58.949460028249	8888
0	6230	58.967980099771	8884
0	6235	59.027592711875	8874
0	6240	59.148545281583	8852
0	6245	59.162756268759	8849
0	6250	59.268145286679	8830
0	6253	59.276072806498	8829
0	6260	59.298638171256	8825
0	6264	59.306570182587	8819
0	6271	59.338179314757	8790
0	6274	59.346142909751	8783
0	6281	59.373516727263	8758
0	6286	59.492670140923	8650
0	6291	59.502859410033	8640
0	6296	59.57019077446	8579
0	6301	59.598716073864	8553
0	6306	59.712885775585	8449
0	6311	59.723270939896	8440
0	6316	59.779096868574	8389
0	6321	59.841896648513	8332
0	6326	59.879535131115	8298
0	6331	59.916547740686	8264
0	6336	59.934700098406	8248
0	6341	59.954024807508	8230
0	6345	60	8188
0	6358	60.4	8916
0	6359	60.407851054284	8979
0	6362	60.415647022655	9042
0	6367	60.423388672732	9105
0	6370	60.431076756203	9167
0	6373	60.438712842164	9229
0	6380	60.446297629248	9290
0	6383	60.453832613102	9351
0	6392	60.634557385135	9248
0	6397	60.810256326283	9355
0	6402	60.819854221381	9360
0	6407	60.874366500704	9393
0	6412	60.8942404547	9405
0	6417	60.911586898858	9416
0	6422	60.968613122606	9450
0	6427	60.979793075523	9457
0	6430	60.987195000023	9462
0	6437	61.113041417572	9538
0	6442	61.159770438389	9566
0	6447	61.178269397377	9577
0	6452	61.210739933717	9597
0	6457	61.236550106464	9612
0	6462	61.253253860617	9622
0	6467	61.303381981033	9653
0	6472	61.316999542351	9661
0	6477	61.427660903928	9728
0	6482	61.463791015805	9749
0	6487	61.492126113797	9767
0	6492	61.515063678929	9780
0	6497	61.646770248726	9860
0	6502	61.677258357369	9878
0	6507	61.722092649198	9906
0	6512	61.742677678092	9918
0	6517	61.770940442158	9935
0	6523	61.947098009219	9940
0	6528	61.992018127541	9924
0	6533	61.999179291115	9922
0	6534	62	9921
0	6560	62.406234320343	9782
0	6561	62.413390321161	9780
0	6564	62.420547785374	9777
0	6567	62.427707445802	9775
0	6570	62.434868571122	9772
0	6573	62.442031894904	9770
0	6576	62.449196685078	9767
0	6579	62.456363675966	9765
0	6582	62.463532134747	9762
0	6585	62.470702796497	9760
0	6588	62.477874927645	9758
0	6595	62.752934453863	9663
0	6611	62.961706634074	9592
0	6616	62.983391607594	9584
0	6621	63.013114908429	9574
0	6626	63.077015014887	9552
0	6632	63.215752745966	9504
0	6637	63.266500693884	9487
0	6642	63.322244036588	9468
0	6649	63.406090773238	9439
0	6655	63.421600579401	9434
0	6661	63.608558003303	9370
0	6667	63.650071035641	9355
0	6675	63.760341075831	9321
0	6682	63.917590953466	9329
0	6687	63.989906332074	9333
0	6690	63.997406599941	9333
0	6693	64	9333
0	6699	64.055836814854	9336
0	6705	64.071725281923	9337
0	6710	64.092161164635	9338
0	6713	64.099657416509	9339
0	6718	64.107152865701	9339
0	6726	64.176898286837	9343
0	6731	64.184390527017	9343
0	6734	64.191882767197	9344
0	6739	64.199374205553	9344
0	6744	64.206865643909	9344
0	6751	64.230764019141	9346
0	6756	64.245861769315	9346
0	6761	64.282768606442	9348
0	6767	64.385197764272	9354
0	6774	64.459356434674	9358
0	6780	64.469243023071	9358
0	6794	64.628637231685	9366
0	6801	64.657031616341	9368
0	6804	64.664503862285	9368
0	6811	64.682932135304	9369
0	6814	64.690256839219	9370
0	6822	64.732372741829	9372
0	6827	64.776915431924	9374
0	6835	64.914726085798	9381
0	6840	64.983128786867	9385
0	6850	65.124454985395	9392
0	6857	65.218698216105	9397
0	6860	65.226147402015	9398
0	6868	65.358707657437	9405
0	6874	65.404050812802	9407
0	6880	65.609047527435	9418
0	6887	65.720236668223	9424
0	6892	65.745761426358	9425
0	6899	65.821679883778	9429
0	6904	65.845608712331	9430
0	6909	65.857492005886	9431
0	6914	65.865489216554	9431
0	6919	65.937896522751	9435
0	6924	65.995645249429	9438
0	6925	66	9438
0	6931	66.016480103353	9439
0	6936	66.059590026633	9441
0	6943	66.174102887628	9447
0	6952	66.273150652434	9453
0	6957	66.28055570903	9453
0	6962	66.287960765626	9453
0	6965	66.295365822222	9454
0	6972	66.317879024803	9455
0	6978	66.366150814788	9457
0	6984	66.409654810306	9460
0	6990	66.433753770784	9461
0	6995	66.447578154989	9462
0	6998	66.454976168094	9462
0	7003	66.462374181199	9463
0	7012	66.671676827198	9473
0	7022	66.769832991676	9479
0	7033	66.883281446007	9485
0	7036	66.890661519808	9485
0	7043	66.902109202488	9486
0	7048	66.933911726044	9487
0	7053	66.965957497204	9489
0	7056	66.973334460003	9489
0	7063	67.004785682936	9491
0	7068	67.035323391679	9493
0	7073	67.070826908962	9494
0	7081	67.266333947445	9275
0	7093	67.437290772579	9059
0	7099	67.464847669995	9024
0	7102	67.472604762194	9014
0	7110	67.567402620151	8894
0	7113	67.575273094628	8884
0	7118	67.583152428261	8874
0	7125	67.608718884093	8842
0	7130	67.624540253652	8822
0	7135	67.655188617086	8783
0	7141	67.68104696344	8751
0	7146	67.694458118104	8734
0	7151	67.719983746901	8702
0	7154	67.728027874688	8691
0	7161	67.778660652491	8627
0	7164	67.786774712999	8617
0	7172	67.806405721885	8595
0	7180	67.903565749701	8590
0	7185	67.966113182734	8587
0	7193	67.991626752622	8586
0	7197	68	8585
0	7201	68.042596512025	8583
0	7207	68.066611102715	8582
0	7213	68.092082528226	8581
0	7216	68.10024008562	8580
0	7224	68.121454042569	8579
0	7231	68.144934444175	8578
0	7237	68.192598740736	8575
0	7244	68.246776150151	8573
0	7247	68.25494131987	8572
0	7254	68.299496198336	8570
0	7261	68.385909166984	8565
0	7269	68.508574459059	8575
0	7274	68.561556706219	8647
0	7279	68.617262443042	8722
0	7284	68.682056333867	8810
0	7289	68.701640560861	8837
0	7294	68.740133657652	8889
0	7300	68.759139609219	8897
0	7303	68.767007429833	8899
0	7310	68.854575827979	8927
0	7315	68.880538514223	8935
0	7320	68.955300070129	8958
0	7325	68.981291167373	8966
0	7330	68.997796502076	8971
0	7335	69.017156375438	8977
0	7340	69.079731823286	8997
0	7343	69.087512194521	8999
0	7350	69.122480809133	9010
0	7355	69.189309229999	9031
0	7360	69.214822187517	9039
0	7363	69.22256640701	9041
0	7370	69.258479486716	9052
0	7375	69.305088823744	9067
0	7378	69.312809128145	9069
0	7385	69.370280907047	9087
0	7390	69.425063400559	9104
0	7395	69.475427034978	9120
0	7398	69.483102473574	9122
0	7405	69.636814112625	9170
0	7410	69.746854956343	9204
0	7413	69.754460345304	9207
0	7420	69.809610451277	9224
0	7425	69.910543639273	9255
0	7429	70	9283
0	7444	70.4	9408
0	7445	70.40744047619	9410
0	7448	70.414879370983	9412
0	7453	70.42231668505	9415
0	7456	70.429751629288	9417
0	7459	70.437184994479	9419
0	7462	70.444616781293	9422
0	7465	70.452046201798	9424
0	7472	70.501196029048	9439
0	7477	70.523910407901	9446
0	7482	70.765789780354	9522
0	7487	70.776360839103	9525
0	7492	70.798303547955	9532
0	7495	70.805647232386	9534
0	7502	70.893574708557	9561
0	7507	70.93008080957	9573
0	7513	71.003711452697	9564
0	7518	71.096215913691	9543
0	7523	71.159958486318	9529
0	7528	71.183316147641	9523
0	7533	71.233492367036	9512
0	7538	71.246099350858	9509
0	7543	71.264462759233	9505
0	7546	71.271827304209	9503
0	7553	71.307192314275	9495
0	7556	71.314564615486	9494
0	7563	71.327700751283	9491
0	7568	71.340213415303	9488
0	7575	71.347591155607	9486
0	7578	71.354970451411	9485
0	7581	71.362350525212	9483
0	7586	71.369732155498	9481
0	7593	71.377115342925	9480
0	7596	71.38449930917	9478
0	7603	71.409844136315	9472
0	7606	71.417234339018	9470
0	7613	71.425830669452	9468
0	7618	71.522823757432	9446
0	7623	71.545885046312	9441
0	7628	71.554729081618	9439
0	7631	71.562145121453	9438
0	7638	71.598576225306	9429
0	7643	71.719643057628	9402
0	7648	71.79388376133	9385
0	7653	71.902004008466	9360
0	7658	71.932481967508	9354
0	7662	72	9338
0	7689	72.4	9248
0	7690	72.407569204152	9246
0	7693	72.415140045597	9244
0	7696	72.422712525043	9242
0	7699	72.430286643199	9241
0	7702	72.437861580976	9239
0	7705	72.445438158528	9237
0	7708	72.453016376564	9236
0	7713	72.460595415109	9234
0	7716	72.468176095204	9232
0	7719	72.475758417561	9230
0	7724	72.483342382891	9229
0	7727	72.490927169975	9227
0	7730	72.498513601101	9225
0	7733	72.506101676982	9223
0	7740	72.613731292999	9199
0	7745	72.622472393001	9197
0	7748	72.630083570559	9195
0	7755	72.645496481726	9192
0	7760	72.758516504095	9166
0	7763	72.766153423144	9165
0	7770	72.788467596878	9159
0	7775	72.890904496557	9136
0	7780	72.996244102851	9112
0	7785	73.051313906766	9100
0	7790	73.10999979316	9087
0	7795	73.120703902893	9084
0	7800	73.339203890464	9035
0	7805	73.464311789591	9006
0	7810	73.535518340373	8990
0	7815	73.578855393906	8980
0	7820	73.601526064823	8975
0	7825	73.631957032526	8968
0	7830	73.666720821575	8960
0	7835	73.718131087489	8949
0	7840	73.741742524921	8943
0	7845	73.75639569981	8940
0	7850	73.779095272147	8935
0	7855	73.81914070629	8926
0	7860	73.834257113192	8922
0	7863	73.842102887682	8921
0	7870	73.875585722338	8913
0	7875	73.886775160945	8910
0	7880	73.944019483418	8897
0	7885	73.980102420803	8889
0	7890	73.996343261035	8886
0	7891	74	8885
0	7913	74.404220821242	8793
0	7916	74.412181699213	8791
0	7919	74.420144388327	8789
0	7922	74.428108889408	8788
0	7925	74.436074296782	8786
0	7928	74.44404151736	8784
0	7931	74.452010551968	8782
0	7934	74.459981401433	8780
0	7937	74.467954066581	8779
0	7940	74.475927639881	8777
0	7947	74.483903030105	8775
0	7950	74.491880238082	8773
0	7957	74.526313201767	8765
0	7962	74.536149236198	8763
0	7967	74.579406689144	8753
0	7972	74.626856006483	8743
0	7977	74.636178488193	8740
0	7980	74.644187641511	8739
0	7987	74.698397857045	8726
0	7992	74.805207553361	8702
0	8012	74.993391593038	8659
0	8020	75.056972093154	8645
0	8025	75.103872498934	8634
0	8032	75.273519034666	8596
0	8037	75.293422084915	8591
0	8042	75.328848888687	8583
0	8048	75.40999838954	8565
0	8053	75.427860979303	8561
0	8060	75.518366529876	8540
0	8065	75.558236453668	8531
0	8070	75.585067557817	8525
0	8077	75.718618806492	8495
0	8083	75.745477993346	8489
0	8088	75.782255831093	8481
0	8095	75.920183897239	8449
0	8101	75.935728500394	8446
0	8109	75.999768316547	8413
0	8110	76	8413
0	8118	76.126858947752	8340
0	8121	76.135252233124	8336
0	8124	76.143649545984	8331
0	8132	76.157387849385	8323
0	8137	76.165798278317	8318
0	8140	76.174213762808	8313
0	8145	76.182634308941	8309
0	8156	76.368712864398	8205
0	8161	76.387866267752	8202
0	8167	76.430674575622	8195
0	8172	76.528545495234	8179
0	8182	76.58014153038	8171
0	8189	76.610812433686	8166
0	8194	76.633476657227	8163
0	8199	76.662878847811	8158
0	8204	76.717966943677	8149
0	8209	76.738448301681	8146
0	8216	76.780861642173	8180
0	8223	76.88715817067	8275
0	8229	76.961670625004	8342
0	8238	77.106716077063	8471
0	8246	77.221896420894	8574
0	8253	77.462631320881	8790
0	8258	77.488532773737	8813
0	8263	77.512172450973	8834
0	8270	77.625026808055	8901
0	8276	77.7943138532	8925
0	8279	77.802156990455	8926
0	8287	77.87616061929	8937
0	8295	77.933995583775	9024
0	8300	77.99029822366	9113
0	8304	78	9128
0	8309	78.032891092967	9180
0	8310	78.040516365298	9192
0	8317	78.056184154066	9216
0	8322	78.068380637559	9236
0	8327	78.142528605778	9353
0	8332	78.151607566661	9367
0	8339	78.220243766953	9475
0	8346	78.348283462691	9677
0	8353	78.412187777385	9777
0	8358	78.429600209094	9805
0	8364	78.462575349097	9791
0	8369	78.492749288718	9762
0	8374	78.503534280782	9751
0	8379	78.537591044687	9718
0	8384	78.549097333095	9706
0	8389	78.624389890249	9633
0	8394	78.662726159355	9595
0	8399	78.755696487976	9504
0	8404	78.78449263662	9476
0	8409	78.791979897033	9468
0	8414	78.976403495807	9287
0	8419	79.004238629012	9260
0	8424	79.022131262628	9242
0	8429	79.114660544957	9152
0	8432	79.122309146356	9144
0	8439	79.203970253452	9064
0	8444	79.268862081909	9000
0	8447	79.276639859687	8993
0	8454	79.459563917119	8813
0	8459	79.468066771559	8805
0	8464	79.544250285576	8730
0	8469	79.562384842386	8712
0	8474	79.576572347513	8698
0	8479	79.5846201746	8691
0	8482	79.592674483655	8683
0	8489	79.609992108858	8666
0	8494	79.636113571025	8640
0	8497	79.644215422877	8632
0	8504	79.746891283094	8531
0	8509	79.788882958163	8490
0	8514	79.817164104214	8462
0	8519	79.831319195664	8449
0	8524	79.848028966412	8432
0	8529	79.893399612409	8388
0	8533	80	8283
0	8545	80.4	8403
0	8546	80.408330358205	8408
0	8549	80.416655762582	8414
0	8552	80.424975230136	8420
0	8555	80.433288769328	8425
0	8562	80.478808335686	8457
0	8565	80.48708550253	8462
0	8572	80.503804692095	8474
0	8577	80.637854446582	8566
0	8582	80.651719823029	8576
0	8588	80.707737777167	8699
0	8593	80.722148435562	8739
0	8598	80.734858668698	8775
0	8603	80.767882363412	8867
0	8610	80.775776803471	8889
0	8613	80.783651705035	8911
0	8616	80.791507164579	8933
0	8623	80.822592755983	9020
0	8628	80.953734032078	9386
0	8633	80.979972054282	9460
0	8638	81.039042324212	9625
0	8643	81.062735403162	9691
0	8649	81.123799412007	9789
0	8654	81.20666913804	9721
0	8659	81.251994201901	9684
0	8664	81.31372189539	9633
0	8669	81.352248761428	9601
0	8674	81.506568618372	9475
0	8679	81.53697019966	9450
0	8684	81.558658509135	9432
0	8689	81.604497202719	9394
0	8694	81.718412689859	9301
0	8699	81.771490355674	9257
0	8704	81.844967021467	9197
0	8709	81.86831063034	9178
0	8714	81.89042418979	9159
0	8719	81.945590454925	9114
0	8724	81.994189274579	9074
0	8725	82	9069
0	8757	82.401903623268	8739
0	8758	82.40991369307	8733
0	8761	82.417929266183	8726
0	8764	82.425951269392	8719
0	8767	82.433979713021	8713
0	8770	82.442013685246	8706
0	8775	82.450054117132	8700
0	8778	82.458100094143	8693
0	8781	82.466152550142	8686
0	8784	82.474211495571	8680
0	8789	82.4822760117	8673
0	8792	82.49034703672	8667
0	8795	82.498423649158	8660
0	8798	82.506506790036	8653
0	8801	82.514596469916	8647
0	8804	82.522691763081	8640
0	8811	82.538068784309	8627
0	8816	82.571508718518	8600
0	8821	82.579648253402	8593
0	8824	82.587794418886	8587
0	8829	82.595946276345	8580
0	8837	82.616253561065	8567
0	8842	82.624424449357	8563
0	8845	82.632599154484	8558
0	8850	82.640778635671	8554
0	8857	82.649891531615	8549
0	8862	82.671304433056	8538
0	8867	82.806007317305	8466
0	8871	82.814275684893	8461
0	8879	82.822755641187	8457
0	8890	82.868849604101	8432
0	8904	82.966565042686	8380
0	8914	83.029218947386	8347
0	8924	83.110419469576	8303
0	8929	83.118972060528	8299
0	8934	83.127638936589	8294
0	8939	83.148576904202	8283
0	8944	83.195110582033	8258
0	8953	83.260070548655	8238
0	8956	83.268567756715	8239
0	8964	83.320647146716	8240
0	8970	83.385724252139	8242
0	8976	83.482089477002	8245
0	8983	83.532820814715	8246
0	8990	83.573260321029	8247
0	8996	83.656809649789	8250
0	8999	83.665294498274	8250
0	9008	83.690751529064	8251
0	9011	83.699235349207	8251
0	9020	83.816877713166	8254
0	9025	83.825358449779	8254
0	9028	83.833839186392	8255
0	9035	83.85998166866	8255
0	9040	83.877310019116	8256
0	9047	83.94765654638	8258
0	9052	84	8259
0	9060	84.065294498274	8420
0	9063	84.073608037466	8440
0	9066	84.073779346759	8440
0	9069	84.081901876329	8460
0	9072	84.082073185622	8461
0	9084	84.166231810884	8668
0	9087	84.174307491549	8688
0	9095	84.227124387243	8818
0	9104	84.312130583706	9027
0	9110	84.351604413448	9038
0	9116	84.383645717023	9028
0	9122	84.428080918404	9013
0	9127	84.535054794553	8978
0	9132	84.648454314095	8941
0	9137	84.714533819404	8919
0	9142	84.757326280476	8905
0	9147	84.783684719961	8896
0	9152	84.81107815466	8887
0	9157	84.834459358523	8880
0	9162	84.895152386676	8860
0	9167	84.931398558491	8848
0	9172	84.953495217935	8840
0	9177	85.063433482418	8804
0	9182	85.243866233264	8745
0	9187	85.310699285202	8723
0	9192	85.413603844085	8689
0	9195	85.42166000705	8686
0	9200	85.429718952479	8684
0	9207	85.481615333857	8667
0	9212	85.539235884826	8648
0	9217	85.665215392774	8606
0	9220	85.673349252872	8604
0	9227	85.728920985841	8585
0	9232	85.837152344625	8550
0	9237	85.846892649451	8546
0	9242	85.940061948641	8516
0	9247	85.973097703312	8505
0	9251	86	8496
0	9268	86.4	8365
0	9269	86.408368200837	8362
0	9272	86.416739403898	8359
0	9277	86.425113611339	8356
0	9280	86.433490825317	8354
0	9285	86.441870044853	8351
0	9288	86.450252274526	8348
0	9291	86.4586375165	8345
0	9294	86.467025772941	8343
0	9297	86.475416040231	8340
0	9304	86.499995969416	8332
0	9309	86.520743798552	8325
0	9312	86.52915220696	8322
0	9319	86.57220168445	8308
0	9324	86.604605202434	8297
0	9329	86.769714400057	8243
0	9334	86.813759780921	8228
0	9337	86.822267316167	8226
0	9344	86.83638296476	8221
0	9349	86.851230317699	8216
0	9354	86.862450677876	8212
0	9359	86.965848793634	8178
0	9364	87.016634427287	8162
0	9369	87.050487512905	8151
0	9374	87.121998480318	8127
0	9379	87.23661096161	8089
0	9384	87.258855885059	8082
0	9389	87.269116025975	8079
0	9394	87.330820027312	8058
0	9399	87.368855857404	8046
0	9405	87.413116699637	8039
0	9410	87.432862964242	8041
0	9415	87.515792633587	8047
0	9420	87.534822178553	8049
0	9425	87.546234509713	8050
0	9430	87.575843249912	8052
0	9435	87.655422355566	8059
0	9440	87.683798984758	8061
0	9445	87.699289091486	8062
0	9450	87.721396600082	8064
0	9455	87.739106530786	8065
0	9460	87.862344537607	8075
0	9464	88	8086
0	9485	88.4	8119
0	9488	88.408621751447	8119
0	9491	88.417243502894	8120
0	9494	88.425864192549	8121
0	9497	88.434483820674	8121
0	9500	88.443103448799	8122
0	9503	88.451722015654	8123
0	9506	88.460339521502	8123
0	9509	88.46895702735	8124
0	9512	88.477573472451	8125
0	9515	88.486188857066	8126
0	9520	88.494803181457	8126
0	9527	88.544295345945	8130
0	9532	88.565415518415	8132
0	9537	88.620733171663	8136
0	9542	88.694407060496	8142
0	9547	88.860260429382	8156
0	9552	88.926830646904	8161
0	9558	89.032264020998	8223
0	9561	89.040776729255	8236
0	9568	89.338204613393	8687
0	9573	89.438680044228	8839
0	9578	89.461220534759	8873
0	9583	89.490329587416	8917
0	9586	89.498179761241	8929
0	9593	89.525960606513	8971
0	9598	89.545634726361	9001
0	9603	89.575378539156	9046
0	9608	89.609728320951	9098
0	9613	89.651676985097	9161
0	9618	89.661125910933	9176
0	9623	89.709659198325	9249
0	9626	89.717227584096	9261
0	9633	89.748580562538	9308
0	9638	89.778721107938	9354
0	9644	89.879511981155	9385
0	9648	90	9419
0	9663	90.4	9532
0	9666	90.407343684431	9534
0	9669	90.414685828337	9536
0	9672	90.422026432364	9538
0	9675	90.429365497157	9540
0	9678	90.436703023362	9542
0	9681	90.444039011624	9544
0	9684	90.451373462588	9546
0	9691	90.459859022595	9549
0	9696	90.481259280118	9555
0	9701	90.512379181335	9564
0	9706	90.524257458482	9567
0	9711	90.53962582212	9571
0	9714	90.546939582438	9573
0	9721	90.5855329488	9584
0	9726	90.689917461957	9614
0	9731	90.700756963244	9617
0	9736	90.826143080007	9652
0	9741	90.89373418431	9671
0	9744	90.900972318939	9673
0	9751	91.038306503582	9712
0	9756	91.058665362609	9718
0	9761	91.112498295052	9733
0	9766	91.122139444492	9736
0	9771	91.186687579771	9754
0	9774	91.193864122728	9756
0	9781	91.201832301347	9759
0	9786	91.316894969649	9791
0	9791	91.385855737186	9811
0	9794	91.392990585825	9813
0	9801	91.423177418176	9821
0	9808	91.620007724667	8456
0	9811	91.628285870362	8460
0	9816	91.63656010204	8464
0	9823	91.654075360559	8472
0	9828	91.753636142584	8519
0	9833	91.819000711834	8550
0	9838	91.860794590211	8570
0	9843	91.903957017424	8590
0	9848	91.926893784491	8601
0	9853	91.945185526448	8610
0	9858	91.966139066626	8620
0	9862	92	8636
0	9871	92.4	8824
0	9872	92.407932910245	8828
0	9875	92.415862226058	8832
0	9878	92.423787950696	8836
0	9885	92.467843813485	8856
0	9890	92.521391565804	8882
0	9895	92.5624149442	8901
0	9900	92.59883564297	8918
0	9905	92.640417790605	8938
0	9910	92.673593874852	8954
0	9913	92.681411609942	8957
0	9920	92.791933924301	9010
0	9923	92.799703069695	9013
0	9930	92.837873247491	9031
0	9935	92.8855259188	9054
0	9940	92.973209119667	9095
0	9945	93.038979244295	9126
0	9950	93.103632841189	9157
0	9955	93.117620681309	9163
0	9958	93.125260100713	9167
0	9965	93.285764800125	9243
0	9970	93.35992931004	9278
0	9975	93.427521652885	9310
0	9980	93.439744497515	9315
0	9985	93.453335673466	9322
0	9990	93.570065084569	9377
0	9995	93.621765375706	9401
0	9998	93.629211392087	9405
0	10005	93.644716329328	9412
0	10010	93.664969990787	9422
0	10015	93.729972291246	9452
0	10018	93.73737813128	9456
0	10025	93.779150257416	9476
0	10030	93.811424245967	9491
0	10035	93.882087736731	9524
0	10040	93.967833891936	9565
0	10045	93.982315676832	9572
0	10049	94	9580
0	10058	94.4	9769
0	10059	94.407165523595	9772
0	10064	94.414328847377	9776
0	10069	94.421489240176	9779
0	10072	94.428647436311	9782
0	10075	94.435803437129	9786
0	10082	94.504032952994	9818
0	10088	94.539997791608	9727
0	10093	94.54756126386	9705
0	10098	94.647124088427	9424
0	10103	94.660021349891	9388
0	10108	94.681383730706	9327
0	10111	94.688888823448	9306
0	10118	94.698846233367	9278
0	10123	94.760005720395	9105
0	10128	94.825670038162	8920
0	10133	94.850815658996	8848
0	10139	95.040567275682	8533
0	10144	95.059181364839	8534
0	10149	95.094214916947	8535
0	10154	95.15761851314	8538
0	10159	95.182532954001	8539
0	10164	95.203004919634	8540
0	10169	95.227878418505	8541
0	10174	95.292934050398	8543
0	10179	95.372051082912	8546
0	10184	95.456474974313	8549
0	10189	95.517694126112	8552
0	10194	95.529967600219	8552
0	10199	95.549171178804	8553
0	10204	95.731306663205	8560
0	10209	95.914934642467	8567
0	10214	95.923792863013	8567
0	10218	96	8570
0	10241	96.4	8585
0	10242	96.408153756552	8586
0	10245	96.416306563447	8586
0	10248	96.424459370342	8586
0	10251	96.432612177237	8587
0	10254	96.440764034696	8587
0	10257	96.448915892155	8587
0	10260	96.457067749614	8587
0	10263	96.465219607073	8588
0	10266	96.473370515317	8588
0	10271	96.481521423561	8588
0	10274	96.489672331805	8589
0	10281	96.52100003035	8590
0	10286	96.631113452622	8594
0	10291	96.6653343997	8595
0	10296	96.677764125914	8596
0	10299	96.68590744839	8596
0	10307	96.732806095503	8604
0	10312	96.809599338792	8620
0	10315	96.817719988444	8622
0	10322	96.849333642537	8628
0	10327	96.880047656468	8634
0	10332	96.976294448351	8654
0	10337	96.995749451271	8658
0	10340	97.003834459356	8659
0	10347	97.0220167435	8663
0	10352	97.189764962468	8697
0	10357	97.22271038981	8704
0	10362	97.256495505598	8711
0	10367	97.321930263585	8724
0	10372	97.329954105859	8725
0	10375	97.337977028495	8727
0	10380	97.345998112487	8729
0	10387	97.451372950128	8750
0	10392	97.567809244487	8774
0	10397	97.634175393111	8787
0	10402	97.654500021489	8791
0	10407	97.664209570428	8793
0	10412	97.839667800885	8829
0	10417	97.979643939308	8857
0	10421	98	8861
0	10428	98.4	8943
0	10429	98.407827351001	8944
0	10432	98.415653826851	8946
0	10439	98.495215616168	8962
0	10444	98.573193180254	8978
0	10449	98.584179367529	8980
0	10455	98.615652262596	8987
0	10460	98.653928286288	8997
0	10463	98.661708657523	8999
0	10470	98.674998983929	9002
0	10475	98.763257072908	9025
0	10480	98.78138982356	9030
0	10485	98.85953240128	9050
0	10490	98.904242400791	9061
0	10495	98.940421989196	9070
0	10500	99.067794551741	9103
0	10503	99.075484324343	9105
0	10510	99.150086564068	9124
0	10513	99.15775863772	9126
0	10520	99.221773458987	9142
0	10525	99.284011562927	9158
0	10531	99.324966790096	9159
0	10536	99.369651384683	9068
0	10541	99.49739542417	8808
0	10546	99.557601482176	8686
0	10551	99.591500758262	8617
0	10556	99.613888172	8571
0	10561	99.717395288908	8360
0	10566	99.7670237448	8259
0	10572	99.856806591742	8165
0	10577	99.885337729642	8282
0	10582	99.89736718103	8331
0	10587	99.924071980428	8441
0	10592	99.997822896157	8744
0	10593	100	8752
0	10629	100.405828385635	9164
0	10630	100.413466971405	9164
0	10633	100.421105557175	9165
0	10636	100.428743309494	9165
0	10639	100.436381061813	9166
0	10642	100.444017980862	9166
0	10645	100.451654899911	9167
0	10648	100.459290985872	9167
0	10651	100.466927071833	9167
0	10654	100.474563157794	9168
0	10657	100.482198410848	9168
0	10660	100.489833663902	9169
0	10663	100.497468084231	9169
0	10666	100.50510250456	9170
0	10669	100.512736092346	9170
0	10676	100.520875470257	9171
0	10681	100.553543643618	9172
0	10686	100.566524072602	9173
0	10691	100.610856679332	9176
0	10696	100.667383680838	9179
0	10701	100.781501209087	9186
0	10708	100.826433606822	9188
0	10727	100.95289017882	9195
0	10730	100.960503011881	9196
0	10739	100.976200500887	9197
0	10744	101.008497098566	9199
0	10751	101.142063332087	9206
0	10757	101.203745495967	9210
0	10763	101.243204104255	9212
0	10766	101.25080288845	9213
0	10773	101.288129271169	9215
0	10781	101.393943463571	9221
0	10786	101.403782886877	9221
0	10792	101.440489827694	9224
0	10795	101.44807872622	9224
0	10800	101.455667624746	9224
0	10805	101.463256523272	9225
0	10812	101.47492131926	9225
0	10815	101.482509395141	9226
0	10825	101.635161702763	8758
0	10830	101.647796221609	8716
0	10837	101.691448174195	8572
0	10843	101.730254333076	8445
0	10846	101.738543261436	8417
0	10856	101.837283582351	8467
0	10862	101.854235473734	8515
0	10872	101.933469759076	8743
0	10877	101.963974774186	8830
0	10882	101.971902294005	8853
0	10885	101.979809218211	8876
0	10891	102	8933
0	10894	102.043154395159	9057
0	10899	102.053155487316	9086
0	10902	102.055827428585	9094
0	10910	102.089165763754	9189
0	10926	102.400537372153	9286
0	10932	102.414501767254	9176
0	10937	102.491152087543	9153
0	10942	102.535566292651	9140
0	10947	102.548724337481	9136
0	10952	102.618691315602	9115
0	10957	102.652369355125	9105
0	10962	102.665817881542	9101
0	10967	102.733966548127	9081
0	10972	102.782411568272	9066
0	10977	102.873980217277	9039
0	10982	102.92501034151	9023
0	10987	102.938004439114	9019
0	10992	103.086352255468	8975
0	10995	103.094151698365	8973
0	11002	103.168858956321	8950
0	11007	103.302596926014	8910
0	11012	103.396904367359	8882
0	11017	103.452453034677	8865
0	11022	103.48616144615	8855
0	11027	103.590650140534	8824
0	11032	103.600899889237	8821
0	11037	103.614123117333	8817
0	11042	103.887939059903	8735
0	11045	103.895952797739	8732
0	11050	103.903969288806	8730
0	11057	103.923317570793	8724
0	11062	103.955199156756	8715
0	11067	103.969763580926	8710
0	11072	103.977800320306	8708
0	11075	103.985838905515	8705
0	11081	104	8701
0	11090	104.4	8581
0	11091	104.408157557394	8579
0	11094	104.416317016538	8576
0	11099	104.424479329971	8574
0	11102	104.432643547372	8572
0	11109	104.448192061636	8567
0	11114	104.46973065729	8560
0	11119	104.486735636447	8555
0	11124	104.501412756614	8551
0	11130	104.628449928473	8525
0	11135	104.643864806036	8528
0	11140	104.673775674774	8533
0	11143	104.681979120221	8534
0	11150	104.786537001082	8552
0	11155	104.823844250932	8559
0	11158	104.832022776461	8560
0	11163	104.840200346554	8561
0	11170	104.872114082962	8567
0	11175	104.89115739068	8570
0	11180	104.921298085899	8575
0	11185	104.970567598127	8584
0	11190	104.990302588088	8587
0	11195	105.055316424561	8599
0	11200	105.073163706375	8602
0	11203	105.081301348784	8603
0	11210	105.089908344399	8604
0	11215	105.118024465647	8609
0	11220	105.129152247496	8611
0	11225	105.181947792462	8620
0	11230	105.215873769886	8626
0	11235	105.31182364112	8643
0	11240	105.332990161423	8646
0	11245	105.365238953307	8652
0	11250	105.385307667068	8655
0	11255	105.559329238086	8685
0	11258	105.567389111431	8687
0	11265	105.578191560572	8689
0	11270	105.586247723537	8690
0	11273	105.59430295944	8691
0	11280	105.70089598074	8710
0	11285	105.733954464946	8716
0	11290	105.760655631982	8720
0	11295	105.775448992341	8723
0	11300	105.831961034287	8732
0	11305	105.918744456762	8747
0	11310	105.948854871465	8753
0	11315	105.962103478251	8755
0	11320	105.973300526273	8757
0	11325	105.991899326694	8760
0	11329	106	8761
0	11344	106.4	8830
0	11345	106.407927519819	8832
0	11350	106.415853244457	8833
0	11353	106.423778071809	8835
0	11358	106.431701105199	8836
0	11361	106.439623241912	8837
0	11364	106.447544482152	8839
0	11369	106.455463930053	8840
0	11372	106.463382482089	8841
0	11375	106.471300138463	8843
0	11382	106.50960878155	8849
0	11385	106.517519279911	8851
0	11392	106.547245925246	8856
0	11395	106.555150170955	8857
0	11402	106.587748371095	8863
0	11407	106.623540693461	8869
0	11412	106.71280139934	8884
0	11417	106.720680732973	8886
0	11422	106.72855829318	8887
0	11425	106.736434966973	8888
0	11432	106.840508932034	8906
0	11437	107.008872847644	8935
0	11442	107.061539628321	8944
0	11447	107.159490334345	8961
0	11452	107.210699073295	8970
0	11457	107.218944411092	8972
0	11462	107.226746461917	8973
0	11465	107.234547643239	8974
0	11472	107.340948963722	8993
0	11477	107.483029011514	9017
0	11480	107.490792125632	9019
0	11487	107.500757098829	9020
0	11492	107.511012947605	9022
0	11497	107.521296403603	9024
0	11502	107.634421943792	9043
0	11507	107.693224930153	9053
0	11510	107.700957173608	9055
0	11515	107.708687709224	9056
0	11522	107.731139370928	9060
0	11527	107.746509778436	9063
0	11532	107.81787584667	9075
0	11536	108	9106
0	11561	108.4	9175
0	11562	108.407629427793	9177
0	11565	108.415257192858	9178
0	11568	108.422884126831	9179
0	11571	108.430510229892	9181
0	11574	108.438134671674	9182
0	11577	108.445758283088	9183
0	11580	108.453381064314	9184
0	11583	108.461003015534	9186
0	11586	108.468623307282	9187
0	11589	108.476242769566	9188
0	11592	108.483861402566	9190
0	11599	108.561465946286	9203
0	11604	108.870175799934	9256
0	11609	108.96888413445	9273
0	11614	109.024486578768	9283
0	11619	109.072558434063	9291
0	11624	109.180171710692	9310
0	11627	109.187690507684	9311
0	11634	109.207322991945	9315
0	11639	109.26766444301	9325
0	11644	109.397071126329	9347
0	11649	109.519327168414	9368
0	11654	109.533819840194	9371
0	11659	109.57099736456	9377
0	11664	109.579589232299	9379
0	11669	109.601454425101	9382
0	11674	109.678744735547	9396
0	11677	109.686194714261	9397
0	11685	109.865778892003	9342
0	11690	109.936083567856	9319
0	11693	109.943595103428	9316
0	11699	110	9297
0	11716	110.4	9165
0	11717	110.407637752319	9163
0	11720	110.415277171723	9160
0	11725	110.42291909312	9158
0	11728	110.430562683424	9155
0	11731	110.438208778454	9153
0	11734	110.445856544214	9150
0	11737	110.453506817438	9147
0	11740	110.461159599771	9145
0	11747	110.573674143135	9108
0	11752	110.621407276546	9092
0	11755	110.629106352657	9089
0	11762	110.667872348066	9077
0	11767	110.689899637074	9069
0	11772	110.707444920659	9064
0	11777	110.722926581948	9058
0	11782	110.855386178141	9015
0	11787	110.937747978293	8987
0	11792	110.953203862803	8982
0	11797	110.962133814956	8979
0	11802	111.050189492137	8950
0	11807	111.154902864514	8916
0	11812	111.365251695529	8846
0	11817	111.439548679704	8821
0	11822	111.516033051437	8796
0	11827	111.623663192419	8761
0	11832	111.660256544395	8748
0	11837	111.834216254291	8691
0	11840	111.842270563346	8688
0	11847	111.880234745909	8676
0	11852	111.912206895579	8665
0	11857	111.942869421655	8655
0	11862	111.97170486941	8645
0	11866	112	8636
0	11893	112.4	8504
0	11894	112.408231420508	8501
0	11897	112.416465745881	8498
0	11902	112.424702978171	8496
0	11905	112.432942149546	8493
0	11908	112.44118423126	8490
0	11911	112.449429225371	8487
0	11914	112.457677133937	8485
0	11917	112.465926986618	8482
0	11920	112.474179757191	8479
0	11923	112.482435447721	8477
0	11926	112.490693086036	8474
0	11929	112.498953647754	8471
0	11932	112.507217134946	8468
0	11940	112.612553449395	8455
0	11943	112.620832574173	8455
0	11950	112.634475450551	8454
0	11955	112.752821724209	8445
0	11960	112.764359316058	8444
0	11965	112.849099387285	8438
0	11970	112.867448131179	8437
0	11975	112.90766115607	8434
0	11980	113.116893671593	8418
0	11985	113.21235619609	8411
0	11990	113.267574208077	8407
0	11995	113.431605217032	8395
0	12000	113.44567550375	8394
0	12003	113.454014793719	8394
0	12010	113.462757271307	8393
0	12015	113.512582418329	8389
0	12018	113.52092667867	8389
0	12025	113.82705554743	8366
0	12030	113.849621626709	8365
0	12034	114	8354
0	12053	114.4	8325
0	12054	114.408408408408	8324
0	12057	114.416817826957	8323
0	12062	114.425228255889	8323
0	12065	114.433638684821	8322
0	12070	114.442050124379	8321
0	12073	114.450462574806	8321
0	12076	114.458875025233	8320
0	12081	114.467288486771	8320
0	12084	114.475701948309	8319
0	12087	114.484116421202	8318
0	12090	114.492531905693	8318
0	12097	114.618309174031	8309
0	12102	114.62728460883	8308
0	12107	114.647341376308	8306
0	12112	114.759450109163	8298
0	12117	114.8103095738	8295
0	12122	114.853100139813	8291
0	12127	114.86958506581	8290
0	12132	114.8844224051	8289
0	12137	115.032077012346	8278
0	12142	115.045588117322	8277
0	12147	115.110788591972	8273
0	12152	115.140533900355	8270
0	12157	115.160531752376	8269
0	12162	115.186335988661	8267
0	12167	115.264789531025	8261
0	12170	115.273263081443	8261
0	12175	115.281736631861	8260
0	12182	115.417441951661	8250
0	12187	115.442347206746	8248
0	12192	115.519659598925	8243
0	12197	115.532160813203	8242
0	12202	115.566474171079	8239
0	12207	115.624031559286	8235
0	12212	115.643824830413	8234
0	12215	115.652326166337	8233
0	12220	115.660828534854	8232
0	12227	115.684535640061	8231
0	12232	115.693629097165	8230
0	12237	115.709822182533	8229
0	12242	115.723576298221	8228
0	12247	115.758872006913	8225
0	12252	115.771328951672	8224
0	12257	115.792860226977	8223
0	12262	115.854702340131	8218
0	12267	115.915980990228	8214
0	12272	115.98938523587	8208
0	12275	115.997913500977	8208
0	12278	116	8207
0	12301	116.406441766084	8638
0	12302	116.414545493799	8648
0	12305	116.422639850876	8658
0	12308	116.430724858961	8668
0	12311	116.438800539626	8678
0	12314	116.446866914367	8688
0	12317	116.454924004606	8698
0	12320	116.462971831693	8708
0	12323	116.471010416902	8718
0	12330	116.543707053721	8807
0	12335	116.621421634692	8903
0	12340	116.640451738591	8926
0	12352	116.860597458137	9050
0	12360	116.948264393342	9037
0	12368	117.057443674164	9021
0	12373	117.065203346041	9019
0	12376	117.072964738657	9018
0	12383	117.113453959085	9012
0	12386	117.121221380301	9011
0	12393	117.18608717442	9002
0	12399	117.300320631368	8985
0	12404	117.308799463371	8983
0	12407	117.31659196031	8982
0	12414	117.342887004515	8978
0	12420	117.388152521604	8972
0	12428	117.499762193734	8955
0	12434	117.521673578248	8952
0	12439	117.52898966351	8951
0	12440	117.529493059928	8951
0	12447	117.536810018778	8950
0	12450	117.537313415196	8950
0	12460	117.57874864256	8944
0	12466	117.651334568735	8933
0	12471	117.679928106985	8929
0	12480	117.772313438001	8915
0	12486	117.852458714874	8903
0	12491	117.875025578206	8900
0	12502	118	8881
0	12509	118.059170682023	8873
0	12510	118.067059783792	8871
0	12515	118.074950664189	8870
0	12518	118.0828424342	8869
0	12526	118.094067148408	8867
0	12531	118.102327575884	8866
0	12536	118.13563065098	8861
0	12542	118.183608899906	8854
0	12547	118.22796388036	8848
0	12554	118.295222992622	8838
0	12561	118.501526603061	8949
0	12566	118.562390578531	9003
0	12571	118.622146228269	9056
0	12576	118.75661719769	9175
0	12581	118.781295019622	9197
0	12586	118.827324210777	9237
0	12591	118.84263468914	9251
0	12596	118.887852478816	9291
0	12601	119.032534477394	9419
0	12606	119.099311734108	9478
0	12609	119.10669725848	9484
0	12616	119.171286639347	9542
0	12621	119.234982420228	9598
0	12626	119.251350138526	9612
0	12631	119.381127543828	9727
0	12636	119.460917591681	9798
0	12641	119.515548941479	9846
0	12647	119.63294886161	9866
0	12652	119.660449229815	9851
0	12657	119.736021417707	9809
0	12662	119.74711556861	9803
0	12667	119.841766310283	9750
0	12672	119.864668112501	9738
0	12677	119.959099760323	9685
0	12681	120	9663
0	12694	120.4	9441
0	12695	120.407414468806	9436
0	12698	120.414832866432	9432
0	12701	120.422254410113	9428
0	12704	120.429679102519	9424
0	12707	120.437106946322	9420
0	12714	120.470667731059	9401
0	12719	120.490198931124	9390
0	12725	120.574880889236	9362
0	12730	120.631028619579	9343
0	12735	120.752238507282	9303
0	12740	120.80815740462	9285
0	12745	120.824328888391	9280
0	12750	120.905393218525	9253
0	12755	120.92845719167	9246
0	12758	120.936028033115	9243
0	12765	120.952353454729	9238
0	12770	121.004447549674	9221
0	12775	121.045547806709	9207
0	12780	121.101420616794	9189
0	12785	121.156584508701	9171
0	12790	121.199652529526	9157
0	12795	121.216546358372	9151
0	12800	121.291660328766	9126
0	12803	121.299330721052	9124
0	12808	121.307002794704	9121
0	12815	121.325866284276	9115
0	12820	121.343793613506	9109
0	12825	121.362240241244	9103
0	12830	121.432742455781	9080
0	12835	121.575267566272	9033
0	12840	121.596265101836	9027
0	12845	121.705846384289	8991
0	12851	121.752119192102	8982
0	12856	121.850535914111	8971
0	12861	121.899098687309	8966
0	12866	121.952020177729	8960
0	12871	121.969754999003	8958
0	12876	121.990856768361	8956
0	12880	122	8955
0	12895	122.4	8911
0	12896	122.407855459544	8911
0	12899	122.415710919088	8910
0	12904	122.423567260278	8909
0	12907	122.431424483311	8908
0	12910	122.439282588385	8907
0	12919	122.447141575698	8906
0	12922	122.455001445449	8905
0	12925	122.462862197835	8905
0	12928	122.470722950221	8904
0	12931	122.478584585441	8903
0	12938	122.528848304927	8897
0	12943	122.644484072197	8885
0	12948	122.726883604	8876
0	12953	122.734770039331	8875
0	12958	122.742657363275	8874
0	12961	122.750545576031	8873
0	12968	122.784703651464	8870
0	12973	122.861159763177	8861
0	12978	122.896063033932	8857
0	12981	122.903966387212	8856
0	12986	122.911870632921	8856
0	12993	123.01699848914	8844
0	12998	123.025029169538	8843
0	13003	123.139222716714	8831
0	13009	123.213420090065	8844
0	13012	123.221335060667	8847
0	13019	123.258231497808	8862
0	13024	123.408983223072	8920
0	13029	123.612707785474	8998
0	13034	123.648832718907	9012
0	13040	123.85039495677	8949
0	13043	123.858217059798	8907
0	13049	124	8156
0	13061	124.4	8271
0	13062	124.408463305525	8275
0	13065	124.416922520027	8279
0	13068	124.425377647458	8282
0	13071	124.433829712177	8286
0	13078	124.513948482484	8322
0	13083	124.527971864357	8328
0	13088	124.543066881747	8334
0	13093	124.573710930526	8348
0	13098	124.603289828712	8361
0	13103	124.674108245067	8393
0	13106	124.682448528637	8396
0	13111	124.690785832115	8400
0	13118	124.795102362515	8446
0	13123	124.836873812388	8465
0	13126	124.845143156747	8468
0	13131	124.853409571485	8472
0	13138	124.922819500453	8503
0	13141	124.931051889022	8507
0	13148	124.944660621002	8513
0	13151	124.952883339198	8516
0	13156	124.96110316071	8520
0	13163	124.980478161091	8528
0	13168	125.040917505527	8555
0	13171	125.04909985503	8559
0	13178	125.090125294641	8577
0	13183	125.117781855697	8589
0	13186	125.125931814947	8593
0	13193	125.174154914669	8614
0	13198	125.198719880433	8625
0	13203	125.224402042229	8637
0	13208	125.264962446947	8655
0	13211	125.273050257461	8658
0	13218	125.291484439795	8666
0	13221	125.299561984221	8670
0	13228	125.344666828026	8690
0	13233	125.360961404629	8697
0	13238	125.392010427698	8711
0	13243	125.401285519379	8715
0	13248	125.453254953832	8738
0	13253	125.621011176978	8813
0	13258	125.668032243868	8833
0	13263	125.676230609123	8837
0	13268	125.687447231745	8842
0	13273	125.769303733069	8878
0	13278	125.789916201768	8887
0	13283	125.834023705486	8907
0	13288	125.85209033828	8915
0	13293	125.894205994179	8934
0	13297	126	8981
0	13312	126.4	9158
0	13313	126.407643590304	9161
0	13316	126.415284677522	9165
0	13319	126.422922429841	9168
0	13322	126.430557682895	9172
0	13327	126.43818960614	9175
0	13330	126.445819033933	9178
0	13333	126.453445967906	9182
0	13340	126.583513300022	9239
0	13345	126.624030406748	9257
0	13350	126.656343887742	9272
0	13355	126.681522625216	9283
0	13360	126.907161891011	9383
0	13365	127.062736931395	9452
0	13370	127.131991974214	9483
0	13375	127.177596449376	9503
0	13378	127.184962544293	9506
0	13383	127.192326314543	9509
0	13391	127.26503938383	9493
0	13396	127.292064053431	9457
0	13401	127.411762593513	9299
0	13406	127.487829761765	9198
0	13411	127.554370868649	9110
0	13417	127.613538058905	9019
0	13422	127.628995636466	8992
0	13427	127.753045550266	8773
0	13430	127.761024576825	8758
0	13437	127.775916925352	8732
0	13442	127.786704105773	8713
0	13447	127.857685022482	8588
0	13451	128	8336
0	13461	128.4	8523
0	13462	128.408213070515	8537
0	13465	128.416412672249	8551
0	13468	128.424598849304	8564
0	13475	128.496388450456	8684
0	13480	128.651494979165	8942
0	13485	128.705230598652	9032
0	13491	128.899078628826	9281
0	13496	129.032348558945	8923
0	13501	129.131225655894	8657
0	13506	129.18278536493	8518
0	13511	129.205029229845	8458
0	13516	129.219185656087	8420
0	13522	129.328515099141	8375
0	13527	129.347433534494	8407
0	13532	129.398323298838	8493
0	13537	129.514964614701	8692
0	13542	129.543070277796	8740
0	13547	129.670682821307	8957
0	13550	129.678497937976	8970
0	13558	129.723286175415	9032
0	13563	129.796797835162	9061
0	13566	129.804523251783	9064
0	13573	129.836817470587	9076
0	13578	129.851934320411	9082
0	13583	129.929067345564	9112
0	13588	129.938863812761	9116
0	13592	130	9139
0	13615	130.4	9294
0	13616	130.407531740908	9297
0	13621	130.415061051438	9300
0	13624	130.422587933158	9303
0	13627	130.430112387635	9306
0	13630	130.437634416434	9309
0	13633	130.445154021118	9312
0	13636	130.452671203249	9315
0	13639	130.460185964387	9317
0	13644	130.467699112396	9320
0	13647	130.47520984201	9323
0	13654	130.482718154785	9326
0	13657	130.490224052276	9329
0	13660	130.497727536036	9332
0	13663	130.505228607618	9335
0	13670	130.59543248897	9370
0	13673	130.602903139984	9373
0	13680	130.642407024101	9388
0	13685	130.659685110937	9395
0	13688	130.667135882624	9397
0	13695	130.870106076452	9476
0	13700	130.881577452529	9480
0	13705	130.889103818577	9483
0	13710	131.027211734332	9537
0	13715	131.047280132482	9544
0	13720	131.070629014301	9554
0	13723	131.077955788427	9556
0	13730	131.094818059684	9563
0	13735	131.114936720248	9571
0	13740	131.146680039581	9583
0	13746	131.165987160853	9700
0	13751	131.191044200267	9863
0	13757	131.337735785157	9792
0	13762	131.358381528938	9778
0	13767	131.451647766665	9714
0	13772	131.474470947366	9699
0	13777	131.498596156593	9682
0	13782	131.599263369385	9614
0	13785	131.606544417856	9609
0	13792	131.65984503994	9573
0	13797	131.748747075171	9513
0	13800	131.7561054269	9508
0	13807	131.803662890794	9476
0	13812	131.962340947429	9368
0	13817	131.970606174724	9362
0	13821	132	9342
0	13826	132.4	9071
0	13827	132.407716900011	9066
0	13834	132.461273351747	9029
0	13837	132.469026148291	9024
0	13844	132.480321999267	9016
0	13849	132.581235384353	8948
0	13854	132.639547231771	8908
0	13859	132.656973087348	8897
0	13864	132.845071313639	8769
0	13869	132.873649081312	8750
0	13872	132.881649081312	8744
0	13879	132.959793792664	8691
0	13884	133.028450483142	8645
0	13889	133.08503438653	8606
0	13894	133.098923036236	8597
0	13899	133.237844825817	8503
0	13904	133.273514381732	8478
0	13909	133.322043851723	8445
0	13914	133.336593107766	8436
0	13917	133.344890879222	8430
0	13924	133.394092576488	8397
0	13929	133.501956399925	8323
0	13934	133.560128229541	8284
0	13939	133.633428784213	8234
0	13942	133.641930120137	8228
0	13949	133.697823570171	8191
0	13954	133.73766427847	8164
0	13957	133.746238506789	8158
0	13964	133.79195465503	8127
0	13969	133.817182151432	8110
0	13974	133.859429913578	8081
0	13979	133.868592161815	8075
0	13984	133.884580222334	8064
0	13990	133.970851823569	8080
0	13995	133.983327757953	8083
0	13999	134	8088
0	14008	134.4	8197
0	14011	134.40853970965	8199
0	14014	134.41707733619	8202
0	14017	134.42561183997	8204
0	14020	134.434144263178	8206
0	14027	134.479199925077	8219
0	14032	134.553726614789	8239
0	14037	134.593689538646	8250
0	14042	134.851470447549	8320
0	14047	134.889469597353	8330
0	14052	134.937165318522	8343
0	14057	134.959566192379	8350
0	14064	134.967949425912	8352
0	14067	134.976330651966	8354
0	14070	134.984709871502	8356
0	14077	135.1729728871	8408
0	14082	135.193908298273	8414
0	14087	135.295860939907	8441
0	14092	135.382574649178	8465
0	14097	135.394076708744	8468
0	14102	135.494622772349	8496
0	14107	135.522279221816	8503
0	14112	135.684249127794	8547
0	14117	135.737100723002	8562
0	14120	135.745276382895	8564
0	14127	135.780687895218	8574
0	14130	135.788852112619	8576
0	14137	135.797431817598	8578
0	14142	135.919687427402	8612
0	14147	135.939269407459	8617
0	14152	135.957464938917	8622
0	14156	136	8633
0	14171	136.4	8743
0	14174	136.408006405124	8745
0	14177	136.416010979166	8747
0	14182	136.424013722964	8749
0	14185	136.432014637354	8751
0	14188	136.440013723173	8753
0	14193	136.448010981256	8756
0	14196	136.456005499301	8758
0	14201	136.463998191697	8760
0	14204	136.471989059277	8762
0	14207	136.479978102874	8764
0	14214	136.531940835548	8779
0	14219	136.569259441152	8789
0	14224	136.606768045523	8799
0	14229	136.641278974012	8808
0	14234	136.654838129489	8812
0	14239	136.78636368124	8848
0	14244	136.802188757515	8852
0	14249	136.837192239801	8862
0	14254	136.852116532076	8866
0	14259	136.863047605857	8869
0	14264	136.901046190085	8879
0	14267	136.90892996078	8881
0	14274	136.963151758665	8896
0	14277	136.971020463701	8898
0	14284	137.116620079866	8938
0	14289	137.143844168497	8945
0	14294	137.203066956797	8962
0	14299	137.239466454639	8972
0	14304	137.31544467944	8992
0	14309	137.367436938519	9006
0	14314	137.376688767258	9009
0	14319	137.408546656829	9018
0	14324	137.43197190447	9024
0	14329	137.485648269388	9039
0	14334	137.51235129502	9046
0	14337	137.520089521861	9048
0	14344	137.57036585364	9062
0	14347	137.578090417754	9064
0	14354	137.588651590919	9067
0	14359	137.669811614742	9089
0	14364	137.687881053874	9094
0	14369	137.735438379555	9107
0	14374	137.757432601496	9113
0	14379	137.827908289439	9132
0	14384	137.911024408792	9155
0	14389	137.934797603904	9161
0	14395	137.977886558353	9173
0	14399	138	9184
0	14422	138.4	9375
0	14423	138.407466666667	9378
0	14426	138.414930944765	9382
0	14429	138.42239204048	9386
0	14432	138.429849956525	9389
0	14435	138.437305489596	9393
0	14440	138.444757847735	9396
0	14445	138.452207826449	9400
0	14448	138.45965463496	9403
0	14451	138.467099067588	9407
0	14454	138.474540334729	9410
0	14457	138.481979229522	9414
0	14460	138.489414963535	9418
0	14467	138.517651731023	9431
0	14472	138.684578098451	9511
0	14477	138.701502501496	9519
0	14482	138.763853383181	9549
0	14487	138.803585396266	9568
0	14492	138.840701687482	9585
0	14497	138.879893878913	9604
0	14502	138.9885235066	9656
0	14507	139.055806565975	9688
0	14512	139.155315910006	9735
0	14518	139.312493389184	9772
0	14523	139.387171079695	9777
0	14528	139.403456890062	9778
0	14533	139.483256541178	9784
0	14538	139.562076447961	9789
0	14543	139.63812274128	9794
0	14548	139.692058893566	9798
0	14553	139.734223227604	9801
0	14558	139.77762658202	9804
0	14564	139.842513479175	9764
0	14569	139.917069514984	9689
0	14574	139.947615591971	9659
0	14578	140	9607
0	14591	140.4	9209
0	14592	140.407601259637	9201
0	14595	140.415209128347	9194
0	14600	140.42282278943	9186
0	14603	140.430443081178	9179
0	14606	140.438069184239	9171
0	14609	140.445701939664	9163
0	14617	140.553067766526	9053
0	14622	140.560800009981	9044
0	14625	140.568539948061	9035
0	14632	140.594426204084	9005
0	14637	140.62716306557	8968
0	14642	140.639577209737	8953
0	14647	140.764114573208	8810
0	14652	140.780145206076	8791
0	14657	140.789457768671	8781
0	14662	140.849964100878	8711
0	14667	140.857999917661	8702
0	14670	140.866044045448	8693
0	14677	140.881616330957	8675
0	14682	140.984920657394	8556
0	14687	141.013136664848	8523
0	14692	141.042529103836	8490
0	14697	141.080407535318	8446
0	14702	141.115304798215	8406
0	14707	141.14710982042	8369
0	14712	141.185941473148	8324
0	14718	141.245806863148	8278
0	14723	141.297665457289	8293
0	14728	141.336690376757	8304
0	14733	141.357835432548	8310
0	14738	141.39691691893	8321
0	14741	141.405329369357	8324
0	14748	141.457259179439	8339
0	14753	141.476423249707	8344
0	14758	141.513371301684	8355
0	14763	141.522575985418	8358
0	14766	141.530951194798	8360
0	14773	141.566394760781	8370
0	14778	141.649763712866	8394
0	14783	141.66890209335	8400
0	14788	141.685777479857	8405
0	14793	141.844361799373	8450
0	14798	141.960323157378	8484
0	14802	142	8495
0	14815	142.4	8610
0	14816	142.408130081301	8612
0	14819	142.41625827452	8615
0	14822	142.424383637259	8617
0	14825	142.432507114107	8619
0	14828	142.440628705939	8622
0	14835	142.579011339116	8662
0	14840	142.58749730061	8664
0	14845	142.69664111965	8695
0	14850	142.749342246507	8711
0	14855	142.821765620468	8731
0	14860	142.84232074839	8737
0	14865	142.861134801062	8743
0	14870	142.889261407027	8751
0	14875	142.912010382101	8757
0	14880	143.006645647543	8785
0	14885	143.01788206081	8788
0	14888	143.025847468184	8790
0	14895	143.052399706127	8798
0	14900	143.131467908445	8821
0	14905	143.363603816027	8887
0	14911	143.492647442966	8730
0	14916	143.614254206713	8538
0	14921	143.649540526647	8482
0	14924	143.65779329722	8469
0	14931	143.666058735879	8456
0	14934	143.674336881574	8443
0	14941	143.690127324186	8418
0	14947	143.804580012254	8325
0	14950	143.812988420662	8340
0	14957	143.851165480335	8412
0	14960	143.859486925889	8427
0	14967	143.868882394849	8445
0	14971	144	8689
0	14992	144.4	9436
0	14993	144.407418397626	9450
0	14996	144.414825805033	9464
0	15001	144.422222254737	9478
0	15006	144.429607779109	9492
0	15009	144.436982410377	9505
0	15012	144.444346955353	9519
0	15015	144.451700668978	9533
0	15018	144.459043583066	9547
0	15021	144.46637572929	9560
0	15024	144.473697905022	9574
0	15027	144.481009373583	9588
0	15035	144.86864446255	9624
0	15038	144.875917945509	9620
0	15043	144.883194452786	9615
0	15051	144.890661038218	9610
0	15056	144.898381481904	9602
0	15061	144.956214818976	9543
0	15066	145.099540498842	9399
0	15069	145.106988099651	9392
0	15074	145.114441251269	9384
0	15081	145.12190075681	9377
0	15086	145.129365830928	9369
0	15089	145.136837279322	9361
0	15096	145.227255755499	9270
0	15101	145.246285195318	9251
0	15104	145.253851944859	9244
0	15111	145.267850810544	9229
0	15116	145.431150832328	9065
0	15121	145.445873666149	9050
0	15126	145.517287665186	8978
0	15131	145.586709828735	8908
0	15136	145.612621001123	8882
0	15142	145.923924411096	8770
0	15145	145.931906167082	8770
0	15152	145.965467298256	8773
0	15156	146	8776
0	15178	146.4	8891
0	15179	146.407873130132	8895
0	15182	146.415742719789	8900
0	15185	146.423607888328	8904
0	15188	146.431469523548	8908
0	15191	146.439327628622	8913
0	15194	146.447181325469	8917
0	15197	146.455031499294	8922
0	15200	146.462877273784	8926
0	15203	146.470719532354	8930
0	15210	146.545367559311	8972
0	15215	146.579369923392	8991
0	15220	146.609979184804	9009
0	15225	146.663486793786	9039
0	15230	146.699408851034	9059
0	15236	146.730315494662	9075
0	15241	146.84990725102	9025
0	15246	146.986699276642	8968
0	15251	147.000844108541	8962
0	15256	147.108883119063	8917
0	15261	147.124165002799	8910
0	15266	147.18469433267	8885
0	15271	147.317736518146	8829
0	15276	147.351372864313	8815
0	15281	147.374749111123	8806
0	15284	147.382698236719	8802
0	15291	147.45564915266	8772
0	15296	147.480942190155	8761
0	15301	147.501706072495	8752
0	15306	147.562643737299	8727
0	15311	147.574946950146	8722
0	15316	147.591712582292	8715
0	15321	147.610180267683	8707
0	15324	147.618219776124	8704
0	15331	147.651029174359	8690
0	15336	147.770272356521	8640
0	15341	147.782809724999	8635
0	15346	147.844540056306	8609
0	15351	147.910007186413	8582
0	15356	147.957768696365	8562
0	15359	147.965944356258	8558
0	15365	148	8544
0	15382	148.4	8377
0	15383	148.408356213442	8373
0	15386	148.416716418864	8370
0	15389	148.425079620776	8366
0	15392	148.43344682135	8363
0	15395	148.441817023431	8359
0	15398	148.450191230872	8356
0	15401	148.45856844485	8352
0	15408	148.498731709225	8335
0	15414	148.534635481275	8338
0	15419	148.550477371277	8343
0	15422	148.558867638567	8347
0	15429	148.600541749104	8362
0	15434	148.694756205571	8397
0	15439	148.732145247826	8411
0	15444	148.881305696121	8467
0	15449	148.91990934832	8481
0	15454	148.935300738803	8487
0	15459	149.074060820576	8539
0	15462	149.082258501803	8542
0	15469	149.097610989698	8548
0	15474	149.114505460993	8554
0	15479	149.319525545259	8630
[...]
6	38703	376.41477127601	0.401774970812
6	38708	376.422767620538	0.149657915575
6	38711	376.430765792384	0.13091967022
6	38714	376.438764878203	0.115458966239
6	38717	376.446764878203	0.083109031261
6	38720	376.454765792593	0.060237890165
6	38723	376.462767621582	0.048080042767
6	38726	376.470771280397	0.048231495055
6	38731	376.517881454856	0.008009153318
6	38736	376.579815527663	0.008018327606
6	38741	376.612118949745	0.008022003209
6	38746	376.63951730754	0.008025682183
6	38751	376.657772243866	0.008028443629
6	38756	376.739014731135	0.008039508441
6	38761	376.760222139721	0.008042279412
6	38766	376.803282851593	0.008048752443
6	38784	377.030083995381	0.008079409049
6	38787	377.038164337064	0.013973450307
6	38794	377.0864448598	0.008087810514
6	38799	377.106842658004	0.008090614887
6	38804	377.133200657236	0.008094357077
6	38812	377.215880393251	0.008105604447
6	38817	377.329474094808	0.008121591832
6	38822	377.387737498295	0.00812913715
6	38829	377.460073934658	0.008139534884
6	38836	377.510136509803	0.008146165484
6	38842	377.610131875698	0.008160410352
6	38848	377.665953563616	0.008168028005
6	38853	377.67473965301	0.008169934641
6	38858	377.721193521552	0.008175659893
6	38865	377.802285061702	0.008187134503
6	38870	377.853531693032	0.008194802154
6	38876	377.886243802495	0.008199601734
6	38884	377.93468517257	0.008206330598
6	38887	377.942892465336	0.012884561757
6	38894	377.976337150653	0.008212106992
6	38897	377.984550221168	0.01159761226
6	38904	378.052063984425	0.008222718196
6	38911	378.094665989857	0.008229485069
6	38916	378.117730409969	0.008232388569
6	38922	378.142343918948	0.00823626309
6	38929	378.174589322671	0.008241111373
6	38932	378.182831404385	0.012810405824
6	38938	378.203928216269	0.008244994111
6	38943	378.23259974138	0.008248880509
6	38948	378.244337858381	0.008250825083
6	38955	378.32289532695	0.008261536646
6	38961	378.34232046511	0.00826446281
6	38970	378.354426739203	0.008266414738
6	38973	378.362688275849	0.013698635974
6	38981	378.421299751513	0.008205368655
6	38986	378.44097274605	0.008187134503
6	38991	378.468730151597	0.008161361782
6	38996	378.493469065952	0.008137642409
6	39003	378.513377898307	0.008119707691
6	39006	378.521490078166	0.011330067402
6	39011	378.545292912544	0.00808967988
6	39016	378.557733960541	0.00807847663
6	39021	378.608205271457	0.008033050264
6	39026	378.622545030208	0.008019246191
6	39031	378.646662429317	0.007998171846
6	39036	378.659554801704	0.007986309184
6	39041	378.697641502289	0.007952738014
6	39048	378.719178776432	0.007933809362
6	39053	378.727105398559	0.011971076991
6	39056	378.73502484646	0.012065079363
6	39061	378.785364073532	0.007874901564
6	39068	378.851053251413	0.007818608288
6	39071	378.858864879579	0.007822145223
6	39076	378.879814270281	0.007794232268
6	39083	378.889057781278	0.007786429366
6	39086	378.896837287835	0.009039698062
6	39091	378.955160090951	0.007730535616
6	39096	379.000143549867	0.007693153094
6	39101	379.235354730298	0.007501875469
6	39106	379.245248600312	0.007494646681
6	39114	379.362123327537	0.007403490217
6	39117	379.369526817754	0.011816490675
6	39122	379.395688398313	0.007408975445
6	39127	379.40460398246	0.007410544146
6	39132	379.422643081692	0.007414468806
6	39137	379.449884494758	0.00741997032
6	39142	379.479332210314	0.00742626777
6	39147	379.538473176772	0.007438894793
6	39152	379.57949867277	0.007447600809
6	39157	379.630800442922	0.007457916045
6	39164	379.646129088621	0.007461095715
6	39167	379.653591775188	0.014662803563
6	39172	379.71035470791	0.007474639616
6	39179	379.78919358705	0.007491438356
6	39182	379.796686629225	0.013765843347
6	39187	379.810867189057	0.007496251874
6	39192	379.953786236937	0.00752688172
6	39214	380.407551240561	0.404364575013
6	39217	380.415100852295	0.347181599661
6	39220	380.422649649879	0.353069454538
6	39223	380.43019681969	0.257415210935
6	39226	380.437743175878	0.239935270784
6	39231	380.445287905346	0.226814513791
6	39234	380.452831821716	0.233368163417
6	39237	380.460374925164	0.10650549052
6	39240	380.467916403294	0.029312010832
6	39245	380.67698336378	0.007509118215
6	39250	380.687330943529	0.007507507508
6	39255	380.697218882815	0.007506702413
6	39260	380.753337038439	0.007497857755
6	39265	380.79603946404	0.007491438356
6	39270	380.812258937965	0.007489033915
6	39277	380.913030282126	0.007473841555
6	39282	380.92050252807	0.007674498848
6	39285	380.927973976464	0.012651374874
6	39290	381.055948566863	0.007451564829
6	39295	381.130703044914	0.00744047619
6	39302	381.175893173885	0.00743415463
6	39305	381.183325749803	0.013087787682
6	39310	381.288306199954	0.007416825599
6	39315	381.341468038337	0.007408975445
6	39322	381.359773056089	0.007406623638
6	39325	381.367178112685	0.009781518364
6	39332	381.453338574169	0.007392544091
6	39335	381.460730337633	0.009492054151
6	39340	381.600701544219	0.007370748657
6	39345	381.617650071268	0.007368421053
6	39350	381.642787730806	0.007364544976
6	39355	381.666178388761	0.00736144705
6	39361	381.783402366799	0.007346767422
6	39366	381.81866958548	0.007342143906
6	39373	381.83907213533	0.007339834329
6	39376	381.846411200123	0.011180154206
6	39381	381.862191080893	0.007337526205
6	39386	381.887039648324	0.007334450964
6	39395	382.407272727273	0.254729169839
6	39398	382.414544699016	0.104212508629
6	39403	382.469854472153	0.007265179035
6	39408	382.502338422784	0.007261410788
6	39413	382.51531551722	0.007259904584
6	39418	382.700563176169	0.007238134629
6	39423	382.791314976649	0.007227671657
6	39428	382.937163358686	0.007211290821
6	39433	382.958122710923	0.007208320461
6	39438	382.974039555455	0.007206836199
6	39443	383.167761853576	0.007184645386
6	39448	383.251956337341	0.007175071751
6	39453	383.346740568707	0.007164056903
6	39458	383.368010779092	0.007161857991
6	39463	383.485649077256	0.00714869281
6	39468	383.537497158072	0.007142128354
6	39473	383.580120279624	0.007137758744
6	39478	383.59983771211	0.007135575943
6	39483	383.617253252882	0.007133394477
6	39488	383.628201679735	0.007131940907
6	39493	383.639203682562	0.007131214344
6	39498	383.682462744733	0.007126132546
6	39503	383.719983643088	0.00712178248
6	39508	383.815062170369	0.007110930516
6	39513	383.870719711745	0.007105156313
6	39541	384.407420756917	0.386428227209
6	39544	384.414852543731	0.326161173852
6	39547	384.422295393279	0.318377929525
6	39552	384.429749338546	0.316492305664
6	39555	384.437214412664	0.267057187722
6	39558	384.444690648913	0.236151955878
6	39561	384.45217888169	0.156386226596
6	39564	384.459678346014	0.135240902769
6	39567	384.467189075628	0.130859775922
6	39570	384.474711104427	0.126707953543
6	39573	384.482244466459	0.098365777914
6	39576	384.489790009199	0.065655701526
6	39581	384.549739296849	0.00763858577
6	39586	384.565907460601	0.007664513303
6	39591	384.666151531137	0.00782647585
6	39598	384.704507696571	0.007890880397
6	39603	384.71241194228	0.015227411096
6	39606	384.720329598654	0.011981055453
6	39612	384.765221493145	0.007942811755
6	39617	384.880228504646	0.007849293564
6	39622	384.930635329167	0.007809013833
6	39627	384.951251064791	0.007792496939
6	39632	385.187093621217	0.007610350076
6	39637	385.234181552279	0.007574937777
6	39644	385.2924580384	0.007531740908
6	39647	385.299984110865	0.00855619505
6	39652	385.337725959967	0.007498660953
6	39657	385.38740412708	0.007461891056
6	39662	385.397448312715	0.007454739084
6	39667	385.413312697087	0.007443641004
6	39672	385.428630741351	0.007432575918
6	39677	385.585305616271	0.007321409894
6	39682	385.670942429633	0.007261410788
6	39689	385.695982390588	0.007244876837
6	39692	385.703222022401	0.010878819122
6	39699	385.746302786732	0.007210548002
6	39704	385.75350813928	0.013702397251
6	39707	385.760709044537	0.008747890809
6	39712	385.80638628255	0.007169927276
6	39717	385.905156446963	0.007104435197
6	39723	385.961495243048	0.007071421356
6	39742	386.407079288026	0.371088435368
6	39745	386.414158576052	0.290807664874
6	39748	386.421237864078	0.283792984855
6	39751	386.428317868124	0.253097963024
6	39754	386.43539787217	0.139194762615
6	39757	386.442477876216	0.053899740856
6	39760	386.449557880262	0.058930570586
6	39765	386.484916693191	0.00708072021
6	39770	386.55475013441	0.007082152975
6	39775	386.579434386729	0.007082152975
6	39782	386.610047464407	0.007082869574
6	39785	386.617130333981	0.009405711541
6	39790	386.705039536238	0.007085020243
6	39795	386.777015994992	0.007086454748
6	39800	386.808335859168	0.007086454748
6	39807	386.976164505025	0.007090043553
6	39810	386.983254548578	0.01078851208
6	39815	387.084892039548	0.007091480093
6	39820	387.097737181938	0.007092198582
6	39825	387.147898352144	0.007092917216
6	39832	387.406928660795	0.007097951734
6	39835	387.414026612529	0.00914501592
6	39840	387.43231616426	0.007097951734
6	39845	387.477164724013	0.007098671534
6	39852	387.485901284625	0.007099391481
6	39855	387.493000676106	0.013407528402
6	39860	387.568645252499	0.007100831812
6	39867	387.613467495825	0.007101552196
6	39870	387.620569048021	0.011897251628
6	39877	387.705474444855	0.007102993404
6	39880	387.712577438259	0.010770158307
6	39885	387.776545794668	0.007104435197
6	39890	387.794203346229	0.007105156313
6	39897	387.842020409248	0.007105877576
6	39902	387.849126286824	0.011783694304
6	39905	387.8562321644	0.012466723813
6	39923	388.407507507508	0.291137353188
6	39926	388.415021461995	0.289165417658
6	39929	388.422541874543	0.237944270588
6	39932	388.430068756263	0.152217644929
6	39935	388.437602118295	0.123095608493
6	39940	388.445141971806	0.085874636601
6	39943	388.452688327994	0.011640524088
6	39948	388.485518645526	0.007574937777
6	39953	388.539873192194	0.00762195122
6	39958	388.55155144095	0.007632755425
6	39963	388.561073323323	0.007641087218
6	39968	388.588715036644	0.007665352606
6	39974	388.601125563192	0.007676280294
6	39979	388.644657292357	0.00772797527
6	39984	388.745918539376	0.007857223033
6	39989	388.79543923931	0.007922136713
6	39994	388.816012326	0.007949125596
6	39999	388.876870100487	0.008030285649
6	40004	388.906588634526	0.00807102502
6	40009	388.975650212614	0.008166122259
6	40014	389.000492646334	0.008200562324
6	40021	389.04905458023	0.008270321361
6	40026	389.057336643647	0.013880773504
6	40029	389.06563048251	0.013719116365
6	40035	389.121140675187	0.008262511804
6	40040	389.160143783474	0.008186177055
6	40047	389.198903339159	0.008111239861
6	40050	389.206999568629	0.012319427902
6	40055	389.259051436696	0.007999085819
6	40060	389.30364665462	0.007916760914
6	40065	389.319920639793	0.007888212756
6	40070	389.513726305078	0.007554500324
6	40075	389.539804125925	0.007511535572
6	40080	389.555326559575	0.007486631016
6	40085	389.566008870706	0.007469056765
6	40090	389.590835157105	0.007429420505
6	40095	389.618001047164	0.007386303683
6	40100	389.633887520437	0.00736144705
6	40105	389.68679799065	0.00727953411
6	40110	389.727661045811	0.007217238891
6	40118	389.872335370061	0.007152344947
6	40121	389.879490639406	0.012068888221
6	40126	389.929047584449	0.007174336374
6	40143	390.407370748657	0.230180207931
6	40146	390.414744603076	0.20031522252
6	40149	390.422121565875	0.128025334396
6	40152	390.429501639676	0.108481243193
6	40155	390.436884827103	0.067829605132
6	40158	390.444271130786	0.069638612988
6	40163	390.465759875393	0.007394886964
6	40168	390.49818975808	0.007408975445
6	40173	390.510708728846	0.007414468806
6	40178	390.519139200557	0.007417611529
6	40183	390.616930538638	0.007459505541
6	40188	390.660585753109	0.007478632479
6	40193	390.866186406555	0.007569204152
6	40198	390.931727603724	0.007597959405
6	40203	390.982215797392	0.007620291748
6	40208	391.128682326327	0.007687239183
6	40213	391.170064531406	0.007705856451
6	40218	391.187682479488	0.007714348689
6	40223	391.217712063745	0.00772797527
6	40228	391.243008098509	0.00773993808
6	40233	391.2944843989	0.007763975155
6	40238	391.304591574727	0.007768283209
6	40243	391.358013560442	0.007793364507
6	40248	391.463225668812	0.007843137255
6	40253	391.503764305616	0.007862518252
6	40258	391.590691539301	0.007904245709
6	40263	391.662531746962	0.007939208348
6	40268	391.737142670398	0.007976298997
6	40275	391.759013846138	0.007987220447
6	40278	391.767004713718	0.013028257354
6	40283	391.845359220347	0.008029364533
6	40288	391.886057153728	0.008049678013
6	40293	391.936517414225	0.008075680665
6	40298	391.949918799662	0.008082207597
6	40305	391.971130900459	0.008093421205
6	40308	391.979228066451	0.009816801956
6	40313	391.987392127767	0.008100914246
6	40350	392.408321445554	0.352955881563
6	40353	392.416646849931	0.328425969162
6	40356	392.424977208136	0.324870023462
6	40359	392.433311533651	0.302941229728
6	40362	392.44165082362	0.276541924711
6	40365	392.449994089413	0.267433990804
6	40368	392.458342330319	0.238444669526
6	40371	392.46669455559	0.202043881809
6	40374	392.475051766669	0.198406821314
6	40377	392.483412970682	0.206497414279
6	40380	392.491779171232	0.180974211129
6	40385	392.500149373313	0.169586967496
6	40388	392.508524582693	0.175248875929
6	40391	392.516903802229	0.131270490052
6	40394	392.525288039862	0.139651104884
6	40397	392.533677301607	0.14672969434
6	40402	392.542070586979	0.048975485861
6	40405	392.550468907315	0.014406274904
6	40410	392.571329564677	0.008409418549
6	40415	392.594960815465	0.008422572494
6	40420	392.714010176662	0.008487935007
6	40425	392.784936904575	0.008528265107
6	40430	392.819245100019	0.008547008547
6	40435	392.831191020437	0.008554319932
6	40440	392.859409989026	0.008570029383
6	40445	392.945639826578	0.008619628125
6	40450	392.963191996516	0.008629191321
6	40457	392.974784369556	0.008636644047
6	40460	392.983425278086	0.013016597755
6	40465	393.025704276279	0.008665511265
6	40470	393.04424607895	0.008676251859
6	40475	393.055287425576	0.008682709005
6	40480	393.10220020875	0.008710801394
6	40486	393.141829605085	0.00872600349
6	40491	393.213385575938	0.008342271481
6	40496	393.245317821229	0.008181393174
6	40501	393.284047196438	0.007994518045
6	40506	393.296663450594	0.007935608208
6	40511	393.367342729185	0.007621121394
6	40517	393.411067197666	0.007533362032
6	40522	393.419648780523	0.007530930608
6	40527	393.43212251253	0.00752688172
6	40532	393.475871815466	0.007513954487
6	40537	393.511412030671	0.00750348376
6	40542	393.618488988672	0.007470651014
6	40547	393.715656667619	0.007442058261
6	40552	393.727945196025	0.007438104346
6	40557	393.82765523364	0.007408975445
6	40562	393.840568414131	0.007405056596
6	40567	393.892656695002	0.007389422569
6	40572	393.961638668213	0.007369196758
6	40577	393.992934867156	0.007360672976
6	40596	394.40724187875	0.338086914402
6	40601	394.414481510563	0.289985728852
6	40604	394.421719645192	0.28296983548
6	40607	394.428955535206	0.207095178117
6	40612	394.436189181997	0.194187659545
6	40615	394.443420586956	0.123031027288
6	40618	394.450650498131	0.080308642898
6	40623	394.457878169788	0.047788026761
6	40626	394.465103603314	0.029602699257
6	40629	394.472327545522	0.018461458954
6	40634	394.509988628554	0.007212776919
6	40639	394.563595325408	0.007197943445
6	40646	394.59788734728	0.00718833436
6	40649	394.605074205596	0.013416585357
6	40654	394.673109274117	0.007167724759
6	40659	394.846384288943	0.007120333638
6	40666	394.940751525199	0.007983576642
6	40671	394.960759443602	0.007989955485
6	40676	395.060482106071	0.008021083992
6	40681	395.087514247741	0.008030285649
6	40686	395.134805347529	0.008045052293
6	40691	395.174513445573	0.008058017728
6	40696	395.221941139123	0.008072886634
6	40701	395.285163444892	0.008093421205
6	40706	395.315032573546	0.008102789675
6	40713	395.323859512432	0.008105604447
6	40716	395.331967933607	0.01481390167
6	40721	395.348837498509	0.008114060508
6	40726	395.366618371693	0.008119707691
6	40735	395.3858263686	0.008125362739
6	40738	395.393954561819	0.012962710553
6	40741	395.40208558749	0.018214769793
6	40746	395.420801083276	0.008136696501
6	40751	395.451056473052	0.008147113594
6	40759	395.545688426323	0.008094357077
6	40762	395.553778106203	0.011580421427
6	40767	395.595675792765	0.008061729817
6	40772	395.702526809784	0.007992692396
6	40777	395.758768981742	0.007956353717
6	40782	395.796461384649	0.007932011331
6	40787	395.806868335598	0.007925724638
6	40792	395.89194932765	0.007872244714
6	40797	395.907126999883	0.007862518252
6	40802	395.95236056105	0.007834359261
6	40807	395.961259758864	0.00782910189
6	40829	396.408371203061	0.317676022322
6	40832	396.416754436594	0.233582804029
6	40836	396.42515074222	0.237716074133
6	40839	396.433546040853	0.229664427685
6	40842	396.441932287409	0.172209320077
6	40845	396.450309501387	0.139272452145
6	40850	396.458677702224	0.090241594618
6	40855	396.467036909294	0.090993997051
6	40858	396.475388138118	0.020058534189
6	40861	396.483730409599	0.021781979208
6	40866	396.512795921158	0.008311564949
6	40871	396.534127861415	0.008289909995
6	40876	396.552046865287	0.008271298594
6	40881	396.572075659714	0.008249852681
6	40886	396.590787566858	0.008231420508
6	40891	396.610705661974	0.008211143695
6	40896	396.719888874475	0.008100914246
6	40901	396.765775394698	0.008056162965
6	40906	396.787640596537	0.008034894399
6	40911	396.806611341639	0.008016491067
6	40916	396.890661526489	0.007935608208
6	40921	396.963801710486	0.007866052365
6	40928	397.03633533833	0.007799442897
6	40931	397.044126967894	0.010838669452
6	40936	397.076726082286	0.007762253271
6	40941	397.096344317536	0.007744219493
6	40946	397.217800154054	0.007636085961
6	40952	397.273098707197	0.007623611414
6	40957	397.291009174783	0.00764609503
6	40966	397.337249640908	0.007704160247
6	40969	397.344963139531	0.015089631148
6	40972	397.352686851326	0.01644918847
6	40977	397.414928899467	0.007803790412
6	40982	397.44391042604	0.007841380083
6	40987	397.516369373498	0.007938308006
6	40992	397.53489055496	0.007962689114
6	40997	397.545804870949	0.007978117164
6	41002	397.595839671053	0.008046901943
6	41009	397.680508388036	0.008165169719
6	41012	397.688685002917	0.009386136082
6	41017	397.785561346177	0.008317490494
6	41022	397.841163142471	0.008400336013
6	41027	397.894759841677	0.008481764207
6	41032	397.925973857078	0.008530343651
6	41037	397.962679915787	0.008587903325
6	41042	397.978776871324	0.008613264427
6	41066	398.40849823965	0.388828332097
6	41069	398.416992354442	0.328516334481
6	41072	398.425482348378	0.286360920266
6	41075	398.433967196863	0.284438572587
6	41078	398.442447933476	0.198411221118
6	41081	398.4509245622	0.198630086185
6	41084	398.459397087012	0.194077445214
6	41087	398.46786448752	0.201771092961
6	41090	398.476327793045	0.085785367239
6	41095	398.497766716103	0.008452064719
6	41100	398.647358941085	0.008376211559
6	41105	398.681241619693	0.00835920707
6	41110	398.693661851348	0.008353221957
6	41117	398.730001447506	0.008335317933
6	41122	398.738331805711	0.01110381884
6	41125	398.746658200382	0.013335241441
6	41132	398.797605034318	0.00830170778
6	41137	398.805901822276	0.010896584953
6	41140	398.814194678573	0.013197790395
6	41145	398.829589895129	0.008285984848
6	41150	398.843904271716	0.008278145695
6	41155	398.880194039344	0.008260561718
6	41160	398.889155735762	0.008256664308
6	41165	398.949469876805	0.008226583617
6	41170	399.047130830468	0.008179481187
6	41175	399.081699061986	0.008163265306
6	41180	399.201440592538	0.008106543138
6	41185	399.290456883512	0.008064516129
6	41190	399.309240835092	0.008055235903
6	41195	399.332922586941	0.008045052293
6	41202	399.353063569417	0.008034894399
6	41205	399.361094776393	0.014641601047
6	41210	399.38567700506	0.008020164986
6	41217	399.413433721354	0.008007320979
6	41222	399.421437380169	0.008699770896
6	41225	399.429437380169	0.012258066684
6	41230	399.501081409796	0.007967220578
6	41235	399.520506765377	0.007958162801
6	41240	399.558571163875	0.007941009643
6	41245	399.768980362387	0.007846653963
6	41250	399.786572815645	0.007839623698
6	41255	399.883899582175	0.007796836712
6	41260	399.916765573108	0.007782101167
6	41265	399.93024872915	0.007776049767
6	41270	399.97515384636	0.007757092199
6	41275	399.998720780459	0.007746790615

