file 10053230 1613502082                                        
version 2
run Exponential-capacity-2-20210216-20:01:20-7008
attr configname Exponential-capacity
attr datetime 20210216-20:01:20
attr experiment Exponential-capacity
attr inifile aerocom.ini
attr iterationvars "$0=9, $1=0.7"
attr iterationvarsf 9,0.7-
attr measurement "$0=9, $1=0.7"
attr network Aerocom
attr processid 7008
attr repetition 0
attr replication #0
attr resultdir results
attr runnumber 2
attr seedset 0
param **.t 1s
param **.k 9ms
param **.X 50ms
param **.m 0.7s
param **.tDistribution "\"exponential\""
param **.operationMode 0
param **.s "70 byte"
param **.dimPoolMax 10000
param **.dimPoolMin 8000
param **.nDL 10
param **.nA 1
param **.DLMaxCapacity 0
param **.trasmitting false

vector 0 Aerocom.aircraft[0].packetGenerator arrivalTime:vector ETV
attr "" ""
attr source computeArrivalTime
vector 1 Aerocom.aircraft[0].linkSelector responseTime:vector ETV
attr "" ""
attr source computeResponseTime
vector 2 Aerocom.aircraft[0].linkSelector waitingTime:vector ETV
attr "" ""
attr source computeWaitingTime
vector 3 Aerocom.aircraft[0].linkSelector queueLength:vector ETV
attr "" ""
attr source computeQueueLength
vector 4 Aerocom.aircraft[0].dataLink[8] actualCapacity:vector ETV
attr "" ""
attr source computeActualCapacity
vector 5 Aerocom.aircraft[0].linkSelector serviceTime:vector ETV
attr "" ""
attr source computeServiceTime
vector 6 Aerocom.aircraft[0].dataLink[4] tDistribution:vector ETV
attr "" ""
attr source computeTDistribution
vector 7 Aerocom.aircraft[0].dataLink[5] tDistribution:vector ETV
attr "" ""
attr source computeTDistribution
vector 8 Aerocom.aircraft[0].dataLink[0] tDistribution:vector ETV
attr "" ""
attr source computeTDistribution
vector 9 Aerocom.aircraft[0].dataLink[0] actualCapacity:vector ETV
attr "" ""
attr source computeActualCapacity
vector 10 Aerocom.aircraft[0].dataLink[1] actualCapacity:vector ETV
attr "" ""
attr source computeActualCapacity
vector 11 Aerocom.aircraft[0].dataLink[2] actualCapacity:vector ETV
attr "" ""
attr source computeActualCapacity
vector 12 Aerocom.aircraft[0].dataLink[3] actualCapacity:vector ETV
attr "" ""
attr source computeActualCapacity
vector 13 Aerocom.aircraft[0].dataLink[4] actualCapacity:vector ETV
attr "" ""
attr source computeActualCapacity
vector 14 Aerocom.aircraft[0].dataLink[5] actualCapacity:vector ETV
attr "" ""
attr source computeActualCapacity
vector 15 Aerocom.aircraft[0].dataLink[6] actualCapacity:vector ETV
attr "" ""
attr source computeActualCapacity
vector 16 Aerocom.aircraft[0].dataLink[7] actualCapacity:vector ETV
attr "" ""
attr source computeActualCapacity
vector 17 Aerocom.aircraft[0].dataLink[9] actualCapacity:vector ETV
attr "" ""
attr source computeActualCapacity
vector 18 Aerocom.aircraft[0].dataLink[3] tDistribution:vector ETV
attr "" ""
attr source computeTDistribution
vector 19 Aerocom.aircraft[0].dataLink[8] tDistribution:vector ETV
attr "" ""
attr source computeTDistribution
vector 20 Aerocom.aircraft[0].dataLink[9] tDistribution:vector ETV
attr "" ""
attr source computeTDistribution
vector 21 Aerocom.aircraft[0].dataLink[6] tDistribution:vector ETV
attr "" ""
attr source computeTDistribution
vector 22 Aerocom.aircraft[0].dataLink[1] tDistribution:vector ETV
attr "" ""
attr source computeTDistribution
vector 23 Aerocom.aircraft[0].dataLink[7] tDistribution:vector ETV
attr "" ""
attr source computeTDistribution
vector 24 Aerocom.aircraft[0].dataLink[2] tDistribution:vector ETV
attr "" ""
attr source computeTDistribution
0	3580 1341943 6130 194460 10.005231214764 301.895187569655 32768 3.6099e-008 0.096500924816 291.90165072413 5.2073499154391
1	1345523 1342124 6132 194462 10.006276113524 301.896398126661 32768 0.007005604484 0.194100559182 575.86155655817 21.990446025856
2	2687647 1200427 6132 194462 10.006276113524 301.896398126661 32768 0 0.186919598985 335.35757256257 15.275615411835
3	3888074 919644 6132 194462 10.006276113524 301.896398126661 32768 0 25 37381 226577
5	4807718 1472078 6132 194462 10.006276113524 301.896398126661 32768 0.0070056044835869 0.0087260034904014 240.51515217299 1.7678625915275
0	6279796 446673 194468 256068 301.906881938898 399.984749715246 10690 2.075485e-006 0.093155895855 98.130373617798 1.8051015975744
1	6726469 446769 194465 256073 301.903745665236 399.998728699844 10692 0.007003501751 0.142705674422 173.8702214404 5.5222256075451
2	7173238 398489 194465 256070 301.903745665236 399.991450679466 10691 0 0.135402596696 95.319995003521 3.5459504050404
3	7571727 308811 194465 256070 301.903745665236 399.991450679466 10691 0 16 10286 50366
4	7880538 115385 6132 255945 10.006276113524 399.7 3894 8035 9995 36836128 349203610086
5	7995923 489111 194465 256070 301.903745665236 399.991450679466 10691 0.0070035017508754 0.0087205680827208 78.525725260318 0.57757019330561
6	8485034 19208 6216 255820 10.195530479815 399.531824074835 448 0.00046858062143858 4.5969873950114 392.60944509323 663.24396395861
7	8504242 15940 6237 255264 10.231100016177 398.599861515051 373 0.0024855087139075 5.8553159328738 390.84022742546 802.17398724391
8	8520182 17771 6318 255282 10.427056730335 398.62556036574 414 0.004703906220746 5.6853850636561 391.58372694686 721.55513685387
9	8537953 194248 6368 255945 10.5 399.7 6420 8011 9989 60932826 579209085124
10	8732201 157517 6368 255945 10.5 399.7 5076 8069 9962 48306141 460300930165
11	8889718 143190 6368 255945 10.5 399.7 4656 8018 9982 44115948 418798869910
12	9032908 197691 6368 255945 10.5 399.7 6306 8044 9971 60169313 574964880505
13	9230599 121459 6368 255945 10.5 399.7 3942 8026 9980 37322755 354152459841
14	9352058 152759 6368 255945 10.5 399.7 4918 8027 9986 46555189 441414422605
15	9504817 136900 6368 256070 10.5 399.991450679466 4422 8042 9982 42103991 401467816459
16	9641717 156486 6368 255945 10.5 399.7 5039 8026 9987 47639662 451264265958
17	9798203 133534 6368 255945 10.5 399.7 4356 8022 9938 41111158 388756161308
18	9931737 18199 6410 255749 10.589143172582 399.384120383163 415 0.0018844320688851 5.4400638357789 389.86273410498 710.29195188133
19	9949936 17690 6724 255601 11.019995833196 399.139608699086 402 0.00012359181449871 7.7512023953318 390.10962708975 845.86750006598
20	9967626 16991 6831 254834 11.167216926612 397.8417113111 387 0.0025859150943617 6.5044674794512 388.92988761984 770.5822460086
21	9984617 16457 7170 254960 11.770581468296 398.054009604438 375 0.0015419235172678 7.2888921875472 388.51856274567 827.55298216986
22	10001074 17181 7697 254401 12.476454100424 396.963073561627 391 0.0027066362142686 6.3651571449549 387.88865806586 753.37949136275
23	10018255 18368 8362 255257 13.481960993213 398.584954438043 418 0.00038836613746553 5.4284265520006 387.88024916169 747.54762606095
24	10036623 16605 9041 255283 14.694997286335 398.628191179598 379 0.00090222306082665 5.2881247296081 386.67360661758 751.94746314648

