file 1935914 1613479586                                         
version 2
run Exponential-capacity-44-20210216-13:46:25-23500
attr configname Exponential-capacity
attr datetime 20210216-13:46:25
attr experiment Exponential-capacity
attr inifile aerocom.ini
attr iterationvars "$0=2, $1=50, $2=4, $3=0.5"
attr iterationvarsf 2,50,4,0.5-
attr measurement "$0=2, $1=50, $2=4, $3=0.5"
attr network Aerocom
attr processid 23500
attr repetition 2
attr replication #2
attr resultdir results
attr runnumber 44
attr seedset 2
param **.t 2s
param **.k 50ms
param **.X 4s
param **.m 0.5s
param **.tDistribution "\"exponential\""
param **.operationMode 0
param **.s "70 byte"
param **.dimPoolMax 10000
param **.dimPoolMin 8000
param **.nDL 10
param **.nA 1
param **.DLMaxCapacity 0
param **.trasmitting false

vector 0 Aerocom.aircraft[0].dataLink[0] actualCapacity:vector ETV
attr "" ""
attr source computeActualCapacity
vector 1 Aerocom.aircraft[0].dataLink[1] actualCapacity:vector ETV
attr "" ""
attr source computeActualCapacity
vector 2 Aerocom.aircraft[0].dataLink[2] actualCapacity:vector ETV
attr "" ""
attr source computeActualCapacity
vector 3 Aerocom.aircraft[0].dataLink[3] actualCapacity:vector ETV
attr "" ""
attr source computeActualCapacity
vector 4 Aerocom.aircraft[0].dataLink[4] actualCapacity:vector ETV
attr "" ""
attr source computeActualCapacity
vector 5 Aerocom.aircraft[0].dataLink[5] actualCapacity:vector ETV
attr "" ""
attr source computeActualCapacity
vector 6 Aerocom.aircraft[0].dataLink[6] actualCapacity:vector ETV
attr "" ""
attr source computeActualCapacity
vector 7 Aerocom.aircraft[0].dataLink[7] actualCapacity:vector ETV
attr "" ""
attr source computeActualCapacity
vector 8 Aerocom.aircraft[0].dataLink[8] actualCapacity:vector ETV
attr "" ""
attr source computeActualCapacity
vector 9 Aerocom.aircraft[0].dataLink[9] actualCapacity:vector ETV
attr "" ""
attr source computeActualCapacity
vector 10 Aerocom.aircraft[0].packetGenerator arrivalTime:vector ETV
attr "" ""
attr source computeArrivalTime
vector 11 Aerocom.aircraft[0].linkSelector waitingTime:vector ETV
attr "" ""
attr source computeWaitingTime
vector 12 Aerocom.aircraft[0].linkSelector queueLength:vector ETV
attr "" ""
attr source computeQueueLength
vector 13 Aerocom.aircraft[0].linkSelector serviceTime:vector ETV
attr "" ""
attr source computeServiceTime
vector 14 Aerocom.aircraft[0].linkSelector responseTime:vector ETV
attr "" ""
attr source computeResponseTime
vector 15 Aerocom.aircraft[0].dataLink[0] tDistribution:vector ETV
attr "" ""
attr source computeTDistribution
vector 16 Aerocom.aircraft[0].dataLink[5] tDistribution:vector ETV
attr "" ""
attr source computeTDistribution
vector 17 Aerocom.aircraft[0].dataLink[2] tDistribution:vector ETV
attr "" ""
attr source computeTDistribution
vector 18 Aerocom.aircraft[0].dataLink[9] tDistribution:vector ETV
attr "" ""
attr source computeTDistribution
vector 19 Aerocom.aircraft[0].dataLink[8] tDistribution:vector ETV
attr "" ""
attr source computeTDistribution
vector 20 Aerocom.aircraft[0].dataLink[1] tDistribution:vector ETV
attr "" ""
attr source computeTDistribution
vector 21 Aerocom.aircraft[0].dataLink[6] tDistribution:vector ETV
attr "" ""
attr source computeTDistribution
vector 22 Aerocom.aircraft[0].dataLink[3] tDistribution:vector ETV
attr "" ""
attr source computeTDistribution
vector 23 Aerocom.aircraft[0].dataLink[7] tDistribution:vector ETV
attr "" ""
attr source computeTDistribution
vector 24 Aerocom.aircraft[0].dataLink[4] tDistribution:vector ETV
attr "" ""
attr source computeTDistribution
0	3614 36438 1069 43208 10 400 1507 8011 9996 14070975 131777908137
1	40052 32390 1069 43208 10 400 1375 8065 9972 12781175 119146227587
2	72442 29363 1069 43208 10 400 1277 8019 9972 11872045 110681397035
3	101805 34766 1069 43208 10 400 1461 8035 9933 13626611 127489369101
4	136571 30309 1069 43208 10 400 1308 8050 9948 12122658 112669087476
5	166880 42509 1069 43208 10 400 1709 8009 9958 16014102 150445453652
6	209389 57589 1069 43208 10 400 2224 8014 9981 21075034 200139389356
7	266978 41717 1069 43208 10 400 1683 8052 9969 15723391 147258398987
8	308695 35224 1069 43208 10 400 1479 8018 9973 13852157 130061710755
9	343919 33993 1069 43208 10 400 1430 8064 9975 13252143 123142176117
10	377912 315868 1071 43199 10.009046581726 399.97097773048 7643 1.717179e-006 0.55693822094 390.06880740153 39.713779780724
11	693780 283326 1072 43201 10.009046581726 399.972579627325 7643 0 4.17177105917 4447.0405633216 7026.7980362437
12	977106 217123 1072 43201 10.009046581726 399.972579627325 7643 0 84 85506 2699928
13	1194229 343044 1072 43201 10.009046581726 399.972579627325 7643 0.0070028011204482 0.0086580086580087 55.303720562624 0.40034542938033
14	1537273 316008 1073 43204 10.016112292839 399.979711568232 7643 0.007014730935 4.179009193799 4502.344283884 7091.5207988068
15	1853281 7189 1081 43196 10.03811018219 399.878397220879 168 0.0036094664976787 17.797918339339 389.98354667749 1937.7865044186
16	1860470 8531 1092 43030 10.07210134922 398.753699240805 200 0.011384425402896 10.683453574358 394.16238826281 1446.9060972634
17	1869001 8728 1098 43084 10.156399251049 399.320729344979 204 0.0064162123800635 8.0914965480683 392.4426179407 1374.3217599403
18	1877729 8523 1171 42787 10.819748911723 396.842962390983 199 0.0071136829881651 9.1989595010915 389.72029710402 1442.2024279013
19	1886252 8667 1177 43138 10.883653582273 399.55147264292 203 0.0018564521835412 10.292266746282 390.76148241442 1466.2212869651
20	1894919 8624 1312 43002 12.301861684204 398.479601218204 202 0.023568902198615 11.397805116473 391.6546106686 1444.1664301061
21	1903543 7521 1383 42921 13.016051670226 398.145200931154 176 0.016686175152747 15.414290325557 387.40772536497 1777.326920931
22	1911064 8958 1411 43195 13.464600362358 399.878088104899 209 0.0043568394680401 11.699003843561 386.84841633071 1536.7232396436
23	1920022 7836 1474 42839 14.88013127667 397.630326923909 183 0.0014883428637058 11.688337911536 387.76154702311 1680.6119957314
24	1927858 8054 1904 43139 17.359049821192 399.590343441671 188 0.0023583069883165 11.802727022865 383.97632185082 1559.2537441288

