version 2
run Exponential-capacity-17-20210216-20:01:18-7340
attr configname Exponential-capacity
attr datetime 20210216-20:01:18
attr experiment Exponential-capacity
attr inifile aerocom.ini
attr iterationvars "$0=60, $1=0.7"
attr iterationvarsf 60,0.7-
attr measurement "$0=60, $1=0.7"
attr network Aerocom
attr processid 7340
attr repetition 0
attr replication #0
attr resultdir results
attr runnumber 17
attr seedset 0
param **.t 1s
param **.k 60ms
param **.X 50ms
param **.m 0.7s
param **.tDistribution "\"exponential\""
param **.operationMode 0
param **.s "70 byte"
param **.dimPoolMax 10000
param **.dimPoolMin 8000
param **.nDL 10
param **.nA 1
param **.DLMaxCapacity 0
param **.trasmitting false

vector 0 Aerocom.aircraft[0].packetGenerator arrivalTime:vector ETV
attr "" ""
attr source computeArrivalTime
vector 1 Aerocom.aircraft[0].linkSelector waitingTime:vector ETV
attr "" ""
attr source computeWaitingTime
vector 2 Aerocom.aircraft[0].linkSelector queueLength:vector ETV
attr "" ""
attr source computeQueueLength
vector 3 Aerocom.aircraft[0].dataLink[8] actualCapacity:vector ETV
attr "" ""
attr source computeActualCapacity
vector 4 Aerocom.aircraft[0].linkSelector serviceTime:vector ETV
attr "" ""
attr source computeServiceTime
vector 5 Aerocom.aircraft[0].linkSelector responseTime:vector ETV
attr "" ""
attr source computeResponseTime
vector 6 Aerocom.aircraft[0].dataLink[4] tDistribution:vector ETV
attr "" ""
attr source computeTDistribution
vector 7 Aerocom.aircraft[0].dataLink[5] tDistribution:vector ETV
attr "" ""
attr source computeTDistribution
vector 8 Aerocom.aircraft[0].dataLink[0] tDistribution:vector ETV
attr "" ""
attr source computeTDistribution
vector 9 Aerocom.aircraft[0].dataLink[0] actualCapacity:vector ETV
attr "" ""
attr source computeActualCapacity
vector 10 Aerocom.aircraft[0].dataLink[1] actualCapacity:vector ETV
attr "" ""
attr source computeActualCapacity
vector 11 Aerocom.aircraft[0].dataLink[2] actualCapacity:vector ETV
attr "" ""
attr source computeActualCapacity
vector 12 Aerocom.aircraft[0].dataLink[3] actualCapacity:vector ETV
attr "" ""
attr source computeActualCapacity
vector 13 Aerocom.aircraft[0].dataLink[4] actualCapacity:vector ETV
attr "" ""
attr source computeActualCapacity
vector 14 Aerocom.aircraft[0].dataLink[5] actualCapacity:vector ETV
attr "" ""
attr source computeActualCapacity
vector 15 Aerocom.aircraft[0].dataLink[6] actualCapacity:vector ETV
attr "" ""
attr source computeActualCapacity
vector 16 Aerocom.aircraft[0].dataLink[7] actualCapacity:vector ETV
attr "" ""
attr source computeActualCapacity
vector 17 Aerocom.aircraft[0].dataLink[9] actualCapacity:vector ETV
attr "" ""
attr source computeActualCapacity
vector 18 Aerocom.aircraft[0].dataLink[3] tDistribution:vector ETV
attr "" ""
attr source computeTDistribution
vector 19 Aerocom.aircraft[0].dataLink[8] tDistribution:vector ETV
attr "" ""
attr source computeTDistribution
vector 20 Aerocom.aircraft[0].dataLink[9] tDistribution:vector ETV
attr "" ""
attr source computeTDistribution
vector 21 Aerocom.aircraft[0].dataLink[6] tDistribution:vector ETV
attr "" ""
attr source computeTDistribution
vector 22 Aerocom.aircraft[0].dataLink[1] tDistribution:vector ETV
attr "" ""
attr source computeTDistribution
vector 23 Aerocom.aircraft[0].dataLink[7] tDistribution:vector ETV
attr "" ""
attr source computeTDistribution
vector 24 Aerocom.aircraft[0].dataLink[2] tDistribution:vector ETV
attr "" ""
attr source computeTDistribution
0	945	10.002239996404	0.032093062545
0	950	10.034333058949	0.150234706985
0	955	10.184567765934	0.003977844089
0	957	10.188545610023	0.014663726885
0	966	10.203209336908	0.070751371624
0	972	10.273960708532	0.049970610964
0	977	10.323931319496	0.050165851918
0	982	10.374097171414	0.12019443135
0	988	10.494291602764	0.018504890406
0	994	10.51279649317	0.042674876233
0	997	10.555471369403	0.044445537027
0	1006	10.59991690643	0.149134941419
0	1014	10.749051847849	0.005919018505
0	1016	10.754970866354	0.152418270478
0	1027	10.907389136832	0.051473738464
0	1032	10.958862875296	0.00520622894
0	1034	10.964069104236	0.158955355721
0	1046	11.123024459957	0.019520424932
0	1051	11.142544884889	0.023013612846
0	1056	11.165558497735	0.00056404504
0	1058	11.166122542775	0.066050754605
0	1072	11.23217329738	0.11083965906
0	1078	11.34301295644	0.008479842814
0	1083	11.351492799254	0.062506839251
0	1088	11.413999638505	0.075596028607
0	1093	11.489595667112	0.110476948289
0	1099	11.600072615401	0.020499250022
0	1104	11.620571865423	0.018451063426
0	1110	11.639022928849	0.012141026314
0	1115	11.651163955163	0.030432007395
0	1120	11.681595962558	0.052987742518
0	1126	11.734583705076	0.048287843988
0	1132	11.782871549064	0.001218747528
0	1134	11.784090296592	0.010815135119
0	1139	11.794905431711	0.105944464345
0	1150	11.900849896056	0.027703853763
0	1152	11.928553749819	0.00028239243
0	1154	11.928836142249	0.009500490374
0	1156	11.938336632623	0.067958048518
0	1171	12.006294681141	0.050584981929
0	1177	12.05687966307	0.018883299651
0	1182	12.075762962721	0.072990519206
0	1188	12.148753481927	0.079725472425
0	1193	12.228478954352	0.020420804294
0	1199	12.248899758646	0.196508590663
0	1206	12.445408349309	0.034074249209
0	1213	12.479482598518	0.01716125835
0	1219	12.496643856868	0.084661464558
0	1225	12.581305321426	0.05150357807
0	1231	12.632808899496	0.030260628395
0	1237	12.663069527891	0.053795452247
0	1242	12.716864980138	0.135824014552
0	1247	12.85268899469	0.050953248694
0	1252	12.903642243384	0.061119523801
0	1257	12.964761767185	0.015145199573
0	1262	12.979906966758	0.133290413908
0	1268	13.113197380666	0.183136899413
0	1275	13.296334280079	0.068376477812
0	1282	13.364710757891	0.035557441647
0	1287	13.400268199538	0.03578276366
0	1293	13.436050963198	0.112407592791
0	1301	13.548458555989	0.230580394995
0	1310	13.779038950984	0.072134314035
0	1317	13.851173265019	0.007411598842
0	1319	13.858584863861	0.021181207996
0	1327	13.879766071857	0.087409113514
0	1335	13.967175185371	0.100855332273
0	1343	14.068030517644	0.031843349797
0	1350	14.099873867441	0.030301124865
0	1355	14.130174992306	0.067516921011
0	1360	14.197691913317	0.127769963764
0	1367	14.325461877081	0.017244628564
0	1372	14.342706505645	0.05223214958
0	1377	14.394938655225	0.022544330544
0	1383	14.417482985769	0.128089826999
0	1388	14.545572812768	0.201862227183
0	1397	14.747435039951	0.070762976019
0	1403	14.81819801597	0.053271684626
0	1409	14.871469700596	0.077514556128
0	1414	14.948984256724	0.064670093048
0	1420	15.013654349772	0.041747967654
0	1425	15.055402317426	0.045712066278
0	1430	15.101114383704	0.187528101459
0	1438	15.288642485163	0.015723434501
0	1444	15.304365919664	0.061967820639
0	1450	15.366333740303	0.030138647896
0	1455	15.396472388199	0.033083759408
0	1462	15.429556147607	0.05786721393
0	1468	15.487423361537	0.055944172824
0	1474	15.543367534361	0.038646282499
0	1482	15.58201381686	0.001162786881
0	1484	15.583176603741	0.038107662938
0	1493	15.621284266679	0.021535632952
0	1499	15.642819899631	0.075542611036
0	1508	15.718362510667	0.064759211919
0	1515	15.783121722586	0.020379883955
0	1520	15.803501606541	0.020555977482
0	1525	15.824057584023	0.029018141195
0	1531	15.853075725218	0.057742503346
0	1539	15.910818228564	0.082978752392
0	1545	15.993796980956	0.033597664204
0	1551	16.02739464516	0.126446856297
0	1561	16.153841501457	0.008734438707
0	1566	16.162575940164	0.00651282591
0	1568	16.169088766074	0.021253447935
0	1576	16.190342214009	0.005815365275
0	1578	16.196157579284	0.050633308355
0	1586	16.246790887639	0.026221680826
0	1592	16.273012568465	0.053623744698
0	1598	16.326636313163	0.048153119146
0	1603	16.374789432309	0.051244784139
0	1609	16.426034216448	0.002052205101
0	1611	16.428086421549	0.063540563123
0	1620	16.491626984672	0.208352128757
0	1628	16.699979113429	0.06335097652
0	1634	16.763330089949	0.023227805529
0	1639	16.786557895478	0.033876630067
0	1645	16.820434525545	0.015004889699
0	1647	16.835439415244	0.136118039562
0	1658	16.971557454806	0.009137617515
0	1663	16.980695072321	0.027490373037
0	1668	17.008185445358	0.006139236891
0	1670	17.014324682249	0.034347693086
0	1678	17.048672375335	0.248268585631
0	1687	17.296940960966	0.133494879434
0	1695	17.4304358404	0.018093954793
0	1700	17.448529795193	0.098453854676
0	1707	17.546983649869	0.046204611573
0	1713	17.593188261442	0.07302116972
0	1718	17.666209431162	0.035644409899
0	1723	17.701853841061	0.006336758618
0	1725	17.708190599679	0.006292910136
0	1730	17.714483509815	0.151156927805
0	1739	17.86564043762	0.026060739357
0	1744	17.891701176977	0.075156451495
0	1749	17.966857628472	0.038007757063
0	1755	18.004865385535	0.405923431196
0	1765	18.410788816731	0.110383967105
0	1771	18.521172783836	0.009712205203
0	1776	18.530884989039	0.141010637385
0	1783	18.671895626424	0.121554529026
0	1789	18.79345015545	0.002296974773
0	1791	18.795747130223	0.010639534509
0	1796	18.806386664732	0.042595075633
0	1804	18.848981740365	0.057357985435
0	1810	18.9063397258	0.010952316113
0	1812	18.917292041913	0.007931022577
0	1814	18.92522306449	0.090589407337
0	1827	19.015812471827	0.113035733195
0	1832	19.128848205022	0.120119189732
0	1837	19.248967394754	0.09880314608
0	1844	19.347770540834	0.031800172688
0	1849	19.379570713522	0.050512857704
0	1854	19.430083571226	0.009047460612
0	1859	19.439131031838	0.031372201805
0	1864	19.470503233643	0.002027207133
0	1866	19.472530440776	0.004300523059
0	1868	19.476830963835	0.242990810328
0	1884	19.719821774163	0.071726313977
0	1889	19.79154808814	0.028036353985
0	1894	19.819584442125	0.036257944311
0	1899	19.855842386436	0.032691427689
0	1904	19.888533814125	0.076820052229
0	1909	19.965353866354	0.003114753131
0	1911	19.968468619485	0.120766364172
0	1920	20.089234983657	0.027294710688
0	1925	20.116529694345	0.222597635514
0	1933	20.339127329859	0.00100606596
0	1935	20.340133395819	0.116194634249
0	1947	20.456328030068	0.01573975855
0	1952	20.472067788618	0.000706993915
0	1954	20.472774782533	0.086867644919
0	1964	20.559642427452	0.026775169231
0	1969	20.586417596683	0.173076705126
0	1975	20.759494301809	0.078557901841
0	1981	20.83805220365	0.083177481121
0	1987	20.921229684771	0.011297698513
0	1992	20.932527383284	0.02487675256
0	1997	20.957404135844	0.044167865999
0	2004	21.001572001843	0.04034763101
0	2007	21.041919632853	0.003352203173
0	2009	21.045271836026	0.02483873536
0	2018	21.070110571386	0.013388352486
0	2026	21.083498923872	0.011869770448
0	2031	21.09536869432	0.001121728225
0	2034	21.096490422545	0.011251137072
0	2039	21.107741559617	0.094704763326
0	2047	21.202446322943	0.037355840639
0	2052	21.239802163582	0.015210342309
0	2057	21.255012505891	0.124561863627
0	2064	21.379574369518	0.025419426081
0	2069	21.404993795599	0.173072657304
0	2074	21.578066452903	0.157933131753
0	2082	21.735999584656	0.056228323063
0	2088	21.792227907719	0.073127808201
0	2093	21.86535571592	0.054477841639
0	2099	21.919833557559	0.001941408279
0	2101	21.921774965838	0.091849873576
0	2111	22.013624839414	0.010797440493
0	2116	22.024422279907	0.041591986172
0	2121	22.066014266079	0.058288929486
0	2128	22.124303195565	0.003100974348
0	2130	22.127404169913	0.051655418201
0	2138	22.179059588114	0.072058254393
0	2143	22.251117842507	0.016300084221
0	2148	22.267417926728	0.29274797328
0	2156	22.560165900008	0.163280895355
0	2163	22.723446795363	0.018658068298
0	2170	22.742104863661	0.057109782453
0	2175	22.799214646114	0.068195789715
0	2180	22.867410435829	0.046024779274
0	2186	22.913435215103	0.119830318049
0	2191	23.033265533152	0.053482714615
0	2196	23.086748247767	0.083380623827
0	2203	23.170128871594	0.078587122282
0	2208	23.248715993876	0.200276060031
0	2214	23.448992053907	0.022433189754
0	2219	23.471425243661	0.048478803204
0	2224	23.519904046865	0.030471907361
0	2229	23.550375954226	0.014325172371
0	2235	23.564701126597	0.014131474405
0	2240	23.578832601002	0.015095916787
0	2245	23.593928517789	0.012361922909
0	2250	23.606290440698	0.014811556128
0	2255	23.621101996826	0.173344535514
0	2261	23.79444653234	0.050578726525
0	2267	23.845025258865	0.080720845994
0	2275	23.925746104859	0.036100739191
0	2281	23.96184684405	0.040454674178
0	2287	24.002301518228	0.210868720832
0	2295	24.21317023906	0.015480765836
0	2300	24.228651004896	0.068468274172
0	2307	24.297119279068	0.017610459115
0	2312	24.314729738183	0.0053492574
0	2314	24.320078995583	0.003586857775
0	2319	24.323665853358	0.003484341727
0	2321	24.327150195085	0.034193853918
0	2334	24.361344049003	0.040146823421
0	2343	24.401490872424	0.022420187664
0	2349	24.423911060088	0.127720205672
0	2359	24.55163126576	0.071511486219
0	2365	24.623142751979	0.22480167683
0	2374	24.847944428809	0.02846497742
0	2379	24.876409406229	0.057686374294
0	2384	24.934095780523	0.01187806412
0	2389	24.945973844643	0.046918543253
0	2394	24.992892387896	0.001499301199
0	2396	24.994391689095	0.115701608213
0	2408	25.110093297308	0.004177060264
0	2410	25.114270357572	0.081715903458
0	2419	25.19598626103	0.068252310332
0	2427	25.264238571362	0.039073843915
0	2435	25.303312415277	0.0362748731
0	2441	25.339587288377	0.067821332755
0	2448	25.407408621132	0.046147188066
0	2453	25.453555809198	0.056043619956
0	2461	25.509599429154	0.136190400947
0	2470	25.645789830101	0.075252196205
0	2478	25.721042026306	0.278379151582
0	2492	25.999421177888	0.038035801164
0	2497	26.037456979052	0.014669461323
0	2502	26.052126440375	0.036529974824
0	2508	26.088656415199	0.065274266017
0	2514	26.153930681216	0.14213509025
0	2522	26.296065771466	0.018336294109
0	2527	26.314402065575	0.008855761973
0	2532	26.323257827548	0.001252033117
0	2534	26.324509860665	0.015621084693
0	2542	26.340130945358	0.085223007335
0	2549	26.425353952693	0.128013797248
0	2554	26.553367749941	0.023141261643
0	2559	26.576509011584	0.140870625686
0	2567	26.71737963727	0.029018303249
0	2573	26.746397940519	0.062271004529
0	2580	26.808668945048	0.053250115709
0	2585	26.861919060757	0.023554381691
0	2591	26.885473442448	0.10668860021
0	2596	26.992162042658	0.04400206039
0	2602	27.036164103048	0.059490257574
0	2608	27.095654360622	3.321114e-006
0	2610	27.095657681736	0.123649274453
0	2619	27.219306956189	0.022425797629
0	2624	27.241732753818	0.019174479292
0	2629	27.26090723311	0.033250249743
0	2634	27.294157482853	0.09598316651
0	2643	27.390140649363	0.129945820852
0	2653	27.520086470215	0.012320866124
0	2658	27.532407336339	0.06834345904
0	2666	27.600750795379	0.183191080176
0	2673	27.783941875555	0.036542676763
0	2679	27.820484552318	0.069786797006
0	2687	27.890271349324	0.039630184785
0	2692	27.929901534109	0.01456310962
0	2697	27.944464643729	0.093279776269
0	2706	28.037744419998	0.176668816645
0	2713	28.214413236643	0.015638407763
0	2718	28.230051644406	0.078750479578
0	2724	28.308802123984	0.127364799237
0	2731	28.436166923221	0.017577087509
0	2736	28.45374401073	0.022585761091
0	2741	28.476329771821	0.014395411166
0	2746	28.490725182987	0.189425732485
0	2752	28.680150915472	0.043813659914
0	2758	28.723964575386	0.038291316336
0	2764	28.762255891722	0.001559864712
0	2766	28.763815756434	0.074601046677
0	2775	28.838416803111	0.013951501103
0	2782	28.852368304214	0.010012478474
0	2788	28.862380782688	0.033170302239
0	2795	28.895551084927	0.07865834209
0	2803	28.974209427017	0.028120588559
0	2808	29.002330015576	0.062352338195
0	2813	29.064682353771	0.037369758586
0	2818	29.102052112357	0.014515178686
0	2823	29.116567291043	0.019512961079
0	2828	29.136080252122	0.012381479616
0	2833	29.148461731738	0.053027139362
0	2838	29.2014888711	0.09888457039
0	2843	29.30037344149	0.119642352077
0	2851	29.420015793567	0.082480797228
0	2860	29.502496590795	0.007501955395
0	2862	29.50999854619	0.067407629973
0	2871	29.577406176163	0.043711430564
0	2877	29.621117606727	0.019451946809
0	2883	29.640569553536	0.008498522088
0	2888	29.649068075624	0.011535686451
0	2894	29.660603762075	0.075708760409
0	2901	29.736312522484	0.073139960711
0	2906	29.809452483195	0.030256795995
0	2911	29.83970927919	0.037322215145
0	2916	29.877031494335	0.050002694439
0	2921	29.927034188774	0.110115804176
0	2927	30.03714999295	0.012147525822
0	2932	30.049297518772	0.013754659512
0	2938	30.063052178284	0.009388546223
0	2944	30.072440724507	0.010816457975
0	2949	30.083257182482	0.040172435452
0	2956	30.123429617934	0.008000437396
0	2958	30.13143005533	0.02636732343
0	2964	30.15779737876	0.076825461239
0	2974	30.234622839999	0.169238156905
0	2981	30.403860996904	0.001855577494
0	2983	30.405716574398	0.086973286586
0	2992	30.492689860984	0.082460580865
0	2997	30.575150441849	0.08285778574
0	3003	30.658008227589	0.005830060702
0	3005	30.663838288291	0.140429517639
0	3015	30.80426780593	0.014711885559
0	3017	30.818979691489	0.005226514996
0	3019	30.824206206485	0.082998987969
0	3032	30.907205194454	0.04820350576
0	3037	30.955408700214	0.078937575498
0	3043	31.034346275712	0.052692904723
0	3049	31.087039180435	0.002801264619
0	3051	31.089840445054	0.196109784049
0	3062	31.285950229103	0.014079350955
0	3067	31.300029580058	0.020731175023
0	3072	31.320760755081	0.020289282891
0	3077	31.341050037972	0.016531676222
0	3082	31.357581714194	0.067855108751
0	3087	31.425436822945	0.006341230446
0	3089	31.431778053391	0.003906771887
0	3094	31.435684825278	0.000993965665
0	3096	31.436678790943	0.048668461334
0	3107	31.485347252277	0.159153510931
0	3115	31.644500763208	0.000556981463
0	3117	31.645057744671	0.066504585253
0	3128	31.711562329924	0.107399376269
0	3136	31.818961706193	0.092269722869
0	3142	31.911231429062	0.249358265734
0	3147	32.160589694796	0.019854592871
0	3152	32.180444287667	0.072941428402
0	3161	32.253385716069	0.052972832697
0	3166	32.306358548766	0.012026531705
0	3171	32.318385080471	0.003965520642
0	3173	32.322350601113	0.043094788806
0	3183	32.365445389919	0.039888464973
0	3189	32.405333854892	0.052113943888
0	3194	32.45744779878	0.227641426985
0	3202	32.685089225765	0.092940700749
0	3210	32.778029926514	0.125493394357
0	3216	32.903523320871	0.055956711316
0	3223	32.959480032187	0.024763792004
0	3228	32.984243824191	0.014784949333
0	3233	32.999028773524	0.195535258631
0	3241	33.194564032155	0.036436757317
0	3246	33.231000789472	0.01581462677
0	3251	33.246815416242	0.126653326463
0	3257	33.373468742705	0.178932040528
0	3263	33.552400783233	0.040668120123
0	3268	33.593068903356	0.170198411603
0	3277	33.763267314959	0.075434219734
0	3283	33.838701534693	0.096327525784
0	3291	33.935029060477	0.039950549198
0	3297	33.974979609675	0.059727818602
0	3304	34.034707428277	0.073972827782
0	3310	34.108680256059	0.124425687786
0	3318	34.233105943845	0.041366072271
0	3324	34.274472016116	0.020805198227
0	3330	34.295277214343	0.111685898579
0	3338	34.406963112922	0.113406101886
0	3344	34.520369214808	0.012965772996
0	3349	34.533334987804	0.057720715595
0	3357	34.591055703399	0.089054548959
0	3364	34.680110252358	0.00079951469
0	3366	34.680909767048	0.219579439846
0	3377	34.900489206894	0.025592148722
0	3382	34.926081355616	0.118964934276
0	3391	35.045046289892	0.009620045669
0	3394	35.054666335561	0.09096413579
0	3403	35.145630471351	0.240476979292
0	3410	35.386107450643	0.252111565575
0	3417	35.638219016218	0.039047840542
0	3422	35.67726685676	0.084040541818
0	3430	35.761307398578	0.041276608708
0	3437	35.802584007286	0.000243379279
0	3439	35.802827386565	0.061211225277
0	3448	35.864038611842	0.018839873884
0	3453	35.882878485726	0.027587479067
0	3458	35.910465964793	0.031708033698
0	3463	35.942173998491	0.008833502239
0	3469	35.95100750073	0.033540460199
0	3474	35.984547960929	0.103598002785
0	3479	36.088145963714	0.021215794516
0	3484	36.10936175823	0.012631997292
0	3489	36.121993755522	0.030762878558
0	3495	36.15275663408	0.04296271908
0	3500	36.19571935316	0.007714814237
0	3505	36.203434167397	0.015240682701
0	3511	36.218674850098	0.236857996054
0	3520	36.455532846152	0.006178101823
0	3522	36.461710947975	0.031264729265
0	3530	36.49297567724	0.118913420467
0	3537	36.611889097707	0.05052817817
0	3542	36.662417275877	0.216536460299
0	3552	36.878953736176	0.025259597883
0	3557	36.904213334059	0.194397778014
0	3565	37.098611112073	0.093317661621
0	3572	37.191928773694	0.142223254837
0	3579	37.334152028531	0.031797694756
0	3584	37.365949723287	0.08924578526
0	3592	37.455195508547	0.026708960364
0	3597	37.481904468911	0.024310972941
0	3602	37.506215441852	0.030599450031
0	3608	37.536814891883	0.005074769506
0	3611	37.541889661389	0.021557634308
0	3620	37.563447295697	0.031378059219
0	3627	37.594825354916	0.089557929852
0	3635	37.684383284768	0.015856227848
0	3641	37.700239512616	0.156394308139
0	3651	37.856633820755	0.008527530684
0	3656	37.865161351439	0.023610144667
0	3662	37.888771496106	0.003294442353
0	3664	37.892065938459	0.18329158674
0	3673	38.075357525199	0.077588871528
0	3678	38.152946396727	0.000842795475
0	3680	38.153789192202	0.000689595013
0	3682	38.154478787215	0.045745421053
0	3694	38.200224208268	0.08833224948
0	3699	38.288556457748	0.021794533134
0	3704	38.310350990882	0.009535990779
0	3709	38.319886981661	0.128663127871
0	3716	38.448550109532	0.004971736375
0	3718	38.453521845907	0.017310762621
0	3726	38.470832608528	0.005632472837
0	3728	38.476465081365	0.067882726056
0	3737	38.544347807421	0.066893245314
0	3744	38.611241052735	0.09977794684
0	3751	38.711018999575	0.016891441348
0	3756	38.727910440923	0.033953672498
0	3761	38.761864113421	0.032739462886
0	3768	38.794603576307	0.083692145476
0	3774	38.878295721783	0.048901099854
0	3780	38.927196821637	0.106177189393
0	3785	39.03337401103	0.118203453936
0	3790	39.151577464966	0.028588714956
0	3795	39.180166179922	0.077906738136
0	3804	39.258072918058	0.006092045036
0	3806	39.264164963094	0.018909601723
0	3814	39.283074564817	0.017754112395
0	3819	39.300828677212	0.008458073065
0	3825	39.309286750277	0.053779752301
0	3830	39.363066502578	0.003417991948
0	3832	39.366484494526	0.038830482243
0	3840	39.405314976769	0.021537679103
0	3845	39.426852655872	0.040158172319
0	3850	39.467010828191	0.018238293554
0	3855	39.485249121745	0.036806345376
0	3861	39.522055467121	0.036543867319
0	3866	39.55859933444	0.044614991507
0	3871	39.603214325947	0.068984483265
0	3876	39.672198809212	0.035005426262
0	3883	39.707204235474	0.07136977508
0	3889	39.778574010554	0.114890535459
0	3895	39.893464546013	0.020004200303
0	3902	39.913468746316	0.034090229025
0	3904	39.947558975341	0.028675079251
0	3913	39.976234054592	0.105222878701
0	3922	40.081456933293	0.011991332275
0	3927	40.093448265568	0.042720483937
0	3932	40.136168749505	0.093224730122
0	3940	40.229393479627	0.005420234645
0	3942	40.234813714272	0.003511673937
0	3947	40.238325388209	0.06473561451
0	3958	40.303061002719	0.071640802236
0	3964	40.374701804955	0.013885258317
0	3969	40.388587063272	0.090492913898
0	3977	40.47907997717	0.112747106053
0	3984	40.591827083223	0.090144767623
0	3992	40.681971850846	0.068621437235
0	3997	40.750593288081	0.018019504817
0	4002	40.768612792898	0.011787713154
0	4007	40.780400506052	0.028086387194
0	4013	40.808486893246	0.004345146607
0	4015	40.812832039853	0.053145638762
0	4023	40.865977678615	0.00058412456
0	4025	40.866561803175	0.019115030873
0	4033	40.885676834048	0.133565039367
0	4040	41.019241873415	0.027803401652
0	4046	41.047045275067	0.008595181283
0	4051	41.05564045635	0.013168089654
0	4056	41.068808546004	0.090627696073
0	4062	41.159436242077	0.036955157027
0	4067	41.196391399104	0.155546916527
0	4076	41.351938315631	0.00273828297
0	4078	41.354676598601	0.07535360906
0	4089	41.430030207661	0.096505070945
0	4096	41.526535278606	0.040497058419
0	4101	41.567032337025	0.004804731357
0	4103	41.571837068382	0.038035927589
0	4111	41.609872995971	0.043892720348
0	4117	41.653765716319	0.128585982026
0	4123	41.782351698345	0.02198707751
0	4128	41.804338775855	0.040213912595
0	4134	41.84455268845	0.051700049508
0	4140	41.896252737958	0.032124261066
0	4146	41.928376999024	0.192288529777
0	4154	42.120665528801	0.011477762754
0	4160	42.132143291555	0.062234705646
0	4165	42.194377997201	0.03869450947
0	4170	42.233072506671	0.002160169785
0	4172	42.235232676456	0.091850905137
0	4181	42.327083581593	0.033769512109
0	4188	42.360853093702	0.048773901671
0	4193	42.409626995373	0.042803056968
0	4198	42.452430052341	0.010451709622
0	4204	42.462881761963	0.046095200512
0	4209	42.508976962475	0.00931713513
0	4214	42.518294097605	0.068627722747
0	4219	42.586921820352	0.062897346297
0	4224	42.649819166649	0.019510252229
0	4229	42.669329418878	0.04649054277
0	4235	42.715819961648	0.008277193916
0	4237	42.724097155564	0.023643454317
0	4240	42.747740609881	0.029921539972
0	4252	42.777662149853	0.009540721008
0	4257	42.787202870861	0.187969769373
0	4265	42.975172640234	0.010451922995
0	4270	42.985624563229	0.012431110935
0	4275	42.998055674164	0.008315209285
0	4280	43.006370883449	0.140594395806
0	4286	43.146965279255	0.051896286566
0	4291	43.198861565821	0.047090221175
0	4297	43.245951786996	0.005807848338
0	4299	43.251759635334	0.0366289707
0	4307	43.288388606034	0.14484098583
0	4315	43.433229591864	0.128245301425
0	4322	43.561474893289	0.005197019667
0	4324	43.566671912956	0.036816252584
0	4332	43.60348816554	0.096679919947
0	4339	43.700168085487	0.077277718505
0	4346	43.777445803992	0.125798176411
0	4352	43.903243980403	0.030552149212
0	4357	43.933796129615	0.005887171358
0	4359	43.939683300973	0.140632178448
0	4368	44.080315479421	0.033339534789
0	4375	44.11365501421	0.070275821697
0	4383	44.183930835907	0.038458412716
0	4388	44.222389248623	0.07216282703
0	4393	44.294552075653	0.052078198921
0	4398	44.346630274574	0.023824857001
0	4403	44.370455131575	0.075578470237
0	4408	44.446033601812	0.084826999772
0	4413	44.530860601584	0.001646526026
0	4415	44.53250712761	0.060646149786
0	4424	44.593153277396	0.078871325885
0	4429	44.672024603281	0.01646781132
0	4434	44.688492414601	0.087393612695
0	4439	44.775886027296	0.010499702893
0	4444	44.786385730189	0.000588866184
0	4446	44.786974596373	0.095493367368
0	4456	44.882467963741	0.022114976377
0	4462	44.904582940118	0.191895298606
0	4473	45.096478238724	0.015905586084
0	4478	45.112383824808	0.036764726692
0	4484	45.1491485515	0.042001538167
0	4491	45.191150089667	0.053640084161
0	4498	45.244790173828	0.184384513367
0	4506	45.429174687195	0.116998614711
0	4514	45.546173301906	0.048961113838
0	4522	45.595134415744	0.036663453677
0	4529	45.631797869421	0.00615311358
0	4531	45.637950983001	0.182036554344
0	4541	45.819987537345	0.058320653464
0	4546	45.878308190809	0.051446106157
0	4552	45.929754296966	0.119276367291
0	4557	46.049030664257	0.103144158707
0	4564	46.152174822964	0.010292317642
0	4569	46.162467140606	0.143710787363
0	4578	46.306177927969	0.293009939421
0	4586	46.59918786739	0.101414097286
0	4592	46.700601964676	0.005329942959
0	4594	46.705931907635	0.010419393793
0	4602	46.716351301428	0.005953291589
0	4604	46.722304593017	0.059476770346
0	4612	46.781781363363	0.060243070433
0	4618	46.842024433796	0.030493167243
0	4623	46.872517601039	0.17890677944
0	4632	47.051424380479	0.003885941567
0	4634	47.055310322046	0.165636267341
0	4643	47.220946589387	0.033102216755
0	4648	47.254048806142	0.03558489584
0	4653	47.289633701982	0.017959702945
0	4658	47.307593404927	0.078050245648
0	4663	47.385643650575	0.113443749266
0	4668	47.499087399841	0.081343110831
0	4674	47.580430510672	0.002032311315
0	4676	47.582462821987	0.022002309228
0	4685	47.604465131215	0.191625712361
0	4692	47.796090843576	0.007654414428
0	4697	47.803745258004	0.026344619135
0	4703	47.830089877139	0.035206128401
0	4709	47.86529600554	0.026469288644
0	4714	47.891765294184	0.029832557181
0	4719	47.921597851365	0.000987797039
0	4721	47.922585648404	0.045537886455
0	4729	47.968123534859	0.012291136029
0	4734	47.980414670888	0.111998428211
0	4743	48.092413099099	0.03077561951
0	4749	48.123188718609	0.046107754643
0	4755	48.169296473252	0.158951295734
0	4763	48.328247768986	0.068416732615
0	4769	48.396664501601	0.00629596484
0	4771	48.402960466441	0.056370119152
0	4780	48.459330585593	0.174355176219
0	4787	48.633685761812	0.006220250199
0	4789	48.639906012011	0.122177651236
0	4797	48.762083663247	0.005792476742
0	4799	48.767876139989	0.036326026898
0	4807	48.804202166887	0.003455575009
0	4809	48.807657741896	0.023733936024
0	4817	48.83139167792	0.005430448209
0	4819	48.836822126129	0.015896096258
0	4827	48.852718222387	0.016243463444
0	4832	48.868961685831	0.057187352296
0	4838	48.926149038127	0.109772529352
0	4844	49.035921567479	0.002018035255
0	4846	49.037939602734	0.044335201196
0	4856	49.08227480393	0.000943747426
0	4858	49.083218551356	0.043178693861
0	4866	49.126397245217	0.0336005024
0	4871	49.159997747617	0.062960529956
0	4876	49.222958277573	0.004230116902
0	4879	49.227188394475	0.047193545514
0	4887	49.274381939989	0.017416404907
0	4892	49.291798344896	0.001980239103
0	4894	49.293778583999	0.014997048999
0	4902	49.308775632998	0.052071712193
0	4907	49.360847345191	0.017516764304
0	4913	49.378364109495	0.088465333487
0	4923	49.466829442982	0.008428543017
0	4929	49.475257985999	0.028318085266
0	4934	49.503576071265	0.000726554704
0	4936	49.504302625969	0.04052135221
0	4944	49.544823978179	0.007362900439
0	4946	49.552186878618	0.239853808603
0	4962	49.792040687221	0.057815561777
0	4967	49.849856248998	0.016834555571
0	4972	49.866690804569	0.219573727108
0	4979	50.086264531677	0.028135279636
0	4985	50.114399811313	0.278416799757
0	4993	50.39281661107	0.002804094104
0	4995	50.395620705174	0.031561847746
0	5001	50.42718255292	0.022269703248
0	5003	50.449452256168	0.010672605471
0	5009	50.460124861639	0.106856080493
0	5026	50.566980942132	0.061093054728
0	5033	50.62807399686	0.098711005624
0	5040	50.726785002484	0.040436606653
0	5046	50.767221609137	0.061303100845
0	5053	50.828524709982	0.272869431112
0	5065	51.101394141094	0.027541675649
0	5067	51.128935816743	0.004052049413
0	5069	51.132987866156	0.022503716587
0	5072	51.155491582743	0.091736332243
0	5087	51.247227914986	0.097119663985
0	5093	51.344347578971	0.020414233177
0	5098	51.364761812148	0.004383099429
0	5100	51.369144911577	0.016578311576
0	5108	51.385723223153	0.069039755576
0	5113	51.454762978729	0.065172198669
0	5118	51.519935177398	0.028752761669
0	5123	51.548687939067	0.016946802718
0	5128	51.565634741785	0.060295998544
0	5136	51.625930740329	0.065771553661
0	5142	51.69170229399	0.156938455945
0	5149	51.848640749935	0.043702654382
0	5156	51.892343404317	0.11542431424
0	5162	52.007767718557	0.033108127298
0	5167	52.040875845855	0.041310833283
0	5173	52.082186679138	0.048538781708
0	5178	52.130725460846	0.033499607356
0	5184	52.164225068202	0.020300767122
0	5189	52.184525835324	0.103747178261
0	5194	52.288273013585	0.073567932734
0	5199	52.361840946319	0.080416557719
0	5205	52.442257504038	0.03215392772
0	5210	52.474411431758	0.035559445076
0	5216	52.509970876834	0.026828394156
0	5218	52.53679927099	0.208238704832
0	5229	52.745037975822	0.105845243531
0	5236	52.850883219353	0.027074327909
0	5241	52.877957547262	0.15538956873
0	5248	53.033347115992	0.030403392834
0	5253	53.063750508826	0.002825956263
0	5255	53.066576465089	0.080521184471
0	5263	53.14709764956	0.0158869364
0	5268	53.16298458596	0.035770313484
0	5274	53.198754899444	0.025710456251
0	5280	53.224465355695	0.16614866897
0	5288	53.390614024665	0.101233097325
0	5295	53.49184712199	0.017842411674
0	5301	53.509689533664	0.25398094778
0	5309	53.763670481444	0.028852693458
0	5314	53.792523174902	0.208371342354
0	5324	54.000894517256	0.07166939661
0	5329	54.072563913866	0.141200086084
0	5337	54.21376399995	0.136422430001
0	5342	54.350186429951	0.021106043126
0	5347	54.371292473077	0.007742310191
0	5352	54.379034783268	0.289783214878
0	5361	54.668817998146	0.016588362993
0	5366	54.685406361139	0.017214545723
0	5371	54.702620906862	0.015546735353
0	5376	54.718167642215	0.006716672469
0	5378	54.724884314684	0.040342974122
0	5387	54.765227288806	0.180898096331
0	5396	54.946125385137	0.133272850992
0	5402	55.079398236129	0.015948992941
0	5408	55.09534722907	0.02660006376
0	5413	55.12194729283	0.070226143801
0	5418	55.192173436631	0.029191148385
0	5423	55.221364585016	0.003607702148
0	5425	55.224972287164	0.149137865061
0	5435	55.374110152225	0.078717784865
0	5440	55.45282793709	0.007249883776
0	5442	55.460077820866	0.128082143672
0	5452	55.588159964538	0.05983793545
0	5458	55.647997899988	0.019083272711
0	5463	55.667081172699	0.008550176739
0	5468	55.675631349438	0.028590949258
0	5473	55.704222298696	0.028127741498
0	5478	55.732350040194	0.028132689338
0	5484	55.760482729532	0.023529677377
0	5489	55.784012406909	0.082887544791
0	5496	55.8668999517	0.0683877244
0	5502	55.9352876761	0.016293347501
0	5507	55.951581023601	0.095241433782
0	5513	56.046822457383	0.011313883455
0	5519	56.058136340838	0.04206273056
0	5524	56.100199071398	0.035792995013
0	5530	56.135992066411	0.021079276893
0	5535	56.157071343304	0.021784730411
0	5540	56.178856073715	0.130273552881
0	5547	56.309129626596	0.109651576069
0	5553	56.418781202665	0.026019891322
0	5558	56.444801093987	0.016288197986
0	5563	56.461089291973	0.080454103475
0	5568	56.541543395448	0.04187625293
0	5573	56.583419648378	0.048629588831
0	5578	56.632049237209	0.171445520869
0	5587	56.803494758078	0.013502549632
0	5593	56.81699730771	0.060306938914
0	5599	56.877304246624	0.047713332079
0	5605	56.925017578703	0.121175070193
0	5610	57.046192648896	0.043993520321
0	5615	57.090186169217	0.169014703798
0	5623	57.259200873015	0.025734710146
0	5628	57.284935583161	0.083361510417
0	5635	57.368297093578	0.001495685744
0	5637	57.369792779322	0.072153440683
0	5649	57.441946220005	0.00966855473
0	5652	57.451614774735	0.206456642855
0	5664	57.65807141759	0.008483586764
0	5669	57.666555004354	0.311107765382
0	5679	57.977662769736	0.073843131062
0	5686	58.051505900798	0.036069278783
0	5691	58.087575179581	0.074080792563
0	5699	58.161655972144	0.004410382645
0	5701	58.166066354789	0.056766104475
0	5710	58.222832459264	0.02078599965
0	5715	58.243618458914	0.066867493903
0	5720	58.310485952817	0.009917580739
0	5725	58.320403533556	0.035599834096
0	5731	58.356003367652	0.032424161856
0	5736	58.388427529508	0.071458887204
0	5742	58.459886416712	0.008444709326
0	5748	58.468331126038	0.028520380178
0	5754	58.496851506216	0.055598316018
0	5759	58.552449822234	0.006323767795
0	5761	58.558773590029	0.02895451291
0	5769	58.587728102939	0.193518965023
0	5780	58.781247067962	0.135448607445
0	5787	58.916695675407	0.00451150855
0	5789	58.921207183957	0.206137403549
0	5798	59.127344587506	0.001169357577
0	5800	59.128513945083	0.047496545676
0	5809	59.176010490759	0.233454605424
0	5816	59.409465096183	0.019280418172
0	5821	59.428745514355	0.009643802434
0	5826	59.438389316789	0.053823180846
0	5831	59.492212497635	0.017961180176
0	5837	59.510173677811	0.136242606444
0	5844	59.646416284255	0.014564726242
0	5849	59.660981010497	0.031326678265
0	5854	59.692307688762	0.05203752113
0	5859	59.744345209892	0.048188206315
0	5864	59.792533416207	0.223164498654
0	5869	60.015697914861	0.019018642793
0	5874	60.034716557654	0.019130462905
0	5879	60.053847020559	0.036467085847
0	5884	60.090314106406	0.21054381306
0	5893	60.300857919466	0.030821136796
0	5899	60.331679056262	0.001549682666
0	5901	60.333228738928	0.01713413523
0	5909	60.350362874158	0.131378802873
0	5914	60.481741677031	0.042296959283
0	5920	60.524038636314	0.073985323633
0	5925	60.598023959947	0.02229694529
0	5930	60.620320905237	0.01952500303
0	5935	60.639845908267	0.028011860614
0	5942	60.667857768881	0.135149572204
0	5950	60.803007341085	0.044662695684
0	5955	60.847670036769	0.001612837171
0	5957	60.84928287394	0.083320636432
0	5967	60.932603510372	0.058951700563
0	5975	60.991555210935	0.024343580632
0	5981	61.015898791567	0.023987716349
0	5987	61.039886507916	0.154746787847
0	5992	61.194633295763	0.204895494146
0	5998	61.399528789909	0.118968754816
0	6004	61.518497544725	0.011076952374
0	6009	61.529574497099	0.002994936146
0	6011	61.532569433245	0.139051563754
0	6022	61.671620996999	0.017553036071
0	6028	61.68917403307	0.024022891888
0	6033	61.713196924958	0.035450113224
0	6038	61.748647038182	0.132019759227
0	6044	61.880666797409	0.006630952596
0	6046	61.887297750005	0.043101950113
0	6054	61.930399700118	0.025706461727
0	6060	61.956106161845	0.042878051243
0	6065	61.998984213088	0.080846929421
0	6070	62.079831142509	0.029346504637
0	6075	62.109177647146	0.068462600055
0	6083	62.177640247201	0.045312709066
0	6088	62.222952956267	0.058432715489
0	6093	62.281385671756	0.173707057021
0	6103	62.455092728777	0.074381884837
0	6109	62.529474613614	0.134018391066
0	6115	62.66349300468	0.013759030298
0	6120	62.677252034978	0.067827431899
0	6126	62.745079466877	0.025085499537
0	6132	62.770164966414	0.061137190865
0	6138	62.831302157279	0.067665626014
0	6144	62.898967783293	0.047692370164
0	6149	62.946660153457	0.126834408879
0	6156	63.073494562336	0.019103580963
0	6162	63.092598143299	0.047073401815
0	6167	63.139671545114	0.009629046441
0	6172	63.149300591555	0.019935637415
0	6178	63.16923622897	0.116402892593
0	6184	63.285639121563	0.001842106381
0	6187	63.287481227944	0.060480812429
0	6195	63.347962040373	0.074342190443
0	6203	63.422304230816	0.021369946894
0	6208	63.44367417771	0.00047492079
0	6210	63.4441490985	0.036995585311
0	6218	63.481144683811	0.027977821586
0	6223	63.509122505397	0.001489992465
0	6225	63.510612497862	0.045369974867
0	6234	63.555982472729	0.048995561331
0	6239	63.60497803406	0.153148589613
0	6248	63.758126623673	0.026885278103
0	6253	63.785011901776	0.005625323257
0	6255	63.790637225033	0.041914860365
0	6264	63.832552085398	0.031246731892
0	6269	63.86379881729	0.010007745487
0	6276	63.873806562777	0.001476818644
0	6278	63.875283381421	0.033256108405
0	6286	63.908539489826	0.025168759408
0	6291	63.933708249234	0.141977415831
0	6296	64.075685665065	0.058408352619
0	6303	64.134094017684	0.000512881119
0	6305	64.134606898803	0.01963262288
0	6313	64.154239521683	0.208163630327
0	6321	64.36240315201	0.01412435199
0	6326	64.376527504	0.070444208208
0	6332	64.446971712208	0.007377754013
0	6335	64.454349466221	0.006282736406
0	6340	64.460632202627	0.051642882451
0	6348	64.512275085078	0.020530481497
0	6353	64.532805566575	0.071299749617
0	6358	64.604105316192	0.046471007276
0	6364	64.650576323468	0.06687666018
0	6372	64.717452983648	0.077273414347
0	6378	64.794726397995	0.178392500369
0	6387	64.973118898364	0.029546482583
0	6393	65.002665380947	0.000162412475
0	6395	65.002827793422	0.01545509198
0	6403	65.018282885402	0.062510667889
0	6410	65.080793553291	0.036402744555
0	6416	65.117196297846	0.055036307815
0	6423	65.172232605661	0.21471010355
0	6428	65.386942709211	0.05331172274
0	6433	65.440254431951	0.10768038684
0	6438	65.547934818791	0.197438929816
0	6444	65.745373748607	0.147758656164
0	6451	65.893132404771	0.001020937424
0	6453	65.894153342195	0.066028111829
0	6461	65.960181454024	0.071538946453
0	6466	66.031720400477	0.034860519328
0	6472	66.066580919805	0.100816944005
0	6480	66.16739786381	0.069328483725
0	6485	66.236726347535	0.042777388748
0	6490	66.279503736283	0.062749517567
0	6495	66.34225325385	0.024384772005
0	6500	66.366638025855	0.00177190867
0	6502	66.368409934525	0.093879393042
0	6511	66.462289327567	0.151193321631
0	6519	66.613482649198	0.006138106861
0	6521	66.619620756059	0.046913065386
0	6532	66.666533821445	0.035007610338
0	6537	66.701541431783	0.283583711812
0	6543	66.985125143595	0.044032198021
0	6549	67.029157341616	0.028983181456
0	6555	67.058140523072	0.071041664181
0	6561	67.129182187253	0.098601194112
0	6568	67.227783381365	0.005717068972
0	6570	67.233500450337	0.037083142628
0	6579	67.270583592965	0.015507554923
0	6584	67.286091147888	0.105206887097
0	6593	67.391298034985	0.031688639443
0	6599	67.422986674428	0.046476824181
0	6604	67.469463498609	0.058577521378
0	6609	67.528041019987	0.130962833357
0	6616	67.659003853344	0.130801226829
0	6621	67.789805080173	0.127269267411
0	6627	67.917074347584	0.057869985706
0	6633	67.97494433329	0.023876903679
0	6638	67.998821236969	0.008594922227
0	6643	68.007416159196	0.031093670886
0	6648	68.038509830082	0.236487521078
0	6656	68.27499735116	0.047200986928
0	6661	68.322198338088	0.123243149032
0	6666	68.44544148712	0.058322938109
0	6673	68.503764425229	0.041916214017
0	6678	68.545680639246	0.028619865057
0	6683	68.574300504303	0.153331063
0	6691	68.727631567303	0.046870127399
0	6697	68.774501694702	0.04677210173
0	6702	68.821273796432	0.007732718763
0	6708	68.829006515195	0.154075957722
0	6714	68.983082472917	0.068496931411
0	6720	69.051579404328	0.106281199159
0	6727	69.157860603487	0.020306467969
0	6732	69.178167071456	0.207060607762
0	6739	69.385227679218	0.002635634048
0	6741	69.387863313266	0.151381047681
0	6749	69.539244360947	0.00740456829
0	6754	69.546648929237	0.002201944217
0	6756	69.548850873454	0.006751796783
0	6761	69.555602670237	0.011525734569
0	6766	69.567128404806	0.022830656914
0	6774	69.58995906172	0.029572726102
0	6779	69.619531787822	0.016984346151
0	6784	69.636516133973	0.182371895408
0	6792	69.818888029381	0.049639555416
0	6798	69.868527584797	0.02140297516
0	6803	69.889930559957	0.14209416318
0	6810	70.032024723137	0.010494615606
0	6812	70.042519338743	0.052065308576
0	6824	70.094584647319	0.130453974428
0	6832	70.225038621747	0.054668748484
0	6837	70.279707370231	0.035478167134
0	6843	70.315185537365	0.016311950314
0	6849	70.331497487679	0.143076920594
0	6855	70.474574408273	0.05217692165
0	6860	70.526751329923	0.010477667789
0	6865	70.537228997712	0.00946032317
0	6870	70.546689320882	0.064926113069
0	6875	70.611615433951	0.024535051755
0	6880	70.636150485706	0.034817375279
0	6885	70.670967860985	0.058934291065
0	6892	70.72990215205	0.004774209306
0	6894	70.734676361356	0.026899758397
0	6900	70.761576119753	0.071535134525
0	6910	70.833111254278	0.14514308365
0	6917	70.978254337928	0.017053184612
0	6922	70.99530752254	0.126466821504
0	6928	71.121774344044	0.002425294659
0	6930	71.124199638703	0.034166166832
0	6938	71.158365805535	0.003708968919
0	6940	71.162074774454	0.043740403283
0	6948	71.205815177737	0.003781406655
0	6950	71.209596584392	0.038623488351
0	6958	71.248220072743	0.142984096391
0	6964	71.391204169134	0.012227122933
0	6970	71.403431292067	0.080797637312
0	6976	71.484228929379	0.034230359285
0	6982	71.518459288664	0.137003642065
0	6988	71.655462930729	0.012462197173
0	6993	71.667925127902	0.066991114413
0	6999	71.734916242315	0.075359735926
0	7005	71.810275978241	0.045166179122
0	7010	71.855442157363	0.044415131485
0	7015	71.899857288848	0.021782829264
0	7020	71.921640118112	0.023189650923
0	7025	71.944829769035	0.371754607123
0	7040	72.316584376158	0.000186261409
0	7042	72.316770637567	0.026982802077
0	7050	72.343753439644	0.054574242292
0	7055	72.398327681936	0.038166207262
0	7060	72.436493889198	0.062831535329
0	7066	72.499325424527	0.028512566327
0	7071	72.527837990854	0.000312187968
0	7073	72.528150178822	0.233318683366
0	7082	72.761468862188	0.210838729377
0	7089	72.972307591565	0.011517474117
0	7094	72.983825065682	0.065414735188
0	7103	73.04923980087	0.023848744795
0	7108	73.073088545665	0.020815732989
0	7114	73.093904278654	0.068431468498
0	7121	73.162335747152	0.0134159435
0	7126	73.175751690652	0.003917615739
0	7128	73.179669306391	0.155980394721
0	7139	73.335649701112	0.056074824981
0	7144	73.391724526093	0.022198750785
0	7149	73.413923276878	0.038964643608
0	7156	73.452887920486	0.030972207296
0	7161	73.483860127782	0.020044504984
0	7167	73.503904632766	0.0601537445
0	7174	73.564058377266	0.016341073581
0	7179	73.580399450847	0.132793633892
0	7184	73.713193084739	0.043356134252
0	7189	73.756549218991	0.034002117591
0	7196	73.790551336582	0.027525078159
0	7201	73.818076414741	0.158047883757
0	7209	73.976124298498	0.036585730371
0	7214	74.012710028869	0.053801150195
0	7219	74.066511179064	0.024702034672
0	7224	74.091213213736	0.033915316879
0	7229	74.125128530615	0.211389080474
0	7238	74.336517611089	0.053904141986
0	7243	74.390421753075	0.008593396289
0	7248	74.399015149364	0.026264367367
0	7254	74.425279516731	0.006108938519
0	7256	74.43138845525	0.064204949378
0	7264	74.495593404628	0.025240060344
0	7271	74.520833464972	0.063386459651
0	7277	74.584219924623	0.053646353288
0	7283	74.637866277911	0.103463513128
0	7289	74.741329791039	0.064583427565
0	7294	74.805913218604	0.030926853
0	7299	74.836840071604	0.030375838025
0	7304	74.867215909629	0.002297327866
0	7306	74.869513237495	0.434008107168
0	7317	75.303521344663	0.250526616254
0	7327	75.554047960917	0.026021968224
0	7332	75.580069929141	0.035667961002
0	7339	75.615737890143	0.07668012775
0	7349	75.692418017893	0.166485277295
0	7357	75.858903295188	0.060897537502
0	7362	75.91980083269	0.066892011244
0	7368	75.986692843934	0.100616083979
0	7376	76.087308927913	0.018611767396
0	7381	76.105920695309	0.224348908682
0	7388	76.330269603991	0.049815638806
0	7394	76.380085242797	0.132324048228
0	7403	76.512409291025	0.188699853162
0	7408	76.701109144187	0.086778454329
0	7415	76.787887598516	0.007227496066
0	7417	76.795115094582	0.071889083271
0	7427	76.867004177853	0.019066160483
0	7432	76.886070338336	0.024523059254
0	7437	76.91059339759	0.005137247647
0	7439	76.915730645237	0.009587986826
0	7444	76.925318632063	0.086959312169
0	7454	77.012277944232	0.003881016309
0	7456	77.016158960541	0.001315642841
0	7458	77.017474603382	0.01661653352
0	7460	77.034091136902	0.008857912994
0	7462	77.042949049896	0.033967773102
0	7475	77.076916822998	0.018117300209
0	7487	77.095034123207	0.044288204553
0	7492	77.13932232776	0.122914989396
0	7499	77.262237317156	0.088990404482
0	7504	77.351227721638	0.011863906076
0	7509	77.363091627714	0.191273050336
0	7517	77.55436467805	0.034073261587
0	7523	77.588437939637	0.007487585536
0	7525	77.595925525173	0.023593037219
0	7533	77.619518562392	0.006790399944
0	7535	77.626308962336	0.052538327885
0	7544	77.678847290221	0.053451228113
0	7550	77.732298518334	0.165372784649
0	7559	77.897671302983	0.082083241283
0	7564	77.979754544266	0.169591438234
0	7570	78.1493459825	0.113091876852
0	7575	78.262437859352	0.003236217385
0	7577	78.265674076737	0.164775112213
0	7590	78.43044918895	0.054411786438
0	7596	78.484860975388	0.24599605756
0	7604	78.730857032948	0.133426968945
0	7612	78.864284001893	0.030629709762
0	7618	78.894913711655	0.091102148904
0	7623	78.986015860559	0.028714594264
0	7628	79.014730454823	0.014259952266
0	7633	79.028990407089	0.009596652801
0	7639	79.03858705989	0.086888767437
0	7648	79.125475827327	0.069298472014
0	7655	79.194774299341	0.012573869144
0	7660	79.207348168485	0.064159863502
0	7666	79.271508031987	0.137415433194
0	7673	79.408923465181	0.118857317767
0	7679	79.527780782948	0.00053828324
0	7681	79.528319066188	0.006139108774
0	7683	79.534458174962	0.00567400419
0	7688	79.540132179152	0.041322650637
0	7699	79.581454829789	0.057926147982
0	7704	79.639380977771	0.052204794622
0	7709	79.691585772393	0.028918752574
0	7714	79.720504524967	0.016589261046
0	7719	79.737093786013	0.006092926235
0	7721	79.743186712248	0.011109363209
0	7729	79.754296075457	0.251716117207
0	7740	80.006012192664	0.117787397373
0	7746	80.123799590037	0.136138145197
0	7752	80.259937735234	0.003619081427
0	7754	80.263556816661	0.018974226351
0	7762	80.282531043012	0.038163028267
0	7767	80.320694071279	0.038454925392
0	7772	80.359148996671	0.007386627295
0	7774	80.366535623966	0.039207195584
0	7782	80.40574281955	0.036645250492
0	7787	80.442388070042	0.042604220739
0	7792	80.484992290781	0.234608446179
0	7801	80.71960073696	0.205148190161
0	7806	80.924748927121	0.033068276899
0	7812	80.95781720402	0.006318865152
0	7814	80.964136069172	0.116747075035
0	7823	81.080883144207	0.00242747734
0	7825	81.083310621547	0.007487251342
0	7830	81.090797872889	0.03966478805
0	7839	81.130462660939	0.018985643471
0	7844	81.14944830441	0.036778036121
0	7849	81.186226340531	0.031030015624
0	7855	81.217256356155	0.016093385596
0	7857	81.233349741751	0.030630754556
0	7863	81.263980496307	0.00364045801
0	7868	81.267620954317	0.066771828697
0	7876	81.334392783014	0.00793269599
0	7881	81.342325479004	0.025361387284
0	7888	81.367686866288	0.11659203338
0	7893	81.484278899668	0.07505691964
0	7900	81.559335819308	0.030616283866
0	7905	81.589952103174	0.061163711284
0	7910	81.651115814458	0.028817508829
0	7915	81.679933323287	0.030565710613
0	7920	81.7104990339	0.001333119121
0	7922	81.711832153021	0.033912698091
0	7930	81.745744851112	0.028176481928
0	7935	81.77392133304	0.057197155873
0	7940	81.831118488913	0.065012891298
0	7945	81.896131380211	0.004356963486
0	7948	81.900488343697	0.058907094336
0	7954	81.959395438033	0.103695562378
0	7964	82.063091000411	0.14719835049
0	7972	82.210289350901	0.063578696593
0	7978	82.273868047494	0.066846884188
0	7984	82.340714931682	0.07775266899
0	7991	82.418467600672	0.023501072393
0	7997	82.441968673065	0.046191716149
0	8003	82.488160389214	0.02280714188
0	8009	82.510967531094	0.00702420236
0	8011	82.517991733454	0.107499260153
0	8024	82.625490993607	0.031155223493
0	8028	82.6566462171	0.089713867088
0	8036	82.746360084188	0.031189316693
0	8041	82.777549400881	0.019806401643
0	8047	82.797355802524	0.023231848034
0	8052	82.820587650558	0.075090537417
0	8057	82.895678187975	0.001824479626
0	8059	82.897502667601	0.049474303391
0	8068	82.946976970992	0.080194105039
0	8074	83.027171076031	0.030615549022
0	8079	83.057786625053	0.006977500006
0	8081	83.064764125059	0.045411259034
0	8090	83.110175384093	0.055931204434
0	8096	83.166106588527	0.005345157449
0	8098	83.171451745976	0.072885342514
0	8107	83.24433708849	0.065738992215
0	8113	83.310076080705	0.060436361303
0	8119	83.370512442008	0.001804967732
0	8121	83.37231740974	0.191859525444
0	8129	83.564176935184	0.132049012462
0	8136	83.696225947646	0.006541911817
0	8138	83.702767859463	0.068764682104
0	8146	83.771532541567	0.121119825596
0	8151	83.892652367163	0.133157731306
0	8157	84.025810098469	0.001777485138
0	8159	84.027587583607	7.2498113e-005
0	8161	84.02766008172	0.045932344936
0	8174	84.073592426656	0.166086003461
0	8179	84.239678430117	0.031075406704
0	8184	84.270753836821	0.190645837288
0	8191	84.461399674109	0.044563424982
0	8197	84.505963099091	0.095472135801
0	8202	84.601435234892	0.027257254624
0	8207	84.628692489516	0.290255246944
0	8215	84.91894773646	0.012685270499
0	8220	84.931633006959	0.026331250623
0	8225	84.957964257582	0.001158486312
0	8227	84.959122743894	0.11316690641
0	8237	85.072289650304	0.043807321215
0	8242	85.116096971519	0.088356771753
0	8247	85.204453743272	0.111005353192
0	8254	85.315459096464	0.076491087153
0	8259	85.391950183617	0.028029193588
0	8265	85.419979377205	0.060211463274
0	8272	85.480190840479	0.015128380586
0	8277	85.495319221065	0.02203609005
0	8282	85.517355311115	0.005037602402
0	8284	85.522392913517	0.046237863648
0	8292	85.568630777165	0.005350264936
0	8294	85.573981042101	0.019259859474
0	8302	85.593240901575	0.015015196824
0	8307	85.608256098399	0.000523673778
0	8309	85.608779772177	0.006322568438
0	8311	85.615102340615	0.001515667308
0	8316	85.616618007923	0.018476327735
0	8324	85.635094335658	0.009349151167
0	8329	85.644443486825	0.004106332523
0	8334	85.648549819348	0.043263144265
0	8343	85.691812963613	0.004071352683
0	8345	85.695884316296	0.015112487082
0	8353	85.710996803378	0.116391705575
0	8360	85.827388508953	0.027673546656
0	8365	85.855062055609	0.010612842367
0	8370	85.865674897976	0.003401032869
0	8372	85.869075930845	0.049215539557
0	8380	85.918291470402	0.145280198787
0	8387	86.063571669189	0.089088844443
0	8394	86.152660513632	0.129744296564
0	8401	86.282404810196	0.036573550851
0	8406	86.318978361047	0.136543198984
0	8413	86.455521560031	0.009989411635
0	8418	86.465510971666	0.024225174427
0	8423	86.489736146093	0.013358331122
0	8428	86.503094477215	0.074881093877
0	8434	86.577975571092	0.03404208718
0	8440	86.612017658272	0.033406248686
0	8445	86.645423906958	0.04507634242
0	8450	86.690500249378	0.021545740969
0	8455	86.712045990347	0.025795332164
0	8461	86.737841322511	0.004380752631
0	8463	86.742222075142	0.091252554458
0	8474	86.8334746296	0.032874746262
0	8480	86.866349375862	0.083423359634
0	8487	86.949772735496	0.029492721525
0	8494	86.979265457021	0.157212094613
0	8500	87.136477551634	0.010489320002
0	8505	87.146966871636	0.001762796837
0	8507	87.148729668473	0.025866109633
0	8515	87.174595778106	0.135624026843
0	8522	87.310219804949	0.006030331424
0	8524	87.316250136373	0.029910979915
0	8532	87.346161116288	0.122924279614
0	8539	87.469085395902	0.126407527553
0	8548	87.595492923455	0.066083764698
0	8553	87.661576688153	0.070423063672
0	8558	87.731999751825	0.01284493168
0	8563	87.744844683505	0.262199985086
0	8572	88.007044668591	0.150129478952
0	8578	88.157174147543	0.085447860938
0	8584	88.242622008481	0.05200446424
0	8590	88.294626472721	0.0272048051
0	8595	88.321831277821	0.036517161243
0	8600	88.358348439064	0.041716546859
0	8605	88.400064985923	0.061692319097
0	8610	88.46175730502	0.028333724919
0	8617	88.490091029939	0.017583809867
0	8623	88.507674839806	0.027239486805
0	8628	88.534914326611	0.048054520972
0	8633	88.582968847583	0.018139688283
0	8639	88.601108535866	0.008487126299
0	8644	88.609595662165	0.041107204676
0	8650	88.650702866841	0.013427326328
0	8655	88.664130193169	0.068693186968
0	8660	88.732823380137	0.043299524861
0	8665	88.776122904998	0.019489008279
0	8670	88.795611913277	0.006154755594
0	8672	88.801766668871	0.044588139258
0	8680	88.846354808129	0.11457330111
0	8687	88.960928109239	0.00749165147
0	8692	88.968419760709	0.030205566927
0	8697	88.998625327636	0.010450153266
0	8703	89.009075480902	0.015922197466
0	8708	89.024997678368	0.002876231975
0	8710	89.027873910343	0.052831106299
0	8718	89.080705016642	0.21187448403
0	8727	89.292579500672	0.082423155881
0	8732	89.375002656553	0.000232069391
0	8734	89.375234725944	0.056341116211
0	8743	89.431575842155	0.011803241318
0	8748	89.443379083473	0.051908943535
0	8753	89.495288027008	0.056939180807
0	8758	89.552227207815	0.011186978051
0	8763	89.563414185866	0.005092284662
0	8765	89.568506470528	0.06957095796
0	8774	89.638077428488	0.128171635579
0	8783	89.766249064067	0.225820847612
0	8789	89.992069911679	0.076296600139
0	8794	90.068366511818	0.056280486936
0	8799	90.124646998754	0.203575842878
0	8806	90.328222841632	0.023883660299
0	8809	90.352106501931	0.042512164526
0	8818	90.394618666457	0.097379401024
0	8823	90.491998067481	0.021435107716
0	8828	90.513433175197	0.108606660688
0	8833	90.622039835885	0.04784390855
0	8838	90.669883744435	0.032197324978
0	8843	90.702081069413	0.16026149841
0	8852	90.862342567823	0.032231024225
0	8857	90.894573592048	0.044133405297
0	8864	90.938706997345	0.165513679375
0	8872	91.10422067672	0.018653523786
0	8877	91.122874200506	0.076847779384
0	8882	91.19972197989	0.125929105714
0	8889	91.325651085604	0.002007285548
0	8891	91.327658371152	0.027905144625
0	8900	91.355563515777	0.033301903519
0	8905	91.388865419296	8.3058756e-005
0	8907	91.388948478052	0.005915970012
0	8909	91.394864448064	0.017076011039
0	8922	91.411940459103	0.230514978208
0	8928	91.642455437311	0.022984084025
0	8933	91.665439521336	0.051369969444
0	8940	91.71680949078	0.117445103534
0	8947	91.834254594314	0.061915242175
0	8954	91.896169836489	0.036805083967
0	8959	91.932974920456	0.027197068249
0	8964	91.960171988705	0.035282628701
0	8970	91.995454617406	0.066105715039
0	8977	92.061560332445	0.024577629605
0	8982	92.08613796205	0.05089600859
0	8988	92.13703397064	0.127555834197
0	8993	92.264589804837	0.089414945201
0	9000	92.354004750038	0.174054542471
0	9008	92.528059292509	0.138216412598
0	9016	92.666275705107	0.288881879984
0	9022	92.955157585091	0.031081743427
0	9027	92.986239328518	0.028367612683
0	9032	93.014606941201	0.135425228498
0	9041	93.150032169699	0.203144454174
0	9048	93.353176623873	0.004037818032
0	9051	93.357214441905	0.094178301276
0	9060	93.451392743181	0.069401957382
0	9065	93.520794700563	0.067563167862
0	9071	93.588357868425	0.015765324596
0	9076	93.604123193021	0.01685346933
0	9081	93.620976662351	0.046444322561
0	9086	93.667420984912	0.014635780192
0	9091	93.682056765104	0.088977561863
0	9096	93.771034326967	0.01089475306
0	9101	93.781929080027	0.08236344035
0	9109	93.864292520377	0.153647634886
0	9116	94.017940155263	0.076685177633
0	9122	94.094625332896	0.020894918051
0	9127	94.115520250947	0.039570168004
0	9132	94.155090418951	0.036208727546
0	9137	94.191299146497	0.012941990477
0	9142	94.204241136974	0.040868116686
0	9148	94.24510925366	0.013807546089
0	9153	94.258916799749	0.090351068585
0	9158	94.349267868334	0.046003522928
0	9163	94.395271391262	0.111564394345
0	9172	94.506835785607	0.034555378372
0	9174	94.541391163979	0.008984712495
0	9177	94.550375876474	0.221308318529
0	9190	94.771684195003	0.033402159846
0	9195	94.805086354849	0.02147116034
0	9200	94.826557515189	0.111035138795
0	9207	94.937592653984	0.004935753928
0	9209	94.942528407912	0.102235896265
0	9219	95.044764304177	0.077870194149
0	9225	95.122634498326	0.006482764012
0	9227	95.129117262338	0.222359438239
0	9240	95.351476700577	0.010203425328
0	9245	95.361680125905	0.09142021682
0	9251	95.453100342725	0.021761468172
0	9256	95.474861810897	0.017025006152
0	9261	95.491886817049	0.004700988066
0	9263	95.496587805115	0.002234765538
0	9265	95.498822570653	0.03316796001
0	9277	95.531990530663	0.031345754601
0	9282	95.563336285264	0.006831639438
0	9284	95.570167924702	0.126101615045
0	9292	95.696269539747	0.050390010083
0	9297	95.74665954983	0.033937375261
0	9302	95.780596925091	0.016986109739
0	9307	95.79758303483	0.020051724898
0	9312	95.817634759728	0.054444775196
0	9317	95.872079534924	0.164281397716
0	9326	96.03636093264	0.007501532931
0	9331	96.043862465571	0.08877450848
0	9336	96.132636974051	0.223492462446
0	9342	96.356129436497	0.056648475124
0	9350	96.412777911621	0.161792091235
0	9358	96.574570002856	0.0001608395
0	9360	96.574730842356	0.029834788191
0	9369	96.604565630547	0.160859705385
0	9377	96.765425335932	0.016638451736
0	9382	96.782063787668	0.067221544965
0	9387	96.849285332633	0.017292790075
0	9392	96.866578122708	0.015252279763
0	9397	96.881830402471	0.039628433657
0	9402	96.921458836128	0.001503875253
0	9405	96.922962711381	0.002448870021
0	9407	96.925411581402	0.000449780667
0	9409	96.925861362069	0.061249945143
0	9424	96.987111307212	0.157369531314
0	9431	97.144480838526	0.031485626644
0	9436	97.17596646517	0.070884323915
0	9442	97.246850789085	0.02843169474
0	9447	97.275282483825	0.073276810614
0	9454	97.348559294439	0.09944367124
0	9461	97.448002965679	0.054390076633
0	9467	97.502393042312	0.074073232187
0	9473	97.576466274499	0.046232239246
0	9480	97.622698513745	0.185183828333
0	9485	97.807882342078	0.036481897546
0	9490	97.844364239624	0.02602597137
0	9495	97.870390210994	0.055006432301
0	9500	97.925396643295	0.136698584568
0	9507	98.062095227863	0.063693198978
0	9513	98.125788426841	0.088171998952
0	9519	98.213960425793	0.028012330648
0	9524	98.241972756441	0.02653627134
0	9530	98.268509027781	0.066199518162
0	9535	98.334708545943	0.058318583585
0	9540	98.393027129528	0.036626012582
0	9545	98.42965314211	0.020428691492
0	9550	98.450081833602	0.005334253494
0	9552	98.455416087096	0.124479142944
0	9560	98.57989523004	0.015929702559
0	9565	98.595824932599	0.007155892199
0	9567	98.602980824798	0.005092423429
0	9572	98.608073248227	0.014328513567
0	9580	98.622401761794	0.023318013974
0	9585	98.645719775768	0.012129416175
0	9590	98.657849191943	0.056701079437
0	9597	98.71455027138	0.030952903352
0	9600	98.745503174732	0.027496473783
0	9610	98.772999648515	0.08204434314
0	9615	98.855043991655	0.077727399836
0	9621	98.932771391491	0.044907854095
0	9627	98.977679245586	0.068003295618
0	9632	99.045682541204	0.04012792105
0	9638	99.085810462254	0.00937755855
0	9643	99.095188020804	3.2767198e-005
0	9645	99.095220788002	0.011038436618
0	9650	99.10625922462	0.033245048691
0	9658	99.139504273311	0.003996308234
0	9660	99.143500581545	0.003939791111
0	9665	99.147440372656	0.018418642953
0	9673	99.165859015609	0.014010822362
0	9678	99.179869837971	0.025695481729
0	9683	99.2055653197	0.161643461099
0	9689	99.367208780799	0.005543251125
0	9691	99.372752031924	0.014554737533
0	9699	99.387306769457	0.055312755497
0	9705	99.442619524954	0.117258526302
0	9711	99.559878051256	0.07518468564
0	9717	99.635062736896	0.097440626628
0	9722	99.732503363524	0.010263109142
0	9727	99.742766472666	0.010400251274
0	9732	99.75316672394	0.025125561135
0	9737	99.778292285075	0.055840413397
0	9743	99.834132698472	0.077951959946
0	9750	99.912084658418	0.007374947289
0	9755	99.919459605707	0.065316970383
0	9761	99.98477657609	0.078092526507
0	9766	100.062869102597	0.115638269835
0	9777	100.178507372432	0.060877605256
0	9783	100.239384977688	0.048527407577
0	9788	100.287912385265	0.100259194512
0	9794	100.388171579777	0.001565637898
0	9796	100.389737217675	0.039164617233
0	9805	100.428901834908	0.003541743171
0	9807	100.432443578079	0.147809677751
0	9816	100.58025325583	0.005006881054
0	9818	100.585260136884	0.003036492559
0	9823	100.588296629443	0.04368137298
0	9832	100.631978002423	0.020794020548
0	9837	100.652772022971	0.084415832717
0	9843	100.737187855688	0.07532704029
0	9850	100.812514895978	0.001968333283
0	9852	100.814483229261	0.03248834962
0	9854	100.846971578881	0.036604247477
0	9866	100.883575826358	0.011393505448
0	9871	100.894969331806	0.104508841288
0	9878	100.999478173094	0.006804283332
0	9880	101.006282456426	0.066266808299
0	9888	101.072549264725	0.102007435756
0	9895	101.174556700481	0.04736859569
0	9900	101.221925296171	0.03844956429
0	9905	101.260374860461	0.053322241657
0	9910	101.313697102118	0.128368651379
0	9916	101.442065753497	0.13607942345
0	9924	101.578145176947	0.079295406371
0	9929	101.657440583318	0.051350953287
0	9935	101.708791536605	0.031630127382
0	9940	101.740421663987	0.032872121639
0	9947	101.773293785626	0.028057444636
0	9953	101.801351230262	0.072831633784
0	9959	101.874182864046	0.043495406178
0	9965	101.917678270224	0.026515991332
0	9970	101.944194261556	0.13192591738
0	9980	102.076120178936	0.216519301016
0	9991	102.292639479952	0.080199662325
0	9996	102.372839142277	0.123485470659
0	10003	102.496324612936	0.000309977166
0	10005	102.496634590102	0.010222641521
0	10010	102.506857231623	0.071081169039
0	10018	102.577938400662	0.069144661163
0	10024	102.647083061825	0.151175409537
0	10029	102.798258471362	0.002079882154
0	10031	102.800338353516	0.074366829527
0	10040	102.874705183043	0.129877630541
0	10050	103.004582813584	0.011688365791
0	10055	103.016271179375	0.111803159028
0	10062	103.128074338403	0.039642905605
0	10067	103.167717244008	0.042816669195
0	10072	103.210533913203	0.009071425587
0	10077	103.21960533879	0.008196531581
0	10082	103.227801870371	0.026683107297
0	10087	103.254484977668	0.058288077214
0	10093	103.312773054882	0.165988810083
0	10100	103.478761864965	0.016413891735
0	10105	103.4951757567	0.154075363186
0	10112	103.649251119886	0.059796556749
0	10118	103.709047676635	0.019947115295
0	10125	103.72899479193	0.071000371401
0	10131	103.799995163331	0.024897394963
0	10137	103.824892558294	0.006740080839
0	10139	103.831632639133	0.055009382238
0	10147	103.886642021371	0.038884221581
0	10153	103.925526242952	0.198131037147
0	10163	104.123657280099	0.052854457037
0	10168	104.176511737136	0.009596136232
0	10174	104.186107873368	0.017551684375
0	10179	104.203659557743	0.017816823527
0	10186	104.22147638127	0.013464432212
0	10191	104.234940813482	0.124077738909
0	10201	104.359018552391	0.060942760383
0	10206	104.419961312774	0.040623702741
0	10212	104.460585015515	0.085813160895
0	10218	104.54639817641	0.137534977551
0	10224	104.683933153961	0.026693908139
0	10229	104.7106270621	0.0123121691
0	10234	104.7229392312	0.074044801604
0	10239	104.796984032804	0.04564299611
0	10246	104.842627028914	0.053113010679
0	10251	104.895740039593	0.023695517525
0	10256	104.919435557118	0.099515603214
0	10263	105.018951160332	0.022835453959
0	10265	105.041786614291	0.013694797392
0	10268	105.055481411683	0.035530488239
0	10279	105.091011899922	0.095494926785
0	10284	105.186506826707	0.03405195503
0	10289	105.220558781737	0.018588128074
0	10294	105.239146909811	0.026529010316
0	10299	105.265675920127	0.021251916845
0	10304	105.286927836972	0.147885608185
0	10311	105.434813445157	0.229474179386
0	10320	105.664287624543	0.078948853907
0	10327	105.74323647845	0.002826350249
0	10329	105.746062828699	0.078017348522
0	10338	105.824080177221	0.012625014194
0	10343	105.836705191415	0.020542104772
0	10348	105.857247296187	0.044147599621
0	10353	105.901394895808	0.051723697638
0	10359	105.953118593446	0.028295743227
0	10364	105.981414336673	0.090624289121
0	10372	106.072038625794	0.016632206311
0	10377	106.088670832105	0.095257757254
0	10385	106.183928589359	0.069225825802
0	10393	106.253154415161	0.025344206964
0	10400	106.278498622125	0.066381183898
0	10405	106.344879806023	0.088408666599
0	10412	106.433288472622	0.199024042663
0	10420	106.632312515285	0.079884261027
0	10425	106.712196776312	0.126520048913
0	10431	106.838716825225	0.009154568888
0	10436	106.847871394113	0.357974141985
0	10448	107.205845536098	0.120570517002
0	10454	107.3264160531	0.027048588638
0	10459	107.353464641738	0.034930863188
0	10465	107.388395504926	0.002777370355
0	10467	107.391172875281	0.039979852561
0	10476	107.431152727842	0.023608943818
0	10481	107.45476167166	0.035692575354
0	10486	107.490454247014	0.041219738154
0	10492	107.531673985168	0.050338396976
0	10498	107.582012382144	0.011338711003
0	10503	107.593351093147	0.058239944871
0	10510	107.651591038018	0.005334861741
0	10512	107.656925899759	0.041370775315
0	10521	107.698296675074	0.03616865448
0	10526	107.734465329554	0.12094904786
0	10533	107.855414377414	0.161884982577
0	10541	108.017299359991	0.05928891919
0	10548	108.076588279181	0.0864234963
0	10553	108.163011775481	0.030792502874
0	10558	108.193804278355	0.022393183701
0	10563	108.216197462056	0.032342370512
0	10568	108.248539832568	0.131686022927
0	10574	108.380225855495	0.099909283643
0	10580	108.480135139138	0.071695688002
0	10588	108.55183082714	0.025680309028
0	10593	108.577511136168	0.037343881461
0	10598	108.614855017629	0.014253932576
0	10603	108.629108950205	0.018442036365
0	10608	108.64755098657	0.003673165927
0	10610	108.651224152497	0.051415386089
0	10619	108.702639538586	0.125261415788
0	10626	108.827900954374	0.013007401545
0	10631	108.840908355919	0.150463340116
0	10639	108.991371696035	0.081109325164
0	10644	109.072481021199	0.007678196692
0	10649	109.080159217891	0.165808586435
0	10656	109.245967804326	0.024430630832
0	10662	109.270398435158	0.064599518931
0	10668	109.334997954089	0.011569379328
0	10673	109.346567333417	0.077457762335
0	10678	109.424025095752	0.007391002337
0	10683	109.431416098089	0.010782663555
0	10688	109.442198761644	0.138075201962
0	10695	109.580273963606	0.082752921044
0	10702	109.66302688465	0.003513530899
0	10704	109.666540415549	0.041272486289
0	10713	109.707812901838	0.236196367789
0	10723	109.944009269627	0.005486318882
0	10725	109.949495588509	0.006085487003
0	10728	109.955581075512	0.029309357183
0	10740	109.984890432695	0.11947293843
0	10747	110.104363371125	0.0784374831
0	10753	110.182800854225	0.050152654052
0	10758	110.232953508277	0.051794912656
0	10764	110.284748420933	0.02752412048
0	10769	110.312272541413	0.021950090348
0	10774	110.334222631761	0.025144248214
0	10779	110.359366879975	0.269237904674
0	10790	110.628604784649	0.08497160883
0	10797	110.713576393479	0.051203441173
0	10803	110.764779834652	0.022662822332
0	10808	110.787442656984	0.173969919221
0	10814	110.961412576205	0.064257302782
0	10819	111.025669878987	0.049228054075
0	10825	111.074897933062	0.043704838525
0	10831	111.118602771587	0.049898577162
0	10837	111.168501348749	0.039811301096
0	10843	111.208312649845	0.003151565421
0	10845	111.211464215266	0.138856493917
0	10856	111.350320709183	0.006594166511
0	10859	111.356914875694	0.048533021317
0	10867	111.405447897011	0.057183205571
0	10873	111.462631102582	0.10521984104
0	10879	111.567850943622	0.078924149554
0	10884	111.646775093176	0.077584316273
0	10889	111.724359409449	0.016785408144
0	10894	111.741144817593	0.002359214996
0	10896	111.743504032589	0.199413727584
0	10906	111.942917760173	0.088997411898
0	10912	112.031915172071	0.081110811414
0	10918	112.113025983485	0.014667413556
0	10923	112.127693397041	0.016309411141
0	10928	112.144002808182	0.140075293324
0	10935	112.284078101506	0.062040349364
0	10940	112.34611845087	0.002632360677
0	10943	112.348750811547	0.024908783669
0	10951	112.373659595216	0.024304393751
0	10956	112.397963988967	0.078002760551
0	10962	112.475966749518	0.006303829974
0	10964	112.482270579492	0.05270972943
0	10973	112.534980308922	0.038728786262
0	10978	112.573709095184	0.084796188917
0	10983	112.658505284101	0.102895386246
0	10991	112.761400670347	0.017378141876
0	10996	112.778778812223	0.021245328006
0	11001	112.800024140229	0.16155599206
0	11008	112.961580132289	0.009817164811
0	11013	112.9713972971	0.297721964694
0	11021	113.269119261794	0.024052572819
0	11026	113.293171834613	0.01078584529
0	11031	113.303957679903	0.100881863715
0	11038	113.404839543618	0.043157806336
0	11041	113.447997349954	0.009076166703
0	11044	113.457073516657	0.11947538948
0	11055	113.576548906137	0.015476713757
0	11060	113.592025619894	0.025634856978
0	11065	113.617660476872	0.004280220385
0	11067	113.621940697257	0.016674782808
0	11075	113.638615480065	0.073391384433
0	11080	113.712006864498	0.078797181321
0	11086	113.790804045819	0.030174745001
0	11091	113.82097879082	0.227701940023
0	11097	114.048680730843	0.022336906988
0	11102	114.071017637831	0.04204026253
0	11108	114.113057900361	0.076084315431
0	11114	114.189142215792	0.029897329033
0	11119	114.219039544825	0.02456635876
0	11124	114.243605903585	0.029848198645
0	11129	114.27345410223	0.078066758272
0	11134	114.351520860502	0.094940439017
0	11140	114.446461299519	0.101308669681
0	11145	114.5477699692	0.073462982159
0	11153	114.621232951359	0.014728168928
0	11158	114.635961120287	0.023044294302
0	11163	114.659005414589	0.218562581281
0	11170	114.87756799587	0.220353575114
0	11176	115.097921570984	0.010629864655
0	11181	115.108551435639	0.13330483215
0	11186	115.241856267789	0.0206205231
0	11191	115.262476790889	0.072424269654
0	11197	115.334901060543	0.011892079233
0	11202	115.346793139776	0.034872438187
0	11207	115.381665577963	0.025433540419
0	11212	115.407099118382	0.013938321849
0	11217	115.421037440231	0.039242613751
0	11222	115.460280053982	0.065611162629
0	11228	115.525891216611	0.044310752221
0	11235	115.570201968832	0.08411861682
0	11241	115.654320585652	0.115287236159
0	11247	115.769607821811	0.055592214632
0	11253	115.825200036443	0.132136106726
0	11259	115.957336143169	0.041065136494
0	11264	115.998401279663	0.014915671456
0	11270	116.013316951119	0.007536620961
0	11275	116.02085357208	0.058513742546
0	11282	116.079367314626	0.092151891947
0	11289	116.171519206573	0.007092971702
0	11291	116.178612178275	0.040588192792
0	11300	116.219200371067	0.036856816717
0	11304	116.256057187784	0.11549615026
0	11312	116.371553338044	0.023346003504
0	11317	116.394899341548	0.008688968069
0	11322	116.403588309617	0.022831782606
0	11327	116.426420092223	0.201297862762
0	11334	116.627717954985	0.03953451281
0	11340	116.667252467795	0.040542138946
0	11345	116.707794606741	0.078521709584
0	11350	116.786316316325	0.004506070252
0	11353	116.790822386577	0.004301533083
0	11358	116.79512391966	0.01971972346
0	11366	116.81484364312	0.126803897057
0	11375	116.941647540177	0.139723553231
0	11385	117.081371093408	0.079639378349
0	11390	117.161010471757	0.024389554054
0	11395	117.185400025811	0.011651458727
0	11400	117.197051484538	0.210549876549
0	11405	117.407601361087	0.167971366108
0	11414	117.575572727195	0.035232322278
0	11420	117.610805049473	0.042351119707
0	11423	117.65315616918	0.027441474687
0	11431	117.680597643867	0.513661095559
0	11438	118.194258739426	0.093573076903
0	11444	118.287831816329	0.01318342473
0	11450	118.301015241059	0.03776747408
0	11452	118.338782715139	0.045931228431
0	11461	118.38471394357	0.004714453617
0	11463	118.389428397187	0.020570383552
0	11471	118.409998780739	0.105909706774
0	11476	118.515908487513	0.021759300782
0	11481	118.537667788295	0.093771093264
0	11487	118.631438881559	0.053651999413
0	11492	118.685090880972	0.043415506086
0	11497	118.728506387058	0.152847075054
0	11504	118.881353462112	0.000583830356
0	11506	118.881937292468	0.098166584436
0	11515	118.980103876904	0.008795747553
0	11522	118.988899624457	0.077228526349
0	11529	119.066128150806	0.074685724728
0	11537	119.140813875534	0.049146272603
0	11542	119.189960148137	0.053621513505
0	11548	119.243581661642	0.153292847384
0	11555	119.396874509026	0.072247269607
0	11562	119.469121778633	0.040679131303
0	11567	119.509800909936	0.026864896485
0	11572	119.536665806421	0.12420854029
0	11577	119.660874346711	0.059554147071
0	11584	119.720428493782	0.10773941633
0	11590	119.828167910112	0.03423736548
0	11595	119.862405275592	0.014435341665
0	11601	119.876840617257	0.032045759278
0	11606	119.908886376535	0.088501098874
0	11612	119.997387475409	0.032171951408
0	11617	120.029559426817	0.000734750331
0	11619	120.030294177148	0.001954839215
0	11621	120.032249016363	0.023389934791
0	11632	120.055638951154	0.003776068912
0	11634	120.059415020066	0.015648189374
0	11642	120.07506320944	0.113555479744
0	11649	120.188618689184	0.042418089843
0	11655	120.231036779027	0.07135008447
0	11660	120.302386863497	0.08010258506
0	11668	120.382489448557	0.015713975435
0	11673	120.398203423992	0.006166921921
0	11676	120.404370345913	0.007542413326
0	11681	120.411912759239	0.043406760004
0	11683	120.455319519243	0.002493727128
0	11686	120.457813246371	0.167237317961
0	11704	120.625050564332	0.039201808033
0	11709	120.664252372365	0.015576514781
0	11714	120.679828887146	0.053199128076
0	11721	120.733028015222	0.067832401808
0	11728	120.80086041703	0.136941033899
0	11736	120.937801450929	0.053918877282
0	11742	120.991720328211	0.151747886398
0	11752	121.143468214609	0.000606880537
0	11754	121.144075095146	0.027365505944
0	11763	121.17144060109	0.038755917214
0	11768	121.210196518304	0.160279480225
0	11774	121.370475998529	0.074018596656
0	11779	121.444494595185	0.047350329945
0	11785	121.49184492513	0.002698300076
0	11787	121.494543225206	0.051211900221
0	11795	121.545755125427	0.126977030882
0	11803	121.672732156309	0.011807307967
0	11808	121.684539464276	0.04404832898
0	11813	121.728587793256	0.007388490415
0	11818	121.735976283671	0.001868456007
0	11820	121.737844739678	0.016812688686
0	11828	121.754657428364	0.015248154772
0	11833	121.769905583136	0.007963141791
0	11838	121.777868724927	0.184325318413
0	11847	121.96219404334	0.015161422615
0	11852	121.977355465955	0.052382343103
0	11857	122.029737809058	0.046567390657
0	11863	122.076305199715	0.006821881705
0	11865	122.08312708142	0.121613217425
0	11877	122.204740298845	0.02034226966
0	11882	122.225082568505	0.09508114241
0	11888	122.320163710915	0.036606018132
0	11893	122.356769729047	0.001973476188
0	11895	122.358743205235	0.001270357911
0	11897	122.360013563146	0.071950541764
0	11909	122.43196410491	0.031822479892
0	11914	122.463786584802	0.002875315026
0	11916	122.466661899828	0.0403370167
0	11926	122.506998916528	0.373645930079
0	11939	122.880644846607	0.016757274121
0	11944	122.897402120728	0.091980384346
0	11950	122.989382505074	0.053297046129
0	11956	123.042679551203	0.015789653796
0	11961	123.058469204999	0.083960373745
0	11966	123.142429578744	0.040413647428
0	11971	123.182843226172	0.016138231701
0	11976	123.198981457873	0.081778399901
0	11983	123.280759857774	0.058134024174
0	11991	123.338893881948	0.109882378806
0	12000	123.448776260754	0.061236149079
0	12007	123.510012409833	0.015592917125
0	12012	123.525605326958	0.178017379625
0	12021	123.703622706583	0.008628681287
0	12026	123.71225138787	0.090379359736
0	12034	123.802630747606	0.160485563632
0	12044	123.963116311238	0.113168929614
0	12049	124.076285240852	0.066658400782
0	12054	124.142943641634	0.040450093768
0	12059	124.183393735402	0.125386433261
0	12065	124.308780168663	0.012299698443
0	12070	124.321079867106	0.015867873715
0	12075	124.336947740821	0.328579131084
0	12085	124.665526871905	0.008265902613
0	12090	124.673792774518	0.008311310527
0	12095	124.682104085045	0.025876999929
0	12100	124.707981084974	0.038257903155
0	12105	124.746238988129	0.017477309004
0	12110	124.763716297133	0.004231341876
0	12112	124.767947639009	0.004532187655
0	12117	124.772479826664	0.17278462688
0	12128	124.945264453544	0.062050274326
0	12133	125.00731472787	0.201015906342
0	12140	125.208330634212	0.01735795969
0	12145	125.225688593902	0.076247167163
0	12152	125.301935761065	0.035894712921
0	12154	125.337830473986	0.025846314785
0	12160	125.363676788771	0.020405974989
0	12168	125.38408276376	0.017612544201
0	12173	125.401695307961	0.15244460623
0	12182	125.554139914191	0.018497853076
0	12187	125.572637767267	0.035893042486
0	12192	125.608530809753	0.008169394402
0	12197	125.616700204155	0.127144197167
0	12205	125.743844401322	0.04476869982
0	12210	125.788613101142	0.00270086885
0	12212	125.791313969992	0.009176294205
0	12217	125.800490264197	0.046046635382
0	12225	125.846536899579	0.022851969262
0	12230	125.869388868841	0.036168834263
0	12235	125.905557703104	0.059123414673
0	12240	125.964681117777	0.023681987953
0	12245	125.98836310573	0.078016603767
0	12253	126.066379709497	0.021416738177
0	12258	126.087796447674	0.001474328746
0	12260	126.08927077642	0.018619236882
0	12268	126.107890013302	0.033739345498
0	12273	126.1416293588	0.013353338219
0	12278	126.154982697019	0.063354653959
0	12285	126.218337350978	0.040711172909
0	12291	126.259048523887	0.11513984548
0	12297	126.374188369367	0.025399824363
0	12303	126.39958819373	0.038698550261
0	12309	126.438286743991	0.024082456513
0	12315	126.462369200504	0.208825885222
0	12327	126.671195085726	0.004110040907
0	12329	126.675305126633	0.018524746077
0	12338	126.69382987271	0.000837724095
0	12340	126.694667596805	0.000816046559
0	12342	126.695483643364	0.145591533547
0	12357	126.841075176911	0.039670181047
0	12363	126.880745357958	0.032041400443
0	12370	126.912786758401	0.017752032431
0	12377	126.930538790832	0.067814450336
0	12385	126.998353241168	0.10414010697
0	12393	127.102493348138	0.036132497643
0	12398	127.138625845781	0.015898328143
0	12403	127.154524173924	0.013436457627
0	12409	127.167960631551	0.022318560506
0	12414	127.190279192057	0.159107437525
0	12424	127.349386629582	0.093990588311
0	12433	127.443377217893	0.007851776147
0	12439	127.45122899404	0.075346131708
0	12444	127.526575125748	0.039394478549
0	12450	127.565969604297	0.048993679864
0	12455	127.614963284161	0.00577268965
0	12457	127.620735973811	0.073236232312
0	12465	127.693972206123	0.015625504169
0	12470	127.709597710292	0.032542781623
0	12475	127.742140491915	0.069390045969
0	12481	127.811530537884	0.000319451904
0	12483	127.811849989788	0.044845120531
0	12491	127.856695110319	0.000685205193
0	12493	127.857380315512	0.047917729826
0	12502	127.905298045338	0.042950786839
0	12507	127.948248832177	0.107112847055
0	12514	128.055361679232	0.005217910661
0	12516	128.060579589893	0.003762214335
0	12521	128.064341804228	0.003145561131
0	12523	128.067487365359	0.141123353104
0	12536	128.208610718463	0.202036698732
0	12543	128.410647417195	0.063200136812
0	12549	128.473847554007	0.117540847229
0	12558	128.591388401236	0.06145048674
0	12564	128.652838887976	0.009894405356
0	12569	128.662733293332	0.001840432541
0	12571	128.664573725873	3.9866173e-005
0	12573	128.664613592046	0.144525164442
0	12586	128.809138756488	0.170496057351
0	12593	128.979634813839	0.001702856927
0	12595	128.981337670766	0.019570847851
0	12603	129.000908518617	0.012307018531
0	12608	129.013215537148	0.012340147198
0	12613	129.025555684346	0.135750648227
0	12618	129.161306332573	0.070563583633
0	12623	129.231869916206	0.008130469658
0	12628	129.240000385864	0.006918169432
0	12630	129.246918555296	0.03044868984
0	12639	129.277367245136	0.01844448901
0	12644	129.295811734146	0.08563928188
0	12649	129.381451016026	0.221560423273
0	12657	129.603011439299	0.049662109305
0	12662	129.652673548604	0.061209603682
0	12667	129.713883152286	0.07866632782
0	12673	129.792549480106	0.044122934543
0	12678	129.836672414649	0.012854455308
0	12684	129.849526869957	0.030441759365
[...]
23	29505	307.248595345101	0.73900445499029
23	29616	307.987599800091	0.55895739720434
23	29662	308.546557197295	1.0263212538081
23	29748	309.572878451103	0.55837282414016
23	29820	310.131251275243	0.5785309012101
23	29879	310.709782176453	0.32466061734193
23	29892	311.034442793795	4.2615685077941
23	30291	315.296011301589	0.517538354055
23	30331	315.813549655644	0.27882963253486
23	30366	316.092379288179	4.630933818017
23	30810	320.723313106196	0.84543106870632
23	30893	321.568744174902	0.58975630804491
23	30925	322.158500482947	1.425492140159
23	31052	323.583992623106	0.5183302827941
23	31114	324.1023229059	0.26497494524904
23	31128	324.367297851149	0.67788637243832
23	31217	325.045184223587	0.13278845117369
23	31219	325.177972674761	1.3512587130827
23	31319	326.529231387844	0.5754570948023
23	31380	327.104688482646	0.84352752051243
23	31484	327.948216003158	0.021864909637454
23	31487	327.970080912795	0.60230434367264
23	31536	328.572385256468	0.33861933965901
23	31554	328.911004596127	0.45233368372738
23	31598	329.363338279854	0.5852866115323
23	31657	329.948624891386	4.746309517976
23	32168	334.694934409362	0.20672061599297
23	32189	334.901655025355	1.6139552336879
23	32351	336.515610259043	0.74411958513031
23	32419	337.259729844173	0.98503870975712
23	32454	338.24476855393	0.027455464941022
23	32460	338.272224018871	1.3577046061901
23	32605	339.629928625061	0.6472881294183
23	32656	340.277216754479	0.0081198671748602
23	32659	340.285336621654	1.0132907083054
23	32794	341.298627329959	0.59914789807117
23	32842	341.89777522803	1.408230117987
23	33004	343.306005346017	0.72617607225663
23	33082	344.032181418274	0.6548199859832
23	33128	344.687001404257	0.91209028285143
23	33187	345.599091687108	0.11524233257907
23	33193	345.714334019687	1.0228765555257
23	33291	346.737210575213	1.9962373149076
23	33463	348.733447890121	0.17021467250113
23	33465	348.903662562622	1.5468095761447
23	33595	350.450472138767	0.56602689336054
23	33640	351.016499032128	0.033439875726896
23	33641	351.049938907855	0.34007282905863
23	33675	351.390011736914	0.47363325734462
23	33706	351.863644994259	0.090785769099708
23	33707	351.954430763359	1.8265866338605
23	33963	353.78101739722	0.094352484795462
23	33983	353.875369882015	1.0511333437237
23	34084	354.926503225739	0.17500759288793
23	34103	355.101510818627	0.4986761719883
23	34147	355.600186990615	0.11180903654053
23	34151	355.711996027156	0.47975445988931
23	34180	356.191750487045	0.27881425264275
23	34208	356.470564739688	1.0088564673468
23	34284	357.479421207035	0.0094297455291515
23	34285	357.488850952564	0.27731784998994
23	34310	357.766168802554	0.57459928934381
23	34389	358.340768091898	0.83765261516914
23	34454	359.178420707067	3.0747713588692
23	34740	362.253192065936	2.2815816397705
23	34939	364.534773705707	0.30854419027933
23	34985	364.843317895986	2.6218223263402
23	35270	367.465140222326	0.63031172488637
23	35329	368.095451947212	0.85270331730344
23	35393	368.948155264515	0.77376400468018
23	35455	369.721919269195	0.078639366660445
23	35468	369.800558635855	0.11981330170305
23	35479	369.920371937558	0.67106998074287
23	35600	370.591441918301	0.86018950827604
23	35692	371.451631426577	0.044944678907242
23	35694	371.496576105484	1.0401903620623
23	35794	372.536766467546	0.56378927749546
23	35884	373.100555745041	0.62075277463987
23	35944	373.721308519681	0.74260640570068
23	36035	374.463914925382	0.3992392274992
23	36062	374.863154152881	1.852328525256
23	36203	376.715482678137	1.2686556552804
23	36350	377.984138333417	1.5897698638956
23	36508	379.573908197313	0.4210678388266
23	36547	379.99497603614	4.9306444668776
23	37058	384.925620503018	0.35923964885634
23	37080	385.284860151874	1.10915280706
23	37202	386.394012958934	1.3745705658817
23	37331	387.768583524816	2.8208554080057
23	37645	390.589438932822	0.45157763164851
23	37716	391.041016564471	1.6618504877112
23	37845	392.702867052182	2.5752290277002
23	38182	395.278096079882	1.8137552924469
23	38316	397.091851372329	0.18171281510329
23	38324	397.273564187432	1.3113902506107
23	38437	398.584954438043	2.7772557168719
24	1394	14.694997286335	0.43967405442543
24	1436	15.13467134076	0.87391368060988
24	1550	16.00858502137	2.458953234254
24	1770	18.467538255624	1.0831760170536
24	1880	19.550714272678	0.14381749864963
24	1883	19.694531771328	0.64787444522696
24	1937	20.342406216555	0.91374390912158
24	2059	21.256150125677	0.42501177435329
24	2080	21.68116190003	2.2551838808788
24	2280	23.936345780909	0.7688490026619
24	2370	24.705194783571	1.2023761550254
24	2490	25.907570938596	0.33631747386842
24	2519	26.243888412464	0.026738453737199
24	2520	26.270626866201	0.79739014047039
24	2607	27.068017006671	1.0308922230364
24	2712	28.098909229707	1.6038809522826
24	2899	29.70279018199	0.019167659521677
24	2900	29.721957841512	1.1039074314704
24	3021	30.825865272982	0.95517338546873
24	3134	31.781038658451	1.3620390347451
24	3238	33.143077693196	1.5010455147374
24	3362	34.644123207933	0.5352208710624
24	3409	35.179344078995	1.3340835296095
24	3535	36.513427608604	1.8451455877055
24	3714	38.358573196309	3.3461597666097
24	4122	41.704732962919	0.13378121731505
24	4133	41.838514180234	1.6354305130042
24	4321	43.473944693238	1.4106403630445
24	4458	44.884585056283	0.25956152164633
24	4483	45.144146577929	0.19169675516239
24	4505	45.335843333091	0.1609628772843
24	4512	45.496806210375	1.0284868503347
24	4585	46.52529306071	0.30040318238211
24	4617	46.825696243092	1.1789525800171
24	4739	48.004648823109	1.4368942026365
24	4922	49.441543025746	0.23145140511917
24	4958	49.672994430865	1.9083310872842
24	5133	51.581325518149	1.3021846350405
24	5243	52.88351015319	0.45552742292915
24	5287	53.339037576119	1.1846688142406
24	5358	54.52370639036	1.0982746432218
24	5457	55.621981033582	0.56586821992889
24	5546	56.187849253511	0.62259414149864
24	5589	56.81044339501	0.30207856352281
24	5620	57.112521958533	0.28710848763945
24	5646	57.399630446172	2.894239018021
24	5892	60.293869464193	0.47481906243599
24	5948	60.768688526629	1.1819955072578
24	6059	61.950684033887	0.44241683776017
24	6101	62.393100871647	0.45454931891953
24	6143	62.847650190567	0.22646036263016
24	6158	63.074110553197	0.29202058535558
24	6200	63.366131138553	1.4689553163513
24	6383	64.835086454904	0.32887675279091
24	6422	65.163963207695	1.4887143856679
24	6530	66.652677593363	0.74059383642616
24	6595	67.393271429789	1.0636546405962
24	6671	68.456926070385	2.3252868339298
24	6909	70.782212904315	0.10366043279066
24	6916	70.885873337106	2.3418059020736
24	7136	73.22767923918	0.10102625884345
24	7138	73.328705498023	0.17695610968153
24	7169	73.505661607705	0.26730608724886
24	7195	73.772967694954	0.35599127566208
24	7231	74.128958970616	1.540569013254
24	7345	75.66952798387	0.01893631190737
24	7348	75.688464295777	0.036440956845967
24	7354	75.724905252623	0.4173503927332
24	7386	76.142255645356	0.61278315833401
24	7413	76.75503880369	0.71631084956748
24	7514	77.471349653257	0.66275855237338
24	7569	78.13410820563	0.19938836478075
24	7585	78.333496570411	0.38257680013063
24	7603	78.716073370542	2.4027359873877
24	7838	81.11880935793	3.3088835253282
24	8189	84.427692883258	0.045799947292815
24	8196	84.473492830551	0.79051522104153
24	8252	85.264008051593	0.45950411592172
24	8358	85.723512167515	0.83036033772336
24	8433	86.553872505238	0.41206628109016
24	8493	86.965938786328	0.56935441232993
24	8546	87.535293198658	1.6196347301959
24	8724	89.154927928854	1.0601953145557
24	8804	90.21512324341	3.0219480392146
24	9047	93.237071282625	1.2610668953184
24	9170	94.498138177943	0.89619174981765
24	9250	95.394329927761	0.99652273358377
24	9348	96.390852661345	0.70122360129927
24	9429	97.092076262644	0.22800043211589
24	9453	97.32007669476	2.5647648599224
24	9749	99.884841554682	0.2194257901292
24	9774	100.104267344811	0.075074174006745
24	9779	100.179341518818	1.8715023302867
24	9978	102.050843849105	1.6740708157717
24	10124	103.724914664877	0.34313596820716
24	10162	104.068050633084	0.50651879387211
24	10223	104.574569426956	0.80047788627469
24	10309	105.375047313231	0.023379542739996
24	10310	105.398426855971	0.22076592246664
24	10319	105.619192778438	0.61520895590748
24	10392	106.234401734345	0.81563957813097
24	10442	107.050041312476	0.31363213314067
24	10464	107.363673445617	2.0828179506439
24	10690	109.446491396261	0.53071900523094
24	10739	109.977210401492	1.2025960267008
24	10842	111.179806428193	3.3847585772752
24	11150	114.564565005468	1.0970666756907
24	11243	115.661631681159	0.37668555152446
24	11280	116.038317232683	1.0293998116844
24	11384	117.067717044367	0.35904213878779
24	11411	117.426759183155	1.6546686111387
24	11535	119.081427794294	0.8645233433949
24	11611	119.945951137689	0.97827579882918
24	11734	120.924226936518	0.15014531699878
24	11750	121.074372253517	0.22096165563113
24	11773	121.295333909148	0.16655150753998
24	11784	121.461885416688	0.96661869152468
24	11908	122.428504108213	0.12062524160867
24	11929	122.549129349822	1.2619321597628
24	12039	123.811061509585	0.42076903418356
24	12064	124.231830543769	0.59753499212284
24	12125	124.829365535892	0.8900862005824
24	12204	125.719451736474	0.79972053180049
24	12322	126.519172268274	0.002064370661587
24	12323	126.521236638936	0.11136726403573
24	12326	126.632603902972	3.4465875157536
24	12720	130.079191418726	1.7328147055348
24	12828	131.812006124261	1.9551261244179
24	12994	133.767132248679	0.19550659096755
24	13011	133.962638839647	0.46043680483943
24	13056	134.423075644486	0.10039243872885
24	13068	134.523468083215	2.2021118775762
24	13251	136.725579960791	2.4909005567922
24	13531	139.216480517583	0.69920832050737
24	13589	139.91568883809	1.5821694797552
24	13742	141.497858317845	0.19892737080419
24	13763	141.696785688649	0.23957348415343
24	13792	141.936359172802	0.56160576231797
24	13820	142.49796493512	0.99236575872442
24	13903	143.490330693844	4.5408052440417
24	14331	148.031135937886	2.8359861518048
24	14604	150.867122089691	0.7829032118118
24	14670	151.650025301503	2.0518178415507
24	14814	153.701843143054	0.21175914948661
24	14837	153.913602292541	0.34369635332662
24	14850	154.257298645868	0.25374506976215
24	14864	154.51104371563	0.90129391528681
24	14921	155.412337630917	0.75680430359851
24	15000	156.169141934516	0.54432891150694
24	15073	156.713470846023	1.3768623351454
24	15231	158.090333181168	0.50079110488677
24	15270	158.591124286055	1.0713025409
24	15342	159.662426826955	0.24098539849751
24	15359	159.903412225453	0.07284780326741
24	15366	159.97626002872	0.46009424076122
24	15412	160.436354269481	1.4939741345013
24	15527	161.930328403982	1.5469250630909
24	15667	163.477253467073	0.55150367927992
24	15739	164.028757146353	0.090216255147249
24	15741	164.1189734015	0.78864422907128
24	15838	164.907617630571	0.0022114824650703
24	15839	164.909829113036	0.38967957484725
24	15895	165.299508687883	0.63769673071544
24	15974	165.937205418598	0.69746982640828
24	16038	166.634675245006	0.2786331023127
24	16064	166.913308347319	1.4191716668678
24	16174	168.332480014187	1.7716304889801
24	16385	170.104110503167	0.33573195325522
24	16404	170.439842456422	0.013087224662335
24	16405	170.452929681084	0.26129694828606
24	16426	170.71422662937	1.243939162538
24	16528	171.958165791908	0.24326237809894
24	16542	172.201428170007	0.62928176437138
24	16604	172.830709934378	0.13888299362812
24	16623	172.969592928006	0.75121394833068
24	16676	173.720806876337	0.17549031122213
24	16702	173.896297187559	0.25206058943553
24	16729	174.148357776995	3.1601748860203
24	17020	177.308532663015	0.5094635773275
24	17069	177.817996240342	0.74674600786
24	17142	178.564742248202	0.36860803612323
24	17178	178.933350284325	2.0355456767714
24	17369	180.968895961096	1.8784569217655
24	17559	182.847352882862	0.014343611822061
24	17560	182.861696494684	0.94619426153017
24	17638	183.807890756214	0.29386985076195
24	17669	184.101760606976	0.14062126264717
24	17689	184.242381869623	0.23701520978002
24	17718	184.479397079403	0.51290908775787
24	17755	184.992306167161	1.5966678297238
24	17897	186.588973996885	2.9183480702779
24	18124	189.507322067163	1.036747706949
24	18252	190.544069774112	0.44460122537837
24	18285	190.98867099949	0.11285081626084
24	18287	191.101521815751	1.9186828718499
24	18469	193.020204687601	4.1020930957407
24	18883	197.122297783342	1.1439714823622
24	18963	198.266269265704	0.0077133535963422
24	18964	198.2739826193	0.42563441205148
24	19014	198.699617031351	0.07978549046651
24	19025	198.779402521818	3.8911892172735
24	19376	202.670591739091	0.90327891175312
24	19458	203.573870650844	0.66969492051196
24	19524	204.243565571356	0.021341669000509
24	19526	204.264907240357	0.60021525656953
24	19571	204.865122496927	0.86715030005066
24	19670	205.732272796978	0.22992400611357
24	19680	205.962196803092	1.1844831858359
24	19772	207.146679988928	2.0847152987308
24	20022	209.231395287659	0.36300440413605
24	20051	209.594399691795	1.438281901161
24	20211	211.032681592956	0.88520887666374
24	20293	211.91789046962	0.55867712065575
24	20362	212.476567590276	0.025339160955372
24	20368	212.501906751231	4.1017514687894
24	20838	216.60365822002	1.4240492266165
24	20977	218.027707446636	1.536770162383
24	21102	219.564477609019	0.57840377377262
24	21129	220.142881382792	0.59084662944018
24	21201	220.733728012232	1.8122246800499
24	21348	222.545952692282	0.20571318473858
24	21359	222.751665877021	5.2881247296081
24	21839	228.039790606629	1.736366380609
24	22014	229.776156987238	0.89037256484805
24	22104	230.666529552086	0.56651810619065
24	22145	231.233047658277	0.14435578748677
24	22173	231.377403445764	0.7711589101986
24	22260	232.148562355963	1.1613581055114
24	22359	233.309920461474	0.41517290763806
24	22404	233.725093369112	3.8587749080143
24	22777	237.583868277126	0.48501731725522
24	22821	238.068885594381	2.0975816350447
24	23025	240.166467229426	1.2333321209811
24	23139	241.399799350407	1.9450689312616
24	23318	243.344868281669	1.7837545334246
24	23502	245.128622815094	0.92474056271148
24	23615	246.053363377805	0.65734173890445
24	23701	246.710705116709	1.607263945392
24	23851	248.317969062101	0.46617650174654
24	23905	248.784145563848	1.4147091881407
24	24044	250.198854751989	4.1487862986853
24	24495	254.347641050674	0.040019514874955
24	24496	254.387660565549	0.28424401404152
24	24510	254.671904579591	0.023442162593833
24	24512	254.695346742185	0.53883627326766
24	24589	255.234183015453	2.6126667692375
24	24847	257.84684978469	0.095183037582624
24	24856	257.942032822273	0.018965354411358
24	24857	257.960998176684	0.301439627901
24	24889	258.262437804585	1.5689851925308
24	25023	259.831422997116	0.30779299851768
24	25048	260.139215995634	0.37954596121533
24	25071	260.518761956849	3.8050220379814
24	25465	264.32378399483	2.3850012454905
24	25667	266.70878524032	0.22497486266822
24	25705	266.933760102988	1.629010148057
24	25818	268.562770251045	0.45414349797611
24	25877	269.016913749021	2.5625231541937
24	26130	271.579436903215	1.4916391247187
24	26242	273.071076027934	1.6850318563572
24	26413	274.756107884291	0.16172219826826
24	26425	274.917830082559	0.37688421433784
24	26459	275.294714296897	1.5125375378966
24	26572	276.807251834794	1.1695016278856
24	26673	277.97675346268	0.7406399304006
24	26733	278.717393393081	0.1358840676564
24	26757	278.853277460737	0.18194380669387
24	26768	279.035221267431	1.4773792075242
24	26887	280.512600474955	0.49749715049356
24	26931	281.010097625449	0.68524779171804
24	27008	281.695345417167	0.20708425032232
24	27011	281.902429667489	1.2895874497844
24	27154	283.192017117273	0.25326462217148
24	27170	283.445281739444	0.86350039528516
24	27235	284.308782134729	3.5073362183197
24	27574	287.816118353049	0.9639987344029
24	27665	288.780117087452	0.022089883200136
24	27666	288.802206970652	1.5310954843819
24	27793	290.333302455034	0.7346670150558
24	27858	291.06796947009	0.057519463365696
24	27860	291.125488933456	1.0699167774418
24	27964	292.195405710898	0.48936231999092
24	28018	292.684768030889	1.946945755157
24	28262	294.631713786046	1.6221585710215
24	28424	296.253872357067	0.50749174265349
24	28506	296.76136409972	0.6615304535558
24	28557	297.422894553276	3.2078941238656
24	28836	300.630788677142	0.011079071763467
24	28837	300.641867748905	0.32942060628504
24	28875	300.97128835519	0.66001416475114
24	28946	301.631302519941	1.669403694743
24	29103	303.300706214684	0.18962289904295
24	29116	303.490329113727	0.57338799281005
24	29182	304.063717106537	4.7677442572192
24	29684	308.831461363756	1.0787262407006
24	29792	309.910187604457	1.293825823103
24	29903	311.20401342756	0.4554909917481
24	29944	311.659504419308	1.4212390930873
24	30074	313.080743512395	1.3773879856937
24	30186	314.458131498089	3.6632412009744
24	30569	318.121372699063	0.2665354679025
24	30609	318.387908166965	0.21524959759701
24	30632	318.603157764562	1.4326897741784
24	30742	320.03584753874	1.9052929502416
24	30906	321.941140488982	0.70008762335905
24	30968	322.641228112341	0.99967892331654
24	31060	323.640907035658	0.1436517099835
24	31085	323.784558745641	1.2562885250057
24	31216	325.040847270647	2.373320571098
24	31428	327.414167841745	0.36620863377908
24	31460	327.780376475524	0.7124305782309
24	31529	328.492807053755	3.3157478971422
24	31873	331.808554950897	0.00090222306082665
24	31874	331.809457173958	1.2732047157466
24	31976	333.082661889705	0.040118023567567
24	31977	333.122779913273	0.061931472949913
24	31990	333.184711386223	0.66927000394999
24	32089	333.853981390173	1.486589417964
24	32235	335.340570808137	0.27178677620853
24	32261	335.612357584346	3.7934258613122
24	32561	339.405783445658	1.6602100890288
24	32776	341.065993534687	0.63175168053391
24	32824	341.697745215221	0.36197155631365
24	32869	342.059716771535	0.97418794417099
24	32984	343.033904715706	0.20974448128438
24	32992	343.24364919699	1.5594645591906
24	33129	344.803113756181	0.077723082809
24	33136	344.88083683899	0.8896160953299
24	33204	345.77045293432	0.32228241076551
24	33235	346.092735345086	1.2234940387595
24	33349	347.316229383846	3.409458060408
24	33626	350.725687444254	0.22386105096209
24	33634	350.949548495216	2.5564183181861
24	33900	353.505966813402	0.35053678800919
24	33979	353.856503601411	0.19342304202463
24	34016	354.049926643436	0.77102407563944
24	34079	354.820950719075	0.82252851030624
24	34148	355.643479229381	1.2855917792049
24	34231	356.929071008586	1.7733347708792
24	34407	358.702405779465	0.16995933561021
24	34425	358.872365115075	0.48610203345879
24	34461	359.358467148534	1.124410363339
24	34581	360.482877511873	1.0973677775434
24	34685	361.580245289416	0.61862690288173
24	34734	362.198872192298	0.92426228263046
24	34824	363.123134474928	1.0778993872494
24	34920	364.201033862177	3.8874537730683
24	35328	368.088487635245	2.977356381902
24	35653	371.065844017147	3.3728779077365
24	36034	374.438721924884	0.099630004666494
24	36039	374.53835192955	1.3017368666694
24	36148	375.840088796219	0.91150966237242
24	36205	376.751598458591	2.3197351225496
24	36466	379.071333581141	0.63148868194099
24	36528	379.702822263082	0.010527525332926
24	36531	379.713349788415	2.6363555599883
24	36776	382.349705348403	0.48949562505167
24	36842	382.839200973455	0.10050730321371
24	36855	382.939708276669	0.4051681124685
24	36904	383.344876389137	0.050667824391983
24	36912	383.395544213529	0.39547500514541
24	36948	383.791019218674	0.76468179852956
24	37031	384.555701017204	2.1448087596557
24	37239	386.70050977686	0.11026853266299
24	37246	386.810778309523	2.0728173181838
24	37446	388.883595627707	1.1658847216272
24	37602	390.049480349334	0.12128791935148
24	37604	390.170768268685	0.27137072165627
24	37623	390.442138990341	1.6817965604144
24	37795	392.123935550755	0.62268557893382
24	37852	392.746621129689	0.31556510829077
24	37909	393.06218623798	0.66095247382854
24	37994	393.723138711809	1.0476162640535
24	38109	394.770754975862	0.98372595101264
24	38207	395.754480926875	0.90546094481904
24	38280	396.659941871694	0.61537260438181
24	38325	397.275314476076	1.1814623719697
24	38418	398.456776848046	0.17141433155207
24	38440	398.628191179598	2.7404127243163

