file 10055131 1613553647                                        
version 2
run Exponential-capacity-2-20210217-10:20:45-5772
attr configname Exponential-capacity
attr datetime 20210217-10:20:45
attr experiment Exponential-capacity
attr inifile aerocom.ini
attr iterationvars "$0=9, $1=2.5"
attr iterationvarsf 9,2.5-
attr measurement "$0=9, $1=2.5"
attr network Aerocom
attr processid 5772
attr repetition 0
attr replication #0
attr resultdir results
attr runnumber 2
attr seedset 0
param **.t 3s
param **.k 9ms
param **.X 0.5s
param **.m 2.5s
param **.tDistribution "\"exponential\""
param **.operationMode 0
param **.s "70 byte"
param **.dimPoolMax 10000
param **.dimPoolMin 8000
param **.nDL 10
param **.nA 1
param **.DLMaxCapacity 0
param **.trasmitting false

vector 0 Aerocom.aircraft[0].dataLink[0] actualCapacity:vector ETV
attr "" ""
attr source computeActualCapacity
vector 1 Aerocom.aircraft[0].dataLink[1] actualCapacity:vector ETV
attr "" ""
attr source computeActualCapacity
vector 2 Aerocom.aircraft[0].dataLink[2] actualCapacity:vector ETV
attr "" ""
attr source computeActualCapacity
vector 3 Aerocom.aircraft[0].dataLink[3] actualCapacity:vector ETV
attr "" ""
attr source computeActualCapacity
vector 4 Aerocom.aircraft[0].dataLink[4] actualCapacity:vector ETV
attr "" ""
attr source computeActualCapacity
vector 5 Aerocom.aircraft[0].dataLink[5] actualCapacity:vector ETV
attr "" ""
attr source computeActualCapacity
vector 6 Aerocom.aircraft[0].dataLink[6] actualCapacity:vector ETV
attr "" ""
attr source computeActualCapacity
vector 7 Aerocom.aircraft[0].dataLink[7] actualCapacity:vector ETV
attr "" ""
attr source computeActualCapacity
vector 8 Aerocom.aircraft[0].dataLink[8] actualCapacity:vector ETV
attr "" ""
attr source computeActualCapacity
vector 9 Aerocom.aircraft[0].dataLink[9] actualCapacity:vector ETV
attr "" ""
attr source computeActualCapacity
vector 10 Aerocom.aircraft[0].packetGenerator arrivalTime:vector ETV
attr "" ""
attr source computeArrivalTime
vector 11 Aerocom.aircraft[0].linkSelector responseTime:vector ETV
attr "" ""
attr source computeResponseTime
vector 12 Aerocom.aircraft[0].linkSelector waitingTime:vector ETV
attr "" ""
attr source computeWaitingTime
vector 13 Aerocom.aircraft[0].linkSelector queueLength:vector ETV
attr "" ""
attr source computeQueueLength
vector 14 Aerocom.aircraft[0].linkSelector serviceTime:vector ETV
attr "" ""
attr source computeServiceTime
vector 15 Aerocom.aircraft[0].dataLink[4] tDistribution:vector ETV
attr "" ""
attr source computeTDistribution
vector 16 Aerocom.aircraft[0].dataLink[6] tDistribution:vector ETV
attr "" ""
attr source computeTDistribution
vector 17 Aerocom.aircraft[0].dataLink[1] tDistribution:vector ETV
attr "" ""
attr source computeTDistribution
vector 18 Aerocom.aircraft[0].dataLink[5] tDistribution:vector ETV
attr "" ""
attr source computeTDistribution
vector 19 Aerocom.aircraft[0].dataLink[8] tDistribution:vector ETV
attr "" ""
attr source computeTDistribution
vector 20 Aerocom.aircraft[0].dataLink[0] tDistribution:vector ETV
attr "" ""
attr source computeTDistribution
vector 21 Aerocom.aircraft[0].dataLink[2] tDistribution:vector ETV
attr "" ""
attr source computeTDistribution
vector 22 Aerocom.aircraft[0].dataLink[7] tDistribution:vector ETV
attr "" ""
attr source computeTDistribution
vector 23 Aerocom.aircraft[0].dataLink[9] tDistribution:vector ETV
attr "" ""
attr source computeTDistribution
vector 24 Aerocom.aircraft[0].dataLink[3] tDistribution:vector ETV
attr "" ""
attr source computeTDistribution
11	3580 1374915 6060 192851 10.006636176719 301.893536922576 32768 0.007005604484 0.732232291529 2314.427446817 839.41855167184
10	1378495 1374788 6058 192854 10.005231214764 301.895187569655 32768 3.6099e-008 0.096500924816 291.90165072413 5.2073499154391
12	2753283 1241564 6063 192856 10.00714325385 301.900642078889 32768 0 0.724649969172 2073.1633388014 806.92417885819
13	3994847 957576 6063 192856 10.00714325385 301.900642078889 32768 0 78 231371 10210867
14	4952423 1505337 6063 192856 10.00714325385 301.900642078889 32768 0.0070049034324027 0.0087227414330218 241.27705002723 1.7798824576411
0	6457760 166924 6057 253521 10 400 5366 8064 9894 50867191 483189632735
1	6624684 169421 6057 253521 10 400 5426 8110 9920 51648036 492161634058
2	6794105 87636 6057 253521 10 400 2886 8027 9950 27184538 256596420950
3	6881741 115896 6057 253521 10 400 3786 8077 9942 36205825 346668303523
4	6997637 115183 6057 253521 10 400 3781 8018 9965 35785511 339587403941
5	7112820 164892 6057 253521 10 400 5279 8111 9986 50176252 477528027160
6	7277712 127993 6057 253521 10 400 4161 8089 9960 39160207 369377970493
7	7405705 126326 6057 253521 10 400 4078 8025 9987 38443511 363254320215
8	7532031 165202 6057 253521 10 400 5423 8046 9993 52002201 499491442549
9	7697233 149661 6057 253521 10 400 4842 8060 9935 45944166 436636301360
10	7846894 457363 192859 253510 301.906881938898 399.984749715246 10690 2.075485e-006 0.093155895855 98.130373617798 1.8051015975744
11	8304257 457445 192856 253517 301.900642078889 399.992294444714 10692 0.007026701466 0.728092517974 812.21212662739 290.23360622094
12	8761702 414464 192861 253511 301.907747956465 399.984749715246 10690 0 0.720573720982 733.03179959708 278.88652711609
13	9176166 321305 192861 253511 301.907747956465 399.984749715246 10690 0 75 82586 3611284
14	9497471 499839 192861 253511 301.907747956465 399.984749715246 10690 0.0070245860511791 0.0086999751429282 79.146369053303 0.5871750029704
15	9997310 6737 6184 251942 10.203684607688 397.281470896017 155 0.010739517205868 10.933740481042 391.20523465692 1867.3384032852
16	10004047 5584 6222 253281 10.276687748401 399.582664491057 128 0.0046257705518035 21.866676562641 394.65348847132 2680.3533415531
17	10009631 5204 6275 253297 10.379485951627 399.598350968059 120 0.010023053548118 19.095471434865 392.76340000707 2407.0567308421
18	10014835 6332 6369 253118 10.512701937009 399.26724886852 146 0.0074565261417224 13.460148239681 393.83660967434 2049.2077779932
19	10021167 4768 6909 249338 11.360882962893 393.499445083393 110 0.00037077544349613 23.253607185995 395.47160748284 3033.4957189197
20	10025935 5777 7295 251582 11.986246086418 396.616178795411 133 0.039976272460222 11.530792426723 388.43385299836 2058.0400242859
21	10031712 5925 7370 250875 12.109370541993 395.436018372776 136 0.0061931119847609 15.274890465208 389.19202620404 2037.979323136
22	10037637 5701 7537 252878 12.313726549034 398.971737981676 131 0.029300814333314 15.865257109258 388.93846333758 2425.3017972606
23	10043338 5612 8087 253156 13.034736668212 399.363504255394 129 0.0077577452830852 19.513402438353 388.62563507912 2515.9534008334
24	10048950 6179 11742 252599 18.527692622347 398.597767503948 142 0.0056532962066554 13.09960706888 383.31012451243 1994.1847888339

