file 1775883 1613502077                                         
version 2
run Exponential-capacity-15-20210216-20:01:16-5736
attr configname Exponential-capacity
attr datetime 20210216-20:01:16
attr experiment Exponential-capacity
attr inifile aerocom.ini
attr iterationvars "$0=60, $1=0.3"
attr iterationvarsf 60,0.3-
attr measurement "$0=60, $1=0.3"
attr network Aerocom
attr processid 5736
attr repetition 0
attr replication #0
attr resultdir results
attr runnumber 15
attr seedset 0
param **.t 1s
param **.k 60ms
param **.X 50ms
param **.m 0.3s
param **.tDistribution "\"exponential\""
param **.operationMode 0
param **.s "70 byte"
param **.dimPoolMax 10000
param **.dimPoolMin 8000
param **.nDL 10
param **.nA 1
param **.DLMaxCapacity 0
param **.trasmitting false

vector 0 Aerocom.aircraft[0].packetGenerator arrivalTime:vector ETV
attr "" ""
attr source computeArrivalTime
vector 1 Aerocom.aircraft[0].linkSelector waitingTime:vector ETV
attr "" ""
attr source computeWaitingTime
vector 2 Aerocom.aircraft[0].linkSelector queueLength:vector ETV
attr "" ""
attr source computeQueueLength
vector 3 Aerocom.aircraft[0].dataLink[8] actualCapacity:vector ETV
attr "" ""
attr source computeActualCapacity
vector 4 Aerocom.aircraft[0].linkSelector serviceTime:vector ETV
attr "" ""
attr source computeServiceTime
vector 5 Aerocom.aircraft[0].linkSelector responseTime:vector ETV
attr "" ""
attr source computeResponseTime
vector 6 Aerocom.aircraft[0].dataLink[4] tDistribution:vector ETV
attr "" ""
attr source computeTDistribution
vector 7 Aerocom.aircraft[0].dataLink[0] actualCapacity:vector ETV
attr "" ""
attr source computeActualCapacity
vector 8 Aerocom.aircraft[0].dataLink[1] actualCapacity:vector ETV
attr "" ""
attr source computeActualCapacity
vector 9 Aerocom.aircraft[0].dataLink[2] actualCapacity:vector ETV
attr "" ""
attr source computeActualCapacity
vector 10 Aerocom.aircraft[0].dataLink[3] actualCapacity:vector ETV
attr "" ""
attr source computeActualCapacity
vector 11 Aerocom.aircraft[0].dataLink[4] actualCapacity:vector ETV
attr "" ""
attr source computeActualCapacity
vector 12 Aerocom.aircraft[0].dataLink[5] actualCapacity:vector ETV
attr "" ""
attr source computeActualCapacity
vector 13 Aerocom.aircraft[0].dataLink[6] actualCapacity:vector ETV
attr "" ""
attr source computeActualCapacity
vector 14 Aerocom.aircraft[0].dataLink[7] actualCapacity:vector ETV
attr "" ""
attr source computeActualCapacity
vector 15 Aerocom.aircraft[0].dataLink[9] actualCapacity:vector ETV
attr "" ""
attr source computeActualCapacity
vector 16 Aerocom.aircraft[0].dataLink[5] tDistribution:vector ETV
attr "" ""
attr source computeTDistribution
vector 17 Aerocom.aircraft[0].dataLink[0] tDistribution:vector ETV
attr "" ""
attr source computeTDistribution
vector 18 Aerocom.aircraft[0].dataLink[3] tDistribution:vector ETV
attr "" ""
attr source computeTDistribution
vector 19 Aerocom.aircraft[0].dataLink[8] tDistribution:vector ETV
attr "" ""
attr source computeTDistribution
vector 20 Aerocom.aircraft[0].dataLink[9] tDistribution:vector ETV
attr "" ""
attr source computeTDistribution
vector 21 Aerocom.aircraft[0].dataLink[6] tDistribution:vector ETV
attr "" ""
attr source computeTDistribution
vector 22 Aerocom.aircraft[0].dataLink[1] tDistribution:vector ETV
attr "" ""
attr source computeTDistribution
vector 23 Aerocom.aircraft[0].dataLink[7] tDistribution:vector ETV
attr "" ""
attr source computeTDistribution
vector 24 Aerocom.aircraft[0].dataLink[2] tDistribution:vector ETV
attr "" ""
attr source computeTDistribution
0	3586 256830 1000 40132 10.002239996404 399.941012287251 6369 3.321114e-006 0.61394892745 390.12588975903 47.967875753031
1	260416 191500 1001 40135 10.002239996404 399.9572863537 6369 0 0.0565999647 33.205008526369 1.0668097132731
2	451916 168565 1001 40135 10.002239996404 399.9572863537 6369 0 5 545 881
3	620481 45240 1001 40129 10.002239996404 399.9 1982 8029 9995 18331762 170049459586
4	665721 276072 1001 40135 10.002239996404 399.9572863537 6369 0.0070035017508754 0.0087238285144566 46.275667774086 0.33650961477556
5	941793 256841 1002 40138 10.009366854478 399.964571190832 6369 0.007003501751 0.063988607301 79.480676300285 1.8831551766312
6	1198634 18836 1017 40106 10.195530479815 399.531824074835 448 0.00046858062143858 4.5969873950114 392.60944509323 663.24396395861
7	1217470 50138 1021 40129 10.2 399.9 2152 8007 9971 19963849 185742645871
8	1267608 43982 1021 40129 10.2 399.9 1938 8029 9961 17928699 166297247147
9	1311590 39850 1021 40129 10.2 399.9 1799 8007 9975 16428501 150549715473
10	1351440 52561 1021 40129 10.2 399.9 2150 8032 9972 20003083 186655512193
11	1404001 43535 1021 40129 10.2 399.9 1859 8004 9972 17012542 156220409022
12	1447536 46275 1021 40129 10.2 399.9 1952 8003 9986 18024972 166898252712
13	1493811 42223 1021 40135 10.2 399.9572863537 1820 8020 9977 16700123 153720362241
14	1536034 44080 1021 40129 10.2 399.9 1883 8018 9987 17303280 159496245938
15	1580114 42736 1021 40129 10.2 399.9 1834 8018 9966 16785983 154122253905
16	1622850 16009 1024 40011 10.231100016177 398.599861515051 373 0.0024855087139075 5.8553159328738 390.84022742546 802.17398724391
17	1638859 17841 1044 40012 10.427056730335 398.62556036574 414 0.004703906220746 5.6853850636561 391.58372694686 721.55513685387
18	1656700 17871 1062 40097 10.589143172582 399.384120383163 415 0.0018844320688851 5.4400638357789 389.86273410498 710.29195188133
19	1674571 17354 1101 40062 11.019995833196 399.139608699086 402 0.00012359181449871 7.7512023953318 390.10962708975 845.86750006598
20	1691925 16663 1118 39936 11.167216926612 397.8417113111 387 0.0025859150943617 6.5044674794512 388.92988761984 770.5822460086
21	1708588 16140 1187 39959 11.770581468296 398.054009604438 375 0.0015419235172678 7.2888921875472 388.51856274567 827.55298216986
22	1724728 16842 1270 39872 12.476454100424 396.963073561627 391 0.0027066362142686 6.3651571449549 387.88865806586 753.37949136275
23	1741570 18022 1357 40010 13.481960993213 398.584954438043 418 0.00038836613746553 5.4284265520006 387.88024916169 747.54762606095
24	1759592 16289 1457 40013 14.694997286335 398.628191179598 379 0.00090222306082665 5.2881247296081 386.67360661758 751.94746314648

