file 2519886 1613553641                                         
version 2
run Exponential-capacity-10-20210217-10:20:41-1044
attr configname Exponential-capacity
attr datetime 20210217-10:20:41
attr experiment Exponential-capacity
attr inifile aerocom.ini
attr iterationvars "$0=35, $1=2.5"
attr iterationvarsf 35,2.5-
attr measurement "$0=35, $1=2.5"
attr network Aerocom
attr processid 1044
attr repetition 0
attr replication #0
attr resultdir results
attr runnumber 10
attr seedset 0
param **.t 3s
param **.k 35ms
param **.X 0.5s
param **.m 2.5s
param **.tDistribution "\"exponential\""
param **.operationMode 0
param **.s "70 byte"
param **.dimPoolMax 10000
param **.dimPoolMin 8000
param **.nDL 10
param **.nA 1
param **.DLMaxCapacity 0
param **.trasmitting false

vector 0 Aerocom.aircraft[0].dataLink[0] actualCapacity:vector ETV
attr "" ""
attr source computeActualCapacity
vector 1 Aerocom.aircraft[0].dataLink[1] actualCapacity:vector ETV
attr "" ""
attr source computeActualCapacity
vector 2 Aerocom.aircraft[0].dataLink[2] actualCapacity:vector ETV
attr "" ""
attr source computeActualCapacity
vector 3 Aerocom.aircraft[0].dataLink[3] actualCapacity:vector ETV
attr "" ""
attr source computeActualCapacity
vector 4 Aerocom.aircraft[0].dataLink[4] actualCapacity:vector ETV
attr "" ""
attr source computeActualCapacity
vector 5 Aerocom.aircraft[0].dataLink[5] actualCapacity:vector ETV
attr "" ""
attr source computeActualCapacity
vector 6 Aerocom.aircraft[0].dataLink[6] actualCapacity:vector ETV
attr "" ""
attr source computeActualCapacity
vector 7 Aerocom.aircraft[0].dataLink[7] actualCapacity:vector ETV
attr "" ""
attr source computeActualCapacity
vector 8 Aerocom.aircraft[0].dataLink[8] actualCapacity:vector ETV
attr "" ""
attr source computeActualCapacity
vector 9 Aerocom.aircraft[0].dataLink[9] actualCapacity:vector ETV
attr "" ""
attr source computeActualCapacity
vector 10 Aerocom.aircraft[0].packetGenerator arrivalTime:vector ETV
attr "" ""
attr source computeArrivalTime
vector 11 Aerocom.aircraft[0].linkSelector waitingTime:vector ETV
attr "" ""
attr source computeWaitingTime
vector 12 Aerocom.aircraft[0].linkSelector queueLength:vector ETV
attr "" ""
attr source computeQueueLength
vector 13 Aerocom.aircraft[0].linkSelector serviceTime:vector ETV
attr "" ""
attr source computeServiceTime
vector 14 Aerocom.aircraft[0].linkSelector responseTime:vector ETV
attr "" ""
attr source computeResponseTime
vector 15 Aerocom.aircraft[0].dataLink[4] tDistribution:vector ETV
attr "" ""
attr source computeTDistribution
vector 16 Aerocom.aircraft[0].dataLink[6] tDistribution:vector ETV
attr "" ""
attr source computeTDistribution
vector 17 Aerocom.aircraft[0].dataLink[1] tDistribution:vector ETV
attr "" ""
attr source computeTDistribution
vector 18 Aerocom.aircraft[0].dataLink[5] tDistribution:vector ETV
attr "" ""
attr source computeTDistribution
vector 19 Aerocom.aircraft[0].dataLink[8] tDistribution:vector ETV
attr "" ""
attr source computeTDistribution
vector 20 Aerocom.aircraft[0].dataLink[0] tDistribution:vector ETV
attr "" ""
attr source computeTDistribution
vector 21 Aerocom.aircraft[0].dataLink[2] tDistribution:vector ETV
attr "" ""
attr source computeTDistribution
vector 22 Aerocom.aircraft[0].dataLink[7] tDistribution:vector ETV
attr "" ""
attr source computeTDistribution
vector 23 Aerocom.aircraft[0].dataLink[9] tDistribution:vector ETV
attr "" ""
attr source computeTDistribution
vector 24 Aerocom.aircraft[0].dataLink[3] tDistribution:vector ETV
attr "" ""
attr source computeTDistribution
0	3586 43836 1534 59982 10 400 1493 8064 9894 14084492 133177719856
1	47422 45740 1534 59982 10 400 1550 8110 9921 14690415 139427660313
2	93162 24004 1534 59982 10 400 859 8027 9888 8034588 75333398096
3	117166 30241 1534 59982 10 400 1058 8077 9942 10053178 95681280902
4	147407 31242 1534 59982 10 400 1101 8018 9960 10351398 97616047862
5	178649 41117 1534 59982 10 400 1403 8111 9986 13296803 126217610569
6	219766 33237 1534 59982 10 400 1150 8090 9912 10738793 100530306773
7	253003 33835 1534 59982 10 400 1166 8028 9987 10941357 102931015359
8	286838 42947 1534 59982 10 400 1497 8047 9992 14292213 136733958757
9	329785 38423 1534 59982 10 400 1327 8060 9934 12504331 118068104561
10	368208 456906 1538 59977 10.089882227233 399.938715992406 11034 1.937316e-006 0.358136874346 389.93503104393 27.464644176194
11	825114 367433 1539 59978 10.089882227233 399.938715992406 11034 0 0.507600390785 617.21253926194 205.72421654161
12	1192547 314082 1539 59978 10.089882227233 399.938715992406 11034 0 26 17412 184182
13	1506629 499534 1539 59978 10.089882227233 399.938715992406 11034 0.0070056044835869 0.0087194818136522 81.39631276489 0.60160331087461
14	2006163 456876 1541 59979 10.096962947443 399.946238021205 11034 0.007005604484 0.515231482031 698.60885202665 215.31614552795
15	2463039 6629 1555 59649 10.203684607688 397.281470896017 155 0.010739517205868 10.933740481042 391.20523465692 1867.3384032852
16	2469668 5487 1567 59945 10.276687748401 399.582664491057 128 0.0046257705518035 21.866676562641 394.65348847132 2680.3533415531
17	2475155 5119 1592 59946 10.379485951627 399.598350968059 120 0.010023053548118 19.095471434865 392.76340000707 2407.0567308421
18	2480274 6227 1619 59895 10.512701937009 399.26724886852 146 0.0074565261417224 13.460148239681 393.83660967434 2049.2077779932
19	2486501 4693 1716 59115 11.360882962893 393.499445083393 110 0.00037077544349613 23.253607185995 395.47160748284 3033.4957189197
20	2491194 5676 1800 59557 11.986246086418 396.616178795411 133 0.039976272460222 11.530792426723 388.43385299836 2058.0400242859
21	2496870 5821 1811 59365 12.109370541993 395.436018372776 136 0.0061931119847609 15.274890465208 389.19202620404 2037.979323136
22	2502691 5604 1871 59861 12.313726549034 398.971737981676 131 0.029300814333314 15.865257109258 388.93846333758 2425.3017972606
23	2508295 5526 1946 59919 13.034736668212 399.363504255394 129 0.0077577452830852 19.513402438353 388.62563507912 2515.9534008334
24	2513821 6063 2810 59825 18.527692622347 398.597767503948 142 0.0056532962066554 13.09960706888 383.31012451243 1994.1847888339

