file 6003186 1613553645                                         
version 2
run Exponential-capacity-6-20210217-10:20:44-8492
attr configname Exponential-capacity
attr datetime 20210217-10:20:44
attr experiment Exponential-capacity
attr inifile aerocom.ini
attr iterationvars "$0=15, $1=2.5"
attr iterationvarsf 15,2.5-
attr measurement "$0=15, $1=2.5"
attr network Aerocom
attr processid 8492
attr repetition 0
attr replication #0
attr resultdir results
attr runnumber 6
attr seedset 0
param **.t 3s
param **.k 15ms
param **.X 0.5s
param **.m 2.5s
param **.tDistribution "\"exponential\""
param **.operationMode 0
param **.s "70 byte"
param **.dimPoolMax 10000
param **.dimPoolMin 8000
param **.nDL 10
param **.nA 1
param **.DLMaxCapacity 0
param **.trasmitting false

vector 0 Aerocom.aircraft[0].dataLink[0] actualCapacity:vector ETV
attr "" ""
attr source computeActualCapacity
vector 1 Aerocom.aircraft[0].dataLink[1] actualCapacity:vector ETV
attr "" ""
attr source computeActualCapacity
vector 2 Aerocom.aircraft[0].dataLink[2] actualCapacity:vector ETV
attr "" ""
attr source computeActualCapacity
vector 3 Aerocom.aircraft[0].dataLink[3] actualCapacity:vector ETV
attr "" ""
attr source computeActualCapacity
vector 4 Aerocom.aircraft[0].dataLink[4] actualCapacity:vector ETV
attr "" ""
attr source computeActualCapacity
vector 5 Aerocom.aircraft[0].dataLink[5] actualCapacity:vector ETV
attr "" ""
attr source computeActualCapacity
vector 6 Aerocom.aircraft[0].dataLink[6] actualCapacity:vector ETV
attr "" ""
attr source computeActualCapacity
vector 7 Aerocom.aircraft[0].dataLink[7] actualCapacity:vector ETV
attr "" ""
attr source computeActualCapacity
vector 8 Aerocom.aircraft[0].dataLink[8] actualCapacity:vector ETV
attr "" ""
attr source computeActualCapacity
vector 9 Aerocom.aircraft[0].dataLink[9] actualCapacity:vector ETV
attr "" ""
attr source computeActualCapacity
vector 10 Aerocom.aircraft[0].linkSelector responseTime:vector ETV
attr "" ""
attr source computeResponseTime
vector 11 Aerocom.aircraft[0].packetGenerator arrivalTime:vector ETV
attr "" ""
attr source computeArrivalTime
vector 12 Aerocom.aircraft[0].dataLink[4] tDistribution:vector ETV
attr "" ""
attr source computeTDistribution
vector 13 Aerocom.aircraft[0].dataLink[6] tDistribution:vector ETV
attr "" ""
attr source computeTDistribution
vector 14 Aerocom.aircraft[0].dataLink[1] tDistribution:vector ETV
attr "" ""
attr source computeTDistribution
vector 15 Aerocom.aircraft[0].linkSelector waitingTime:vector ETV
attr "" ""
attr source computeWaitingTime
vector 16 Aerocom.aircraft[0].linkSelector queueLength:vector ETV
attr "" ""
attr source computeQueueLength
vector 17 Aerocom.aircraft[0].linkSelector serviceTime:vector ETV
attr "" ""
attr source computeServiceTime
vector 18 Aerocom.aircraft[0].dataLink[5] tDistribution:vector ETV
attr "" ""
attr source computeTDistribution
vector 19 Aerocom.aircraft[0].dataLink[8] tDistribution:vector ETV
attr "" ""
attr source computeTDistribution
vector 20 Aerocom.aircraft[0].dataLink[0] tDistribution:vector ETV
attr "" ""
attr source computeTDistribution
vector 21 Aerocom.aircraft[0].dataLink[2] tDistribution:vector ETV
attr "" ""
attr source computeTDistribution
vector 22 Aerocom.aircraft[0].dataLink[7] tDistribution:vector ETV
attr "" ""
attr source computeTDistribution
vector 23 Aerocom.aircraft[0].dataLink[9] tDistribution:vector ETV
attr "" ""
attr source computeTDistribution
vector 24 Aerocom.aircraft[0].dataLink[3] tDistribution:vector ETV
attr "" ""
attr source computeTDistribution
0	3584 101565 3512 148390 10 400 3334 8064 9890 31556096 299289963922
1	105149 104434 3512 148390 10 400 3387 8110 9921 32230722 307075736430
2	209583 53866 3512 148390 10 400 1803 8027 9887 16928234 159300811126
3	263449 68125 3512 148390 10 400 2268 8077 9942 21636173 206680375099
4	331574 68916 3512 148390 10 400 2301 8018 9960 21711326 205410482552
5	400490 94799 3512 148390 10 400 3099 8111 9986 29478698 280767234212
6	495289 77250 3512 148390 10 400 2581 8095 9949 24225638 227936870812
7	572539 76423 3512 148390 10 400 2530 8025 9987 23869816 225678722494
8	648962 101220 3512 148390 10 400 3384 8045 9993 32422437 311202420809
9	750182 93443 3512 148390 10 400 3072 8060 9935 29133404 276748640208
10	843625 1095943 3513 148387 10.002575406365 399.968275977725 26190 0.007005604484 0.550318714043 1703.4094178786 524.96971843098
11	1939568 1095785 3516 148385 10.020364233319 399.960743426342 26189 3.00452e-007 0.160834874694 389.99668517737 11.590851499697
12	3035353 6694 3550 147411 10.203684607688 397.281470896017 155 0.010739517205868 10.933740481042 391.20523465692 1867.3384032852
13	3042047 5542 3565 148262 10.276687748401 399.582664491057 128 0.0046257705518035 21.866676562641 394.65348847132 2680.3533415531
14	3047589 5164 3576 148271 10.379485951627 399.598350968059 120 0.010023053548118 19.095471434865 392.76340000707 2407.0567308421
15	3052753 949026 3597 148386 10.502575406365 399.960743426342 26189 0 0.542875864495 1510.3237608307 501.48718017475
16	4001779 761759 3597 148386 10.502575406365 399.960743426342 26189 0 51 101687 2375725
17	4763538 1199640 3597 148386 10.502575406365 399.960743426342 26189 0.0070049034324027 0.0087227414330218 193.07714015562 1.4261252902572
18	5963178 6291 3601 148151 10.512701937009 399.26724886852 146 0.0074565261417224 13.460148239681 393.83660967434 2049.2077779932
19	5969469 4738 4075 145918 11.360882962893 393.499445083393 110 0.00037077544349613 23.253607185995 395.47160748284 3033.4957189197
20	5974207 5729 4317 147175 11.986246086418 396.616178795411 133 0.039976272460222 11.530792426723 388.43385299836 2058.0400242859
21	5979936 5876 4366 146579 12.109370541993 395.436018372776 136 0.0061931119847609 15.274890465208 389.19202620404 2037.979323136
22	5985812 5665 4478 148038 12.313726549034 398.971737981676 131 0.029300814333314 15.865257109258 388.93846333758 2425.3017972606
23	5991477 5575 4780 148187 13.034736668212 399.363504255394 129 0.0077577452830852 19.513402438353 388.62563507912 2515.9534008334
24	5997052 6132 6554 147878 18.527692622347 398.597767503948 142 0.0056532962066554 13.09960706888 383.31012451243 1994.1847888339

