file 27739791 1608577348                                        
version 2
run Exponential-selection-capacity-exponential-interarrival-time-590-20201220-19:00:16-15836
attr configname Exponential-selection-capacity-exponential-interarrival-time
attr datetime 20201220-19:00:16
attr experiment Exponential-selection-capacity-exponential-interarrival-time
attr inifile ../simulations/aerocom.ini
attr iterationvars "$0=0.75s, $1=1.75s, $2=0.5, $3=6s"
attr iterationvarsf 0.75s,1.75s,0.5,6s-
attr measurement "$0=0.75s, $1=1.75s, $2=0.5, $3=6s"
attr network Aerocom
attr processid 15836
attr repetition 0
attr replication #0
attr resultdir results
attr runnumber 590
attr seedset 590
param **.t 0.75s
param **.k 1.75s
param **.dataLink[*].s "1500 byte"
param **.dataLink[*].X 0.5
param **.dataLink[*].dimPoolMax 400
param **.dataLink[*].dimPoolMin 100
param **.nDL 5
param **.setCapacityDistribution "\"exponential\""
param **.aircraft[*].distribution "\"exponential\""
param **.aircraft[*].m 6s
param **.aircraft[*].linkSelector.DLMaxCapacity 0
param **.aircraft[*].linkSelector.trasmitting false
param **.aircraft[*].linkSelector.operationMode 0

vector 0 Aerocom.aircraft[3].dataLink[2] responseTime:vector ETV
attr "" ""
attr source computeResponseTime
0	9146 199847 531597 6117182 10000.108220902268 115227.028508565962 4456 6873.151665883 72753.878698883 177693403.49412 8741199349703.2
0	20681205 67738 6119025 7965120 115260.18336155597 149997.175927507069 1479 72751.152204564 94136.446919074 122941373.3451 10279873671166
vector 1 Aerocom.aircraft[3].dataLink[2] waitingTime:vector ETV
attr "" ""
attr source computeWaitingTime
1	208993 199803 531597 6116953 10000.108220902268 115223.028508565962 4455 6868.7684928076 72739.878698883 177635886.34245 8737116812954.3
1	20748943 67784 6118780 7965170 115255.18336155597 149998.119921828191 1480 72736.02850351 94132.275936569 123018601.62104 10285928764983
vector 2 Aerocom.aircraft[2].dataLink[2] queueLength:vector ETV
attr "" ""
attr source computeQueueLength
2	408796 408635 531602 6115948 10000.143459523438 115205.381977054509 12049 720 8237 53792869 296562510991
2	20816727 138522 6117879 7964868 115240.496327992285 149992.558233150875 3936 8238 10742 37396264 357368120490
vector 3 Aerocom.aircraft[2].dataLink[2] waitingTime:vector ETV
attr "" ""
attr source computeWaitingTime
3	817431 203185 531602 6115771 10000.143459523438 115201.099974052834 4531 5769.8784675294 71631.382220472 175875755.97193 8393520741097.9
3	20955249 65565 6117879 7964878 115240.496327992285 149992.795431134548 1432 71669.061912632 93081.846801123 117633774.7055 9718533351594.4
vector 4 Aerocom.aircraft[3].dataLink[2] queueLength:vector ETV
attr "" ""
attr source computeQueueLength
4	1020616 401470 531607 6116838 10000.25115099818 115220.397553907144 11839 719 8104 52446575 285956375059
4	21020814 141129 6118780 7965206 115255.18336155597 149998.833704610567 4016 8104 10639 37681506 355709607904
vector 5 Aerocom.aircraft[0].dataLink[0] queueLength:vector ETV
attr "" ""
attr source computeQueueLength
5	1422086 420515 531637 6116988 10000.673055906451 115223.808300829878 12399 680 8534 57022446 326302397334
5	21161943 144731 6118391 7965013 115248.750410472048 149994.984458359316 4099 8535 11113 40248525 397448082141
vector 6 Aerocom.aircraft[1].dataLink[2] responseTime:vector ETV
attr "" ""
attr source computeResponseTime
6	1842601 207394 531647 6117273 10000.926035626199 115229.028997736846 4625 6175.9754637091 72829.802669569 182726420.17437 8987161798202
6	21306674 68763 6117547 7964845 115234.028997736846 149991.997542290108 1503 72701.546204206 94089.729808546 125463363.61748 10529316291666
vector 7 Aerocom.aircraft[1].dataLink[2] waitingTime:vector ETV
attr "" ""
attr source computeWaitingTime
7	2049995 207395 531647 6117273 10000.926035626199 115229.028997736846 4625 6165.9754637091 72817.802669569 182740610.0877 8988272811564.6
7	21375437 68717 6117780 7964299 115238.505185192685 149981.997542290108 1502 72700.215209997 94070.278426708 125373746.07127 10521208396944
vector 8 Aerocom.aircraft[0].dataLink[2] queueLength:vector ETV
attr "" ""
attr source computeQueueLength
8	2257390 397328 531718 6112067 10002.25245193659 115132.270264784743 11720 641 7941 50197738 266974390982
8	21444154 138558 6120031 7963902 115279.091811799884 149974.441691893859 3953 7941 10399 36270361 334788140041
vector 9 Aerocom.aircraft[0].dataLink[2] waitingTime:vector ETV
attr "" ""
attr source computeWaitingTime
9	2654718 198144 531718 6112068 10002.25245193659 115132.335234118826 4420 6181.9028090765 71424.453123485 168357879.50797 7951262794184
9	21582712 68394 6120031 7963893 115279.091811799884 149974.299251712971 1494 71529.333124219 92742.697136735 122244422.43627 10059777665086
vector 10 Aerocom.aircraft[4].dataLink[0] queueLength:vector ETV
attr "" ""
attr source computeQueueLength
10	2852862 428846 531767 6116299 10003.245000606024 115211.36601800304 12283 722 8489 56293020 320147610380
10	21651106 142114 6117745 7964607 115237.643958051452 149987.80448277214 3917 8490 10979 38115582 372915571344
vector 11 Aerocom.aircraft[0].dataLink[0] responseTime:vector ETV
attr "" ""
attr source computeResponseTime
11	3281708 208401 531791 6117168 10004.279502809046 115226.62437326677 4545 6388.9303876887 71918.862641485 178658699.26752 8697729344487.1
11	21793220 71099 6118652 7965085 115253.750410472048 149996.516266317802 1520 71942.104557741 93159.193714986 125771948.20228 10468998780097
vector 12 Aerocom.aircraft[2].dataLink[4] responseTime:vector ETV
attr "" ""
attr source computeResponseTime
12	3490109 204660 531798 6116674 10004.319152005187 115217.98160703921 4464 6527.0221569627 71507.023570192 176661721.87506 8623070466619.8
12	21864319 68598 6118296 7960525 115247.804789817663 149911.776964578702 1467 71482.170585465 94022.106579943 121571126.85733 10133438926135
vector 13 Aerocom.aircraft[2].dataLink[3] queueLength:vector ETV
attr "" ""
attr source computeQueueLength
13	3694769 422187 531807 6116659 10004.420841305618 115217.537926805863 12092 722 8345 54834082 307269554082
13	21932917 149232 6119328 7962926 115266.387635652722 149956.370041028229 4115 8346 10976 39758151 386561454369
vector 14 Aerocom.aircraft[2].dataLink[3] waitingTime:vector ETV
attr "" ""
attr source computeWaitingTime
14	4116956 204836 531807 6116645 10004.420841305618 115217.378574147227 4468 6252.6746064284 72004.675926106 177011085.41067 8657435856639.2
14	22082149 69430 6119328 7962968 115266.387635652722 149957.184558234685 1485 72052.352539244 94327.553749638 123407306.24101 10318916822657
vector 15 Aerocom.aircraft[1].dataLink[3] queueLength:vector ETV
attr "" ""
attr source computeQueueLength
15	4321792 421831 531819 6116318 10004.597880286725 115211.790536931594 12083 671 8236 53573422 295040554322
15	22151579 135792 6119972 7964723 115278.358238134171 149989.550899490172 3758 8236 10593 35360039 334447266733
vector 16 Aerocom.aircraft[1].dataLink[3] waitingTime:vector ETV
attr "" ""
attr source computeWaitingTime
16	4743623 207130 531819 6116292 10004.597880286725 115211.307793424714 4517 5943.4291325437 71129.843104809 173568746.96182 8257614235294.3
16	22287371 65513 6119972 7964706 115278.358238134171 149989.16318419623 1401 71189.580343827 94454.803223651 115649855.42622 9611320161772.6
vector 17 Aerocom.aircraft[4].dataLink[0] responseTime:vector ETV
attr "" ""
attr source computeResponseTime
17	4950753 206952 531925 6116403 10006.560256588366 115212.545177045989 4516 5744.2182895697 71803.178769743 176589393.65499 8529889320491.3
17	22352884 66727 6118074 7965094 115243.643958051452 149996.663991053405 1427 71834.800461329 94301.955199342 118257402.52213 9857234024141.8
vector 18 Aerocom.aircraft[4].dataLink[0] waitingTime:vector ETV
attr "" ""
attr source computeWaitingTime
18	5157705 206907 531941 6116149 10006.891709406307 115208.545177045989 4515 5734.2182895697 71795.178769743 176532292.29505 8525842529974.2
18	22419611 66727 6117745 7964539 115237.643958051452 149986.663991053405 1427 71822.800461329 94281.955199342 118241310.52213 9854569375677.5
vector 19 Aerocom.aircraft[1].dataLink[0] queueLength:vector ETV
attr "" ""
attr source computeQueueLength
19	5364612 412563 532041 6117429 10008.155226011424 115231.481874366176 11811 772 8203 52917640 291120419550
19	22486338 141274 6117501 7965220 115233.11530480599 149999.239731174888 3908 8203 10656 36817856 348825875164
vector 20 Aerocom.aircraft[1].dataLink[0] waitingTime:vector ETV
attr "" ""
attr source computeWaitingTime
20	5777175 200844 532041 6117429 10008.155226011424 115231.481874366176 4380 6333.0864898664 71737.811993126 176059270.78404 8589276896710.9
20	22627612 68023 6118434 7965142 115249.600622035054 149997.542704364388 1454 71728.950413335 93037.326216682 119815390.4776 9922415628319.8
vector 21 Aerocom.aircraft[3].dataLink[0] queueLength:vector ETV
attr "" ""
attr source computeQueueLength
21	5978019 422066 532052 6115930 10008.257905453166 115204.889876516808 12091 763 8341 55192073 310133182951
21	22695635 148505 6120768 7964603 115292.375784302803 149987.757316833081 4096 8342 10948 39499049 383238555659
vector 22 Aerocom.aircraft[3].dataLink[0] waitingTime:vector ETV
attr "" ""
attr source computeWaitingTime
22	6400085 206776 532052 6115850 10008.257905453166 115203.174862513711 4512 6186.0592591719 74354.069988129 178865061.42367 8895040497567.7
22	22844140 69629 6120768 7964598 115292.375784302803 149987.712818861223 1489 74370.043108156 95803.500310948 126908351.90556 10874146289149
vector 23 Aerocom.aircraft[0].dataLink[1] queueLength:vector ETV
attr "" ""
attr source computeQueueLength
23	6606861 421031 532057 6117436 10008.338982791963 115231.577947941107 12059 736 8303 54241297 301594584341
23	22913769 154341 6117521 7964291 115233.561567760905 149981.734349391296 4255 8304 11024 41115953 399909903233
vector 24 Aerocom.aircraft[0].dataLink[1] waitingTime:vector ETV
attr "" ""
attr source computeWaitingTime
24	7027892 205779 532057 6117407 10008.338982791963 115231.073686670334 4491 6158.5797592975 72080.210606331 174420129.22394 8370063846616.4
24	23068110 71770 6117824 7964242 115239.276134220772 149980.733890752645 1534 72087.978466328 93674.096277649 127743048.40873 10697978284981
vector 25 Aerocom.aircraft[2].dataLink[3] responseTime:vector ETV
attr "" ""
attr source computeResponseTime
25	7233671 204836 532061 6117113 10008.420841305618 115225.378574147227 4468 6260.6746064284 72019.790202663 177062113.41067 8661480388287.4
25	23139880 69430 6119576 7963223 115271.387635652722 149961.184558234685 1485 72062.352539244 94335.553749638 123424090.24101 10321708684726
vector 26 Aerocom.aircraft[1].dataLink[3] responseTime:vector ETV
attr "" ""
attr source computeResponseTime
26	7438507 207131 532090 6116720 10008.597880286725 115218.307793424714 4517 5951.4291325437 71143.843104809 173619428.96182 8261510489658.5
26	23209310 65513 6120191 7964961 115282.358238134171 149994.16318419623 1401 71197.580343827 94464.803223651 115665689.42622 9613936147916.3
vector 27 Aerocom.aircraft[2].dataLink[2] responseTime:vector ETV
attr "" ""
attr source computeResponseTime
27	7645638 207716 532107 6116017 10009.143459523438 115206.099974052834 4531 5787.8784675294 71641.382220472 175927007.97193 8397497549344.1
27	23274823 66997 6118276 7965103 115247.496327992285 149996.795431134548 1432 71683.061912632 93089.846801123 117649966.7055 9721192339469.2
vector 28 Aerocom.aircraft[0].dataLink[2] responseTime:vector ETV
attr "" ""
attr source computeResponseTime
28	7853354 202565 532115 6112304 10009.25245193659 115136.335234118826 4420 6195.9028090765 71432.453123485 168407963.50797 7955085282035.4
28	23341820 69888 6120228 7964116 115283.091811799884 149978.299251712971 1494 71537.333124219 92750.697136735 122261016.43627 10062493595552
vector 29 Aerocom.aircraft[4].dataLink[3] queueLength:vector ETV
attr "" ""
attr source computeQueueLength
29	8055919 418344 532129 6116565 10009.475663054768 115215.416541039214 11987 685 8222 53559084 296387827670
29	23411708 153825 6117610 7965238 115235.693718432805 149999.747468096023 4246 8222 10900 40649943 391710808313
vector 30 Aerocom.aircraft[4].dataLink[3] waitingTime:vector ETV
attr "" ""
attr source computeWaitingTime
30	8474263 203971 532129 6116616 10009.475663054768 115216.830685335116 4450 5903.6272502542 72007.376642914 174309089.68923 8433001619680.7
30	23565533 73267 6117610 7965068 115235.693718432805 149996.10535734465 1567 71948.362958421 93513.707344714 129725851.60882 10801786042616
vector 31 Aerocom.aircraft[2].dataLink[0] queueLength:vector ETV
attr "" ""
attr source computeQueueLength
31	8678234 406698 532138 6117284 10009.666593813775 115229.215330538222 11648 769 8021 51207123 276273978987
31	23638800 148404 6118341 7965155 115248.094531537303 149997.819825879183 4106 8022 10639 38286961 359378441475
vector 32 Aerocom.aircraft[2].dataLink[0] waitingTime:vector ETV
attr "" ""
attr source computeWaitingTime
32	9084932 201491 532138 6117242 10009.666593813775 115228.387546169929 4395 6319.626471597 72982.09346305 173169144.73246 8428352073048.4
32	23787204 69672 6118341 7965202 115248.094531537303 149998.82109885386 1489 73001.324112869 94413.825222919 124492174.03253 10466268750043
vector 33 Aerocom.aircraft[3].dataLink[0] responseTime:vector ETV
attr "" ""
attr source computeResponseTime
33	9286423 206776 532205 6116180 10011.257905453166 115209.174862513711 4512 6192.0592591719 74366.069988129 178916347.42367 8899110405711
33	23856876 69629 6121018 7964870 115297.375784302803 149992.712818861223 1489 74380.043108156 95811.500310948 126925489.90556 10877065964956
vector 34 Aerocom.aircraft[1].dataLink[0] responseTime:vector ETV
attr "" ""
attr source computeResponseTime
34	9493199 200797 532297 6117196 10013.155226011424 115227.433736705228 4379 6349.0864898664 71744.820154332 176037038.97205 8588103014777.1
34	23926505 68023 6117669 7961715 115236.481874366176 149934.074960960453 1454 71742.950413335 92982.101689473 119810560.96337 9921625004441.3
vector 35 Aerocom.aircraft[0].dataLink[1] responseTime:vector ETV
attr "" ""
attr source computeResponseTime
35	9693996 205733 532308 6116100 10013.338982791963 115207.466066960423 4490 6168.5797592975 72063.708544523 174398839.01334 8368816187197.9
35	23994528 71817 6117715 7964462 115237.073686670334 149984.733890752645 1535 72092.210606331 93684.096277649 127832692.61934 10706098171032
vector 36 Aerocom.aircraft[2].dataLink[0] responseTime:vector ETV
attr "" ""
attr source computeResponseTime
36	9899729 201445 532323 6117043 10013.666593813775 115224.305982807334 4394 6327.626471597 72991.410315599 173145844.639 8426942275148.6
36	24066345 69672 6117472 7965202 115232.387546169929 149998.82109885386 1489 72990.09346305 94417.967546598 124487826.30077 10465541038716
vector 37 Aerocom.aircraft[4].dataLink[2] queueLength:vector ETV
attr "" ""
attr source computeQueueLength
37	10101174 419335 532411 6115325 10014.737519429235 115193.412566173551 12011 769 8266 54442667 303019843643
37	24136017 139949 6118430 7963180 115249.583406031456 149960.221835106458 3869 8267 10662 36633329 348677655249
vector 38 Aerocom.aircraft[4].dataLink[2] waitingTime:vector ETV
attr "" ""
attr source computeWaitingTime
38	10520509 206931 532411 6115088 10014.737519429235 115188.76434243305 4514 6398.7716421552 73459.731784106 179230445.5047 8794291018765.8
38	24275966 68920 6118430 7963006 115249.583406031456 149957.954232045344 1473 73499.790159324 95737.101349676 123914359.57019 10489422254417
vector 39 Aerocom.aircraft[1].dataLink[4] queueLength:vector ETV
attr "" ""
attr source computeQueueLength
39	10727440 414283 532418 6114646 10014.809946711807 115181.432056666039 11869 698 8195 52683210 289867470572
39	24344886 150608 6118707 7964564 115254.251697395914 149987.060119425179 4161 8195 10832 39584522 378957165036
vector 40 Aerocom.aircraft[1].dataLink[4] waitingTime:vector ETV
attr "" ""
attr source computeWaitingTime
40	11141723 200362 532418 6114513 10014.809946711807 115178.158208869713 4371 6651.1106793385 72354.788818439 171406863.26413 8294129545426.3
40	24495494 71265 6118707 7964416 115254.251697395914 149983.582292491853 1524 72430.595908631 92889.256910482 125731398.29218 10428111728123
vector 41 Aerocom.aircraft[0].dataLink[3] queueLength:vector ETV
attr "" ""
attr source computeQueueLength
41	11342085 414793 532425 6117142 10015.017900157699 115225.792858774427 11879 715 8107 52379452 285005529950
41	24566759 137184 6118046 7964558 115243.02902495722 149986.930539649648 3801 8107 10481 35317265 329948154443
vector 42 Aerocom.aircraft[0].dataLink[3] waitingTime:vector ETV
attr "" ""
attr source computeWaitingTime
42	11756878 205740 532425 6117254 10015.017900157699 115228.585570922853 4487 6425.8843458509 71264.473498545 175764052.96822 8488153167285.7
42	24703943 66751 6118046 7964558 115243.02902495722 149986.930539649648 1427 71182.039021974 94823.692925444 118305717.63105 9876302687424.1
vector 43 Aerocom.aircraft[4].dataLink[3] responseTime:vector ETV
attr "" ""
attr source computeResponseTime
43	11962618 203973 532438 6116862 10015.475663054768 115220.830685335116 4450 5915.6272502542 72017.376642914 174359529.68923 8436934612057.8
43	24770694 73221 6118029 7962243 115242.693718432805 149944.088557505019 1566 71962.362958421 93468.686037374 129650145.90148 10795988832678
vector 44 Aerocom.aircraft[4].dataLink[2] responseTime:vector ETV
attr "" ""
attr source computeResponseTime
44	12166591 206931 532581 6115525 10018.737519429235 115196.76434243305 4514 6412.7716421552 73475.731784106 179282055.5047 8798380301644.2
44	24843915 68920 6118738 7963302 115254.583406031456 149962.954232045344 1473 73509.790159324 95747.101349676 123930973.57019 10492220599898
vector 45 Aerocom.aircraft[0].dataLink[3] responseTime:vector ETV
attr "" ""
attr source computeResponseTime
45	12373522 205693 532674 6117254 10020.017900157699 115228.585570922853 4486 6435.8843458509 71272.473498545 175743870.52992 8487063933796.9
45	24912835 66798 6117570 7964839 115234.585570922853 149991.930539649648 1428 71190.039021974 94833.692925444 118392982.06935 9884037433785.9
vector 46 Aerocom.aircraft[4].dataLink[4] queueLength:vector ETV
attr "" ""
attr source computeQueueLength
46	12579215 407594 532758 6117128 10021.520776340381 115225.554063694873 11679 746 8137 51807102 282956285340
46	24979633 139273 6118755 7963930 115254.731774032183 149974.938070340842 3857 8138 10528 36008561 338002488319
vector 47 Aerocom.aircraft[4].dataLink[4] waitingTime:vector ETV
attr "" ""
attr source computeWaitingTime
47	12986809 196357 532758 6116982 10021.520776340381 115223.718816494606 4287 7021.0876530869 73056.150811771 170385133.70629 8318892190983.1
47	25118906 68560 6118755 7963826 115254.731774032183 149972.705530975176 1466 72968.353803352 94804.122402901 122550381.41312 10297951653755
vector 48 Aerocom.aircraft[1].dataLink[1] queueLength:vector ETV
attr "" ""
attr source computeQueueLength
48	13183166 416958 532786 6116870 10022.001178171714 115220.949840661015 11935 809 8375 54611356 307078488202
48	25187466 144591 6119455 7963661 115268.639036801038 149969.973752418469 3989 8375 10890 38458751 372901130969
vector 49 Aerocom.aircraft[1].dataLink[1] waitingTime:vector ETV
attr "" ""
attr source computeWaitingTime
49	13600124 200261 532786 6116992 10022.001178171714 115223.921760765547 4369 6626.3457863979 73733.602929544 173650292.13053 8539636057972.3
49	25332057 68889 6119455 7963577 115268.639036801038 149967.968275299594 1473 73777.406433525 96125.773860591 125071617.19613 10683769077141
vector 50 Aerocom.aircraft[3].dataLink[1] queueLength:vector ETV
attr "" ""
attr source computeQueueLength
50	13800385 419258 532836 6113691 10023.020394055469 115162.869365278881 12004 796 8346 54707026 306844099614
50	25400946 149037 6117695 7963270 115236.508611029463 149962.147688741716 4110 8347 10965 39708445 385987073999
vector 51 Aerocom.aircraft[3].dataLink[1] waitingTime:vector ETV
attr "" ""
attr source computeWaitingTime
51	14219643 204208 532836 6113420 10023.020394055469 115157.7615633893 4453 6402.6057938449 71515.113321047 177231673.96866 8579423526778
51	25549983 69802 6117695 7963260 115236.508611029463 149962.036882677036 1491 71577.198315346 92739.617477014 122376968.03586 10101628796425
vector 52 Aerocom.aircraft[4].dataLink[4] responseTime:vector ETV
attr "" ""
attr source computeResponseTime
52	14423851 196358 533089 6117214 10027.520776340381 115227.718816494606 4287 7033.0876530869 73064.218767914 170434037.70629 8322778359350
52	25619785 68560 6118870 7964143 115257.731774032183 149978.705530975176 1466 72979.418662023 94816.122402901 122567249.41312 10300769519402
vector 53 Aerocom.aircraft[1].dataLink[4] responseTime:vector ETV
attr "" ""
attr source computeResponseTime
53	14620209 200362 533109 6114704 10027.809946711807 115182.158208869713 4371 6659.1106793385 72362.788818439 171456743.26413 8298047282203.5
53	25688345 71265 6118849 7964677 115257.251697395914 149988.582292491853 1524 72436.595908631 92899.256910482 125748856.29218 10430993211794
vector 54 Aerocom.aircraft[1].dataLink[1] responseTime:vector ETV
attr "" ""
attr source computeResponseTime
54	14820571 200261 533122 6117396 10028.001178171714 115230.921760765547 4369 6638.3457863979 73747.602929544 173699850.13053 8543588898568.1
54	25759610 68889 6119902 7963880 115277.639036801038 149973.968275299594 1473 73795.406433525 96135.709591776 125088249.19613 10686593626066
vector 55 Aerocom.aircraft[0].dataLink[0] waitingTime:vector ETV
attr "" ""
attr source computeWaitingTime
55	15020832 208355 533148 6116945 10028.684075035507 115222.62437326677 4544 6378.9303876887 71907.629666992 178600894.55705 8693662246913.1
55	25828499 71099 6118391 7964718 115248.750410472048 149989.516266317802 1520 71932.104557741 93137.193714986 125754794.20228 10466162499896
vector 56 Aerocom.aircraft[3].dataLink[1] responseTime:vector ETV
attr "" ""
attr source computeResponseTime
56	15229187 204208 533201 6113732 10030.020394055469 115163.7615633893 4453 6416.6057938449 71527.113321047 177282327.96866 8583458592098.2
56	25899598 69802 6117880 7963579 115240.508611029463 149968.036882677036 1491 71587.198315346 92753.617477014 122394054.03586 10104436232872
vector 57 Aerocom.aircraft[2].dataLink[4] queueLength:vector ETV
attr "" ""
attr source computeQueueLength
57	15433395 424771 533335 6116306 10032.331796795886 115211.564088932501 12169 667 8372 54981381 308206298715
57	25969400 142734 6118038 7960342 115242.804789817663 149908.529260097979 3941 8373 10846 37828380 365089010502
vector 58 Aerocom.aircraft[2].dataLink[4] waitingTime:vector ETV
attr "" ""
attr source computeWaitingTime
58	15858166 204615 533335 6116078 10032.331796795886 115206.98160703921 4463 6521.8107569646 71497.023570192 176605272.8529 8619075793476.3
58	26112134 68598 6118038 7960263 115242.804789817663 149906.776964578702 1467 71472.170585465 94007.518052087 121554350.85733 10130659429184
vector 59 Aerocom.aircraft[0].dataLink[4] queueLength:vector ETV
attr "" ""
attr source computeQueueLength
59	16062781 419863 533445 6114060 10034.761615252127 115169.933725573892 12030 728 8279 54162603 301134054167
59	26180732 141652 6121004 7963340 115297.065870457093 149963.767332388442 3915 8280 10752 37230977 356058864977
vector 60 Aerocom.aircraft[0].dataLink[4] waitingTime:vector ETV
attr "" ""
attr source computeWaitingTime
60	16482644 205208 533445 6113944 10034.761615252127 115167.538451716599 4478 5837.9925967602 72888.284561584 175857524.42235 8590575964347.2
60	26322384 67453 6121004 7963123 115297.065870457093 149959.188086141568 1442 72920.27016486 94327.420118333 121233294.25088 10240476185753
vector 61 Aerocom.aircraft[4].dataLink[1] queueLength:vector ETV
attr "" ""
attr source computeQueueLength
61	16687852 422387 533639 6113844 10038.473473105298 115164.961654953386 12097 689 8246 53962601 298525446525
61	26389837 146316 6119708 7964843 115273.444500552296 149991.936115157638 4041 8247 10790 38506707 369116485883
vector 62 Aerocom.aircraft[4].dataLink[1] waitingTime:vector ETV
attr "" ""
attr source computeWaitingTime
62	17110239 208066 533639 6113677 10038.473473105298 115162.598557070801 4539 5957.3071056681 70990.749887583 175863015.01032 8435534171654.2
62	26536153 70003 6119708 7964729 115273.444500552296 149989.652935298735 1497 71095.12045595 92717.782416813 123177374.48032 10193939940352
vector 63 Aerocom.aircraft[0].dataLink[4] responseTime:vector ETV
attr "" ""
attr source computeResponseTime
63	17318305 205208 533724 6114242 10039.761615252127 115172.538451716599 4478 5847.9925967602 72898.284561584 175908440.42235 8594564962753.2
63	26606156 67453 6121159 7963385 115300.065870457093 149964.188086141568 1442 72928.27016486 94337.420118333 121249538.25088 10243206973370
vector 64 Aerocom.aircraft[4].dataLink[1] responseTime:vector ETV
attr "" ""
attr source computeResponseTime
64	17523513 208066 533851 6113897 10042.473473105298 115166.598557070801 4539 5965.3071056681 70998.749887583 175914531.01032 8439520937669.3
64	26673609 70003 6119889 7964999 115277.444500552296 149994.652935298735 1497 71103.12045595 92735.615508883 123194386.48032 10196739865125
vector 65 Aerocom.aircraft[2].dataLink[1] queueLength:vector ETV
attr "" ""
attr source computeQueueLength
65	17731579 434826 534347 6117443 10051.892054187288 115231.606141223406 12448 762 8629 58393705 337733742137
65	26743612 150127 6117555 7964512 115234.351867006621 149985.791159917654 4128 8629 11229 41008951 409708211701
vector 66 Aerocom.aircraft[2].dataLink[1] waitingTime:vector ETV
attr "" ""
attr source computeWaitingTime
66	18166405 210130 534347 6117443 10051.892054187288 115231.606141223406 4581 6550.6195517494 72642.572399936 182375340.6603 8876958394382.5
66	26893739 71425 6119976 7964389 115278.433064035178 149983.040449347928 1527 72688.1750133 94260.899035067 127201664.99248 10656458874194
vector 67 Aerocom.aircraft[2].dataLink[1] responseTime:vector ETV
attr "" ""
attr source computeResponseTime
67	18376535 210084 534634 6115755 10056.892054187288 115200.687417879386 4580 6560.6195517494 72632.735236123 182354118.0879 8875761299783.4
67	26965164 71472 6117785 7964698 115238.606141223406 149989.040449347928 1528 72656.572399936 94274.899035067 127291791.56488 10664649691018
vector 68 Aerocom.aircraft[3].dataLink[4] queueLength:vector ETV
attr "" ""
attr source computeQueueLength
68	18586619 424130 534638 6116258 10056.923999581336 115210.755553627565 12150 717 8326 54840128 305987272882
68	27036636 143455 6119701 7964275 115273.322073336939 149981.305315933884 3959 8327 10844 37933475 365551171137
vector 69 Aerocom.aircraft[3].dataLink[4] waitingTime:vector ETV
attr "" ""
attr source computeWaitingTime
69	19010749 208112 534638 6116234 10056.923999581336 115210.450395335028 4540 6450.172082394 73084.44744916 175350144.70157 8473926689971.4
69	27180091 67413 6119701 7964241 115273.322073336939 149980.720058712752 1441 73146.764277902 95418.302471378 122260940.12118 10434840045210
vector 70 Aerocom.aircraft[1].dataLink[2] queueLength:vector ETV
attr "" ""
attr source computeQueueLength
70	19218861 439277 534652 6117247 10057.146218685448 115228.46569490162 12580 704 8660 58727123 339786436775
70	27247504 148709 6117780 7964299 115238.505185192685 149981.997542290108 4089 8660 11247 40702503 407425490535
vector 71 Aerocom.aircraft[3].dataLink[4] responseTime:vector ETV
attr "" ""
attr source computeResponseTime
71	19658138 208112 534841 6116894 10061.923999581336 115221.450395335028 4540 6460.172082394 73106.44744916 175401412.70157 8477883800653.6
71	27396213 67413 6119880 7964545 115277.322073336939 149986.720058712752 1441 73154.764277902 95428.302471378 122277164.12118 10437593705523
vector 72 Aerocom.aircraft[3].dataLink[3] queueLength:vector ETV
attr "" ""
attr source computeQueueLength
72	19866250 414467 538158 6117211 10123.199110832769 115227.600933031406 11868 780 8278 53526318 296996199250
72	27463626 141053 6120351 7963014 115284.538110156216 149957.978899438414 3898 8279 10733 37047838 354113844304
vector 73 Aerocom.aircraft[3].dataLink[3] waitingTime:vector ETV
attr "" ""
attr source computeWaitingTime
73	20280717 200267 538158 6117109 10123.199110832769 115225.338879143056 4370 6106.8418499155 72467.066787371 172343916.73324 8320441066506
73	27604679 67532 6120351 7962993 115284.538110156216 149957.754766606698 1443 72525.858432689 94463.830701868 120028800.46767 10041356464412
vector 74 Aerocom.aircraft[3].dataLink[3] responseTime:vector ETV
attr "" ""
attr source computeResponseTime
74	20480984 200221 538319 6116798 10127.199110832769 115219.567404858947 4369 6114.8418499155 72468.884184137 172321233.66645 8319106692579
74	27672211 67580 6117469 7963291 115232.338879143056 149962.754766606698 1444 72481.066787371 94473.830701868 120117699.53446 10049341994641
