version 2
run Exponential-capacity-47-20210216-13:46:28-25168
attr configname Exponential-capacity
attr datetime 20210216-13:46:28
attr experiment Exponential-capacity
attr inifile aerocom.ini
attr iterationvars "$0=2, $1=50, $2=4, $3=4"
attr iterationvarsf 2,50,4,4-
attr measurement "$0=2, $1=50, $2=4, $3=4"
attr network Aerocom
attr processid 25168
attr repetition 2
attr replication #2
attr resultdir results
attr runnumber 47
attr seedset 2
param **.t 2s
param **.k 50ms
param **.X 4s
param **.m 4s
param **.tDistribution "\"exponential\""
param **.operationMode 0
param **.s "70 byte"
param **.dimPoolMax 10000
param **.dimPoolMin 8000
param **.nDL 10
param **.nA 1
param **.DLMaxCapacity 0
param **.trasmitting false

vector 0 Aerocom.aircraft[0].packetGenerator arrivalTime:vector ETV
attr "" ""
attr source computeArrivalTime
vector 1 Aerocom.aircraft[0].linkSelector waitingTime:vector ETV
attr "" ""
attr source computeWaitingTime
vector 2 Aerocom.aircraft[0].linkSelector queueLength:vector ETV
attr "" ""
attr source computeQueueLength
vector 3 Aerocom.aircraft[0].dataLink[3] actualCapacity:vector ETV
attr "" ""
attr source computeActualCapacity
vector 4 Aerocom.aircraft[0].linkSelector serviceTime:vector ETV
attr "" ""
attr source computeServiceTime
vector 5 Aerocom.aircraft[0].linkSelector responseTime:vector ETV
attr "" ""
attr source computeResponseTime
vector 6 Aerocom.aircraft[0].dataLink[0] tDistribution:vector ETV
attr "" ""
attr source computeTDistribution
vector 7 Aerocom.aircraft[0].dataLink[5] tDistribution:vector ETV
attr "" ""
attr source computeTDistribution
vector 8 Aerocom.aircraft[0].dataLink[2] tDistribution:vector ETV
attr "" ""
attr source computeTDistribution
vector 9 Aerocom.aircraft[0].dataLink[9] tDistribution:vector ETV
attr "" ""
attr source computeTDistribution
vector 10 Aerocom.aircraft[0].dataLink[8] tDistribution:vector ETV
attr "" ""
attr source computeTDistribution
vector 11 Aerocom.aircraft[0].dataLink[0] actualCapacity:vector ETV
attr "" ""
attr source computeActualCapacity
vector 12 Aerocom.aircraft[0].dataLink[1] actualCapacity:vector ETV
attr "" ""
attr source computeActualCapacity
vector 13 Aerocom.aircraft[0].dataLink[2] actualCapacity:vector ETV
attr "" ""
attr source computeActualCapacity
vector 14 Aerocom.aircraft[0].dataLink[4] actualCapacity:vector ETV
attr "" ""
attr source computeActualCapacity
vector 15 Aerocom.aircraft[0].dataLink[5] actualCapacity:vector ETV
attr "" ""
attr source computeActualCapacity
vector 16 Aerocom.aircraft[0].dataLink[6] actualCapacity:vector ETV
attr "" ""
attr source computeActualCapacity
vector 17 Aerocom.aircraft[0].dataLink[7] actualCapacity:vector ETV
attr "" ""
attr source computeActualCapacity
vector 18 Aerocom.aircraft[0].dataLink[8] actualCapacity:vector ETV
attr "" ""
attr source computeActualCapacity
vector 19 Aerocom.aircraft[0].dataLink[9] actualCapacity:vector ETV
attr "" ""
attr source computeActualCapacity
vector 20 Aerocom.aircraft[0].dataLink[1] tDistribution:vector ETV
attr "" ""
attr source computeTDistribution
vector 21 Aerocom.aircraft[0].dataLink[6] tDistribution:vector ETV
attr "" ""
attr source computeTDistribution
vector 22 Aerocom.aircraft[0].dataLink[3] tDistribution:vector ETV
attr "" ""
attr source computeTDistribution
vector 23 Aerocom.aircraft[0].dataLink[7] tDistribution:vector ETV
attr "" ""
attr source computeTDistribution
vector 24 Aerocom.aircraft[0].dataLink[4] tDistribution:vector ETV
attr "" ""
attr source computeTDistribution
0	1041	10.009046581726	0.019478254405
0	1046	10.028524836131	0.02292942436
0	1052	10.051454260491	0.00124084291
0	1054	10.052695103401	0.088058607678
0	1063	10.140753711079	0.060531770836
0	1069	10.201285481915	0.016172402908
0	1074	10.217457884823	0.079679454295
0	1079	10.297137339118	0.006714203355
0	1081	10.303851542473	0.006547708414
0	1086	10.310399250887	0.041366061895
0	1094	10.351765312782	0.095155022514
0	1099	10.446920335296	0.015553608654
0	1104	10.46247394395	0.11879572873
0	1109	10.58126967268	0.074590507201
0	1114	10.655860179881	0.011027490382
0	1119	10.666887670263	0.009886361877
0	1124	10.67677403214	0.004556440046
0	1126	10.681330472186	0.076452071881
0	1134	10.757782544067	0.101157364566
0	1140	10.858939908633	0.046824202827
0	1146	10.90576411146	0.084299166182
0	1151	10.990063277642	0.002132270014
0	1153	10.992195547656	0.018111898043
0	1161	11.010307445699	0.041194139417
0	1166	11.051501585116	0.001299563155
0	1168	11.052801148271	0.055151762222
0	1176	11.107952910493	0.071259794599
0	1181	11.179212705092	0.139348666404
0	1186	11.318561371496	0.050914320359
0	1191	11.369475691855	0.077090332203
0	1196	11.446566024058	0.041555045935
0	1201	11.488121069993	0.069400886563
0	1207	11.557521956556	0.120117794117
0	1212	11.677639750673	0.03436332238
0	1217	11.712003073053	0.056458210862
0	1223	11.768461283915	0.002183620412
0	1225	11.770644904327	0.016676214346
0	1233	11.787321118673	0.084877265526
0	1238	11.872198384199	0.029891464616
0	1243	11.902089848815	0.000685869586
0	1245	11.902775718401	0.243208992601
0	1256	12.145984711002	0.039929961208
0	1261	12.18591467221	0.014591697247
0	1266	12.200506369457	0.041827415021
0	1271	12.242333784478	0.108134173002
0	1279	12.35046795748	0.005990911542
0	1281	12.356458869022	0.021131135656
0	1289	12.377590004678	0.003241661105
0	1291	12.380831665783	0.01660158356
0	1299	12.397433249343	0.042750871507
0	1304	12.44018412085	0.060471857484
0	1309	12.500655978334	0.033226554372
0	1314	12.533882532706	0.021685706983
0	1320	12.555568239689	0.017935429061
0	1325	12.57350366875	0.002379418011
0	1327	12.575883086761	0.002030452849
0	1329	12.57791353961	0.024348180181
0	1340	12.602261719791	0.050241636622
0	1345	12.652503356413	0.078050819919
0	1350	12.730554176332	0.006638622701
0	1352	12.737192799033	0.119573410839
0	1360	12.856766209872	0.00058368588
0	1362	12.857349895752	0.003572372235
0	1364	12.860922267987	0.01619425058
0	1372	12.877116518567	0.14588581515
0	1383	13.023002333717	0.017944264904
0	1388	13.040946598621	0.016423205704
0	1393	13.057369804325	0.009941918403
0	1398	13.067311722728	0.085385649478
0	1404	13.152697372206	0.003466323062
0	1406	13.156163695268	0.001567433483
0	1408	13.157731128751	0.075532586394
0	1421	13.233263715145	0.086501508296
0	1426	13.319765223441	0.025603692963
0	1431	13.345368916404	0.061961204038
0	1436	13.407330120442	0.014105868902
0	1441	13.421435989344	0.095207297421
0	1447	13.516643286765	0.037092947496
0	1452	13.553736234261	0.002230085089
0	1454	13.55596631935	0.014717592863
0	1462	13.570683912213	0.035347176494
0	1467	13.606031088707	0.095496236591
0	1472	13.701527325298	0.01161962281
0	1477	13.713146948108	0.033034345576
0	1482	13.746181293684	0.065680898182
0	1488	13.811862191866	0.048795395314
0	1493	13.86065758718	0.05175301263
0	1498	13.91241059981	0.180730359563
0	1503	14.093140959373	0.076661823714
0	1508	14.169802783087	0.021905680807
0	1513	14.191708463894	0.027993894319
0	1518	14.219702358213	0.012721755096
0	1523	14.232424113309	0.049742643065
0	1528	14.282166756374	0.192484828772
0	1534	14.474651585146	0.021802803708
0	1539	14.496454388854	0.044224394679
0	1545	14.540678783533	0.153570855608
0	1552	14.694249639141	0.199991880176
0	1558	14.894241519317	0.047885870808
0	1563	14.942127390125	0.173152701122
0	1570	15.115280091247	0.033726521172
0	1575	15.149006612419	0.061056616281
0	1580	15.2100632287	0.014811442141
0	1585	15.224874670841	0.000978808862
0	1587	15.225853479703	0.013516444051
0	1592	15.239369923754	0.047444621021
0	1601	15.286814544775	0.036867066277
0	1606	15.323681611052	0.014354723565
0	1611	15.338036334617	0.055447221923
0	1616	15.39348355654	0.006930683388
0	1618	15.400414239928	0.039893011945
0	1626	15.440307251873	0.022805914517
0	1631	15.46311316639	0.02401367532
0	1636	15.48712684171	0.011163021837
0	1641	15.498289863547	0.051639402936
0	1646	15.549929266483	0.072724680374
0	1652	15.622653946857	0.114029739139
0	1657	15.736683685996	0.136042464386
0	1664	15.872726150382	0.036470727199
0	1669	15.909196877581	0.001337860053
0	1671	15.910534737634	0.10652512558
0	1681	16.017059863214	0.014789987261
0	1686	16.031849850475	0.01076301381
0	1691	16.042612864285	0.01547580515
0	1696	16.058088669435	0.086863964978
0	1701	16.144952634413	0.007676660298
0	1706	16.152629294711	0.019577990651
0	1711	16.172207285362	0.151308858488
0	1716	16.32351614385	0.05906552658
0	1721	16.38258167043	0.014225153049
0	1726	16.396806823479	0.060578178624
0	1732	16.457385002103	0.022017283538
0	1738	16.479402285641	0.078059833712
0	1744	16.557462119353	0.002508858334
0	1746	16.559970977687	0.011822671491
0	1751	16.571793649178	0.013599010943
0	1759	16.585392660121	0.053497678884
0	1764	16.638890339005	0.107204230841
0	1770	16.746094569846	0.122543612153
0	1776	16.868638181999	0.166816872754
0	1782	17.035455054753	0.013072780907
0	1787	17.04852783566	0.053359725757
0	1792	17.101887561417	0.002957418417
0	1794	17.104844979834	0.017610041742
0	1802	17.122455021576	0.017152781437
0	1807	17.139607803013	0.003058461977
0	1809	17.14266626499	0.02936697242
0	1817	17.17203323741	0.099915750194
0	1823	17.271948987604	0.000397627652
0	1825	17.272346615256	0.008429270103
0	1831	17.280775885359	0.073853523777
0	1839	17.354629409136	0.015704594458
0	1845	17.370334003594	0.012987051098
0	1850	17.383321054692	0.039726297965
0	1855	17.423047352657	0.059776369951
0	1860	17.482823722608	0.014536163629
0	1865	17.497359886237	0.088139481701
0	1872	17.585499367938	0.093112772711
0	1878	17.678612140649	0.039402417086
0	1883	17.718014557735	0.034879339608
0	1888	17.752893897343	0.034976209872
0	1893	17.787870107215	0.033149272514
0	1898	17.821019379729	0.007896661939
0	1903	17.828916041668	0.117830224172
0	1911	17.94674626584	0.059151491344
0	1916	18.005897757184	0.123413326806
0	1923	18.12931108399	0.01402479061
0	1928	18.1433358746	0.013829042721
0	1933	18.157164917321	0.027806471894
0	1938	18.184971389215	0.000947261188
0	1940	18.185918650403	0.050651565992
0	1949	18.236570216395	0.055477043725
0	1954	18.29204726012	0.006527548348
0	1956	18.298574808468	0.015774141493
0	1964	18.314348949961	0.153494738885
0	1969	18.467843688846	0.000720488957
0	1971	18.468564177803	0.02736421928
0	1979	18.495928397083	0.005108856887
0	1981	18.50103725397	0.029844168931
0	1989	18.530881422901	0.027136261243
0	1994	18.558017684144	0.012555793214
0	1999	18.570573477358	0.006422827828
0	2001	18.576996305186	0.007816517163
0	2006	18.584812822349	0.011602214367
0	2014	18.596415036716	0.068265104615
0	2019	18.664680141331	0.068335462913
0	2024	18.733015604244	0.095491963435
0	2029	18.828507567679	0.03041163286
0	2034	18.858919200539	0.029101571156
0	2039	18.888020771695	0.006024251104
0	2041	18.894045022799	0.015089125506
0	2049	18.909134148305	0.012124198046
0	2054	18.921258346351	0.005110176688
0	2056	18.926368523039	0.133137057263
0	2064	19.059505580302	0.003182260101
0	2066	19.062687840403	0.000396303985
0	2068	19.063084144388	0.00706484797
0	2073	19.070148992358	0.051343217317
0	2084	19.121492209675	0.154554450074
0	2090	19.276046659749	0.051734365893
0	2096	19.327781025642	0.077287762143
0	2102	19.405068787785	0.057010992896
0	2107	19.462079780681	0.019376226343
0	2112	19.481456007024	0.043155684384
0	2117	19.524611691408	0.028161716732
0	2122	19.55277340814	0.07674626486
0	2128	19.629519673	0.037236341024
0	2133	19.666756014024	0.086255677597
0	2138	19.753011691621	0.041592364388
0	2143	19.794604056009	0.05204019294
0	2149	19.846644248949	0.07881201901
0	2154	19.925456267959	0.009900578353
0	2159	19.935356846312	0.005834180142
0	2161	19.941191026454	0.064781201962
0	2171	20.005972228416	0.030035745362
0	2176	20.036007973778	0.016753507149
0	2181	20.052761480927	0.040334755331
0	2186	20.093096236258	0.09209263709
0	2191	20.185188873348	0.122226180225
0	2196	20.307415053573	0.042217942432
0	2201	20.349632996005	0.128862630964
0	2207	20.478495626969	0.004456186788
0	2209	20.482951813757	0.03259630884
0	2217	20.515548122597	0.12092909688
0	2222	20.636477219477	0.00589790084
0	2224	20.642375120317	0.031037224607
0	2232	20.673412344924	0.060531537074
0	2237	20.733943881998	0.143150800031
0	2244	20.877094682029	0.035199516472
0	2249	20.912294198501	0.002066746197
0	2251	20.914360944698	0.005580501023
0	2256	20.919941445721	0.005683915472
0	2258	20.925625361193	0.106845281428
0	2270	21.032470642621	0.070471924897
0	2275	21.102942567518	0.003474590386
0	2277	21.106417157904	0.00213376812
0	2279	21.108550926024	0.028676109457
0	2290	21.137227035481	0.030034156982
0	2295	21.167261192463	0.058839526968
0	2300	21.226100719431	0.084664306236
0	2307	21.310765025667	0.012340120963
0	2312	21.32310514663	0.027167246157
0	2317	21.350272392787	0.007054982237
0	2319	21.357327375024	0.010533528015
0	2327	21.367860903039	0.088254591318
0	2333	21.456115494357	0.092706405357
0	2338	21.548821899714	0.040318789291
0	2343	21.589140689005	0.005672228651
0	2345	21.594812917656	0.01271121548
0	2353	21.607524133136	0.016985173845
0	2358	21.624509306981	0.041221856779
0	2363	21.66573116376	0.012229135763
0	2368	21.677960299523	0.087535607477
0	2373	21.765495907	0.031205989078
0	2378	21.796701896078	0.11664408686
0	2383	21.913345982938	0.019253014501
0	2388	21.932598997439	0.049420193947
0	2394	21.982019191386	0.119896559204
0	2399	22.10191575059	0.07906385829
0	2404	22.18097960888	0.077001977618
0	2409	22.257981586498	0.059892801234
0	2414	22.317874387732	0.061166393665
0	2419	22.379040781397	0.026862182012
0	2424	22.405902963409	0.007535531574
0	2429	22.413438494983	0.013992029394
0	2434	22.427430524377	0.047314478702
0	2439	22.474745003079	0.039635110693
0	2444	22.514380113772	0.095356840896
0	2450	22.609736954668	0.129419599683
0	2458	22.739156554351	0.128699002799
0	2463	22.86785555715	0.044531608375
0	2469	22.912387165525	0.054266631212
0	2475	22.966653796737	0.030527391571
0	2480	22.997181188308	0.014986347806
0	2485	23.012167536114	0.041953978026
0	2490	23.05412151414	0.016203451015
0	2495	23.070324965155	0.02812987469
0	2501	23.098454839845	0.050458418082
0	2506	23.148913257927	0.015146096511
0	2513	23.164059354438	0.064441345855
0	2518	23.228500700293	0.004179622324
0	2520	23.232680322617	0.018234437584
0	2529	23.250914760201	0.135834589748
0	2534	23.386749349949	0.056654377788
0	2539	23.443403727737	0.013038878024
0	2544	23.456442605761	0.03531095702
0	2549	23.491753562781	0.00067831831
0	2551	23.492431881091	0.088417506206
0	2559	23.580849387297	0.027323752591
0	2565	23.608173139888	0.057489710536
0	2571	23.665662850424	0.003406651623
0	2573	23.669069502047	0.120453542699
0	2583	23.789523044746	0.036967010157
0	2588	23.826490054903	0.006388238033
0	2590	23.832878292936	0.024408332459
0	2598	23.857286625395	0.091545747767
0	2603	23.948832373162	0.013346581661
0	2608	23.962178954823	0.148085727796
0	2617	24.110264682619	0.041463487409
0	2622	24.151728170028	0.042621324945
0	2627	24.194349494973	0.012076795583
0	2632	24.206426290556	0.000207682196
0	2634	24.206633972752	0.008545882413
0	2639	24.215179855165	0.001704334548
0	2641	24.216884189713	0.050369592995
0	2653	24.267253782708	0.026591059171
0	2659	24.293844841879	0.017979583736
0	2664	24.311824425615	0.030650046468
0	2669	24.342474472083	0.112712127925
0	2674	24.455186600008	0.032471044969
0	2679	24.487657644977	0.052622433494
0	2684	24.540280078471	0.057194216765
0	2689	24.597474295236	0.114557581459
0	2694	24.712031876695	0.070302702475
0	2699	24.78233457917	0.013260777666
0	2704	24.795595356836	0.085958376396
0	2710	24.881553733232	0.01499057244
0	2715	24.896544305672	0.021256037454
0	2720	24.917800343126	0.072922449243
0	2725	24.990722792369	0.047719119156
0	2731	25.038441911525	0.015269790911
0	2736	25.053711702436	0.024950398232
0	2741	25.078662100668	0.050634242017
0	2747	25.129296342685	0.064612095064
0	2753	25.193908437749	0.05092066687
0	2758	25.244829104619	0.041445211636
0	2763	25.286274316255	0.035165900113
0	2768	25.321440216368	0.045166076531
0	2773	25.366606292899	0.066890834968
0	2778	25.433497127867	0.024529635863
0	2783	25.45802676373	0.091089617611
0	2788	25.549116381341	0.0503190236
0	2794	25.599435404941	0.079887996393
0	2799	25.679323401334	0.101169121959
0	2804	25.780492523293	0.041357007608
0	2810	25.821849530901	0.052733660773
0	2815	25.874583191674	0.145407696259
0	2820	26.019990887933	0.006882365095
0	2822	26.026873253028	0.009127716046
0	2830	26.036000969074	0.004646256925
0	2832	26.040647225999	0.015996995528
0	2841	26.056644221527	0.056577394708
0	2846	26.113221616235	0.003519502806
0	2848	26.116741119041	0.021971322907
0	2856	26.138712441948	0.057053518777
0	2861	26.195765960725	0.018896851514
0	2867	26.214662812239	0.008818718917
0	2872	26.223481531156	0.110388132843
0	2877	26.333869663999	0.02143729412
0	2882	26.355306958119	0.099723920102
0	2887	26.455030878221	0.009028421345
0	2892	26.464059299566	0.081907902041
0	2898	26.545967201607	0.021929492285
0	2904	26.567896693892	0.022105671319
0	2909	26.590002365211	0.020917934804
0	2914	26.610920300015	0.05119118831
0	2920	26.662111488325	0.015183771474
0	2925	26.677295259799	0.045668816989
0	2931	26.722964076788	0.159866546349
0	2937	26.882830623137	0.013429432815
0	2942	26.896260055952	0.09469038776
0	2947	26.990950443712	0.044542878122
0	2952	27.035493321834	0.042255377966
0	2957	27.0777486998	0.290567928354
0	2962	27.368316628154	0.000527871234
0	2964	27.368844499388	0.002695078852
0	2966	27.37153957824	0.040511986824
0	2978	27.412051565064	0.013558978002
0	2983	27.425610543066	0.229508986543
0	2990	27.655119529609	0.020097571805
0	2995	27.675217101414	0.096451190992
0	3000	27.771668292406	0.080705990662
0	3005	27.852374283068	0.0172142355
0	3010	27.869588518568	0.02932052996
0	3015	27.898909048528	0.033063791094
0	3020	27.931972839622	0.003238848333
0	3022	27.935211687955	0.02675047333
0	3030	27.961962161285	0.019155110647
0	3035	27.981117271932	0.028779922441
0	3043	28.009897194373	0.088750810172
0	3048	28.098648004545	0.002345102742
0	3050	28.100993107287	0.067055965035
0	3058	28.168049072322	0.02513227458
0	3063	28.193181346902	0.016344359464
0	3068	28.209525706366	0.029312423175
0	3073	28.238838129541	0.065208105539
0	3078	28.30404623508	0.008533860468
0	3083	28.312580095548	0.019260588003
0	3088	28.331840683551	0.009864187022
0	3093	28.341704870573	0.008275663284
0	3099	28.349980533857	0.096912308409
0	3104	28.446892842266	0.209581547344
0	3110	28.65647438961	0.014081920255
0	3116	28.670556309865	0.01516551433
0	3121	28.685721824195	0.038673769674
0	3126	28.724395593869	0.046904737859
0	3131	28.771300331728	0.013490697281
0	3136	28.784791029009	0.124799338401
0	3142	28.90959036741	0.002587234732
0	3144	28.912177602142	0.051499624091
0	3152	28.963677226233	0.166995163026
0	3158	29.130672389259	0.027824243452
0	3163	29.158496632711	0.120795330339
0	3168	29.27929196305	0.025309815906
0	3173	29.304601778956	0.021994073357
0	3179	29.326595852313	0.002507150326
0	3181	29.329103002639	0.006073616269
0	3186	29.335176618908	0.004236876707
0	3188	29.339413495615	0.027197439013
0	3199	29.366610934628	0.029953751332
0	3205	29.39656468596	0.010096215934
0	3210	29.406660901894	0.127757452912
0	3215	29.534418354806	0.051412076619
0	3220	29.585830431425	0.013287513782
0	3225	29.599117945207	0.073733935807
0	3230	29.672851881014	0.1015741989
0	3235	29.774426079914	0.071620644259
0	3240	29.846046724173	0.08205339774
0	3246	29.928100121913	0.00336130926
0	3248	29.931461431173	0.009567349438
0	3254	29.941028780611	0.048678989209
0	3262	29.98970776982	0.018725761491
0	3267	30.008433531311	0.032275147299
0	3272	30.04070867861	0.027965551248
0	3278	30.068674229858	0.046474087653
0	3283	30.115148317511	0.098046917362
0	3288	30.213195234873	0.028152785216
0	3293	30.241348020089	0.050277403765
0	3299	30.291625423854	0.114896412239
0	3305	30.406521836093	0.087089676881
0	3311	30.493611512974	0.00948761051
0	3316	30.503099123484	0.034363434132
0	3321	30.537462557616	0.01491386997
0	3326	30.552376427586	0.043668835563
0	3331	30.596045263149	0.01143655242
0	3336	30.607481815569	0.030248778558
0	3341	30.637730594127	0.067172226131
0	3346	30.704902820258	0.014938612106
0	3351	30.719841432364	0.009740418526
0	3356	30.72958185089	0.048160813951
0	3362	30.777742664841	0.024236237697
0	3367	30.801978902538	0.042832449922
0	3372	30.84481135246	0.018661184667
0	3377	30.863472537127	0.101025920601
0	3382	30.964498457728	0.073475092209
0	3387	31.037973549937	0.129231886345
0	3392	31.167205436282	2.5964924e-005
0	3394	31.167231401206	0.042683669147
0	3402	31.209915070353	0.06959431893
0	3407	31.279509389283	0.059222001708
0	3412	31.338731390991	0.110751311947
0	3417	31.449482702938	0.024895205425
0	3422	31.474377908363	0.026104110783
0	3427	31.500482019146	0.056418636655
0	3432	31.556900655801	0.049915475432
0	3437	31.606816131233	0.316334433155
0	3446	31.923150564388	0.093091453324
0	3454	32.016242017712	0.140990070847
0	3460	32.157232088559	0.019952146893
0	3465	32.177184235452	0.007613118646
0	3470	32.184797354098	0.069622253525
0	3475	32.254419607623	0.139166973759
0	3481	32.393586581382	0.019449014937
0	3486	32.413035596319	0.001971230653
0	3488	32.415006826972	0.012284598707
0	3494	32.427291425679	0.001275361314
0	3499	32.428566786993	0.069497128655
0	3507	32.498063915648	0.009788505902
0	3512	32.50785242155	0.043494570896
0	3517	32.551346992446	0.018195619756
0	3522	32.569542612202	0.000617228025
0	3524	32.570159840227	0.209149925425
0	3534	32.779309765652	0.036221821343
0	3539	32.815531586995	0.143641623115
0	3544	32.95917321011	0.204768127459
0	3550	33.163941337569	0.07218676082
0	3555	33.236128098389	0.04815195955
0	3560	33.284280057939	0.048787453724
0	3566	33.333067511663	0.010988335015
0	3571	33.344055846678	0.173500974983
0	3579	33.517556821661	0.082888470679
0	3584	33.60044529234	0.042550467802
0	3589	33.642995760142	0.062309295088
0	3595	33.70530505523	0.011990301996
0	3600	33.717295357226	0.000363002999
0	3602	33.717658360225	0.007161990535
0	3607	33.72482035076	0.063830099746
0	3615	33.788650450506	0.072145229227
0	3620	33.860795679733	0.058579984389
0	3625	33.919375664122	0.037466653227
0	3630	33.956842317349	0.074117014556
0	3635	34.030959331905	0.085021388456
0	3640	34.115980720361	0.014726686287
0	3645	34.130707406648	0.078957817319
0	3652	34.209665223967	0.004277136732
0	3654	34.213942360699	0.05545995669
0	3663	34.269402317389	0.081020910471
0	3669	34.35042322786	0.074974985752
0	3674	34.425398213612	0.013665417145
0	3679	34.439063630757	0.058260821833
0	3687	34.49732445259	0.01389961275
0	3693	34.51122406534	0.027997709027
0	3698	34.539221774367	0.015153660093
0	3703	34.55437543446	0.088640504685
0	3708	34.643015939145	0.010631216954
0	3713	34.653647156099	0.123781528611
0	3720	34.77742868471	0.031426994971
0	3725	34.808855679681	0.075128330905
0	3730	34.883984010586	0.014829342612
0	3735	34.898813353198	0.004488011343
0	3737	34.903301364541	0.195583319159
0	3745	35.0988846837	0.149467121432
0	3750	35.248351805132	0.01357927154
0	3755	35.261931076672	0.032420709742
0	3760	35.294351786414	0.041052325632
0	3765	35.335404112046	0.108354758255
0	3771	35.443758870301	0.067111909316
0	3776	35.510870779617	0.00443912125
0	3778	35.515309900867	0.123601311352
0	3786	35.638911212219	0.139218553075
0	3791	35.778129765294	0.04531196882
0	3796	35.823441734114	0.018906379733
0	3801	35.842348113847	0.005099321321
0	3803	35.847447435168	0.027327992916
0	3811	35.874775428084	0.039435513203
0	3817	35.914210941287	0.057812888571
0	3822	35.972023829858	0.082905355084
0	3829	36.054929184942	0.004760292516
0	3831	36.059689477458	0.113594315002
0	3840	36.17328379246	0.011660644158
0	3845	36.184944436618	0.060361916521
0	3850	36.245306353139	0.043734786221
0	3856	36.28904113936	0.008525557428
0	3861	36.297566696788	0.024327111037
0	3866	36.321893807825	0.00258046908
0	3868	36.324474276905	0.00562482433
0	3873	36.330099101235	0.053001259877
0	3881	36.383100361112	0.000506808728
0	3883	36.38360716984	0.044066308175
0	3891	36.427673478015	0.113235581821
0	3896	36.540909059836	0.035250406002
0	3901	36.576159465838	0.055134839131
0	3907	36.631294304969	0.002244338533
0	3909	36.633538643502	0.01957306101
0	3918	36.653111704512	0.029922708704
0	3923	36.683034413216	0.108607164806
0	3928	36.791641578022	0.043886256274
0	3933	36.835527834296	0.170900359106
0	3938	37.006428193402	0.010402391614
0	3943	37.016830585016	0.004252908027
0	3945	37.021083493043	0.05306410088
0	3953	37.074147593923	0.015087718103
0	3958	37.089235312026	0.022176161905
0	3963	37.111411473931	0.037716200055
0	3969	37.149127673986	0.005509574819
0	3971	37.154637248805	0.126693213395
0	3980	37.2813304622	0.013206662889
0	3985	37.294537125089	0.013267099219
0	3990	37.307804224308	0.000414132001
0	3992	37.308218356309	0.136938975916
0	4000	37.445157332225	0.026715195519
0	4005	37.471872527744	0.115696453434
0	4012	37.587568981178	0.001500754296
0	4014	37.589069735474	0.020640056065
0	4022	37.609709791539	0.04838048513
0	4027	37.658090276669	0.012759808288
0	4032	37.670850084957	0.059866822555
0	4037	37.730716907512	0.010127610253
0	4042	37.740844517765	0.025493549261
0	4047	37.766338067026	0.002827326527
0	4049	37.769165393553	0.178023204709
0	4057	37.947188598262	0.156269213294
0	4062	38.103457811556	0.045330449341
0	4067	38.148788260897	0.007938761669
0	4072	38.156727022566	0.083693053958
0	4078	38.240420076524	0.158235122183
0	4084	38.398655198707	0.008941688714
0	4089	38.407596887421	0.020709722444
0	4094	38.428306609865	0.052717478342
0	4099	38.481024088207	0.003057190225
0	4101	38.484081278432	0.003115659363
0	4103	38.487196937795	0.085526859134
0	4114	38.572723796929	0.002804548943
0	4116	38.575528345872	0.081329843224
0	4124	38.656858189096	0.022760485381
0	4129	38.679618674477	0.031118075677
0	4134	38.710736750154	0.069039787716
0	4140	38.77977653787	0.073998313255
0	4145	38.853774851125	0.017493020756
0	4150	38.871267871881	0.069079117052
0	4155	38.940346988933	0.094960522283
0	4160	39.035307511216	0.029954813285
0	4165	39.065262324501	0.00453423925
0	4167	39.069796563751	0.016659880751
0	4175	39.086456444502	0.077636271719
0	4180	39.164092716221	0.007686093007
0	4185	39.171778809228	0.018099961573
0	4190	39.189878770801	0.120443859408
0	4195	39.310322630209	0.160429275121
0	4201	39.47075190533	0.004120503165
0	4203	39.474872408495	0.063227160615
0	4211	39.53809956911	0.064669504279
0	4216	39.602769073389	0.055677419983
0	4221	39.658446493372	0.004043280133
0	4223	39.662489773505	0.021400199548
0	4231	39.683889973053	0.055426379723
0	4236	39.739316352776	0.008529656337
0	4241	39.747846009113	0.003109390016
0	4243	39.750955399129	0.065801421238
0	4252	39.816756820367	0.005897188363
0	4254	39.82265400873	0.205610146854
0	4264	40.028264155584	0.032250528442
0	4269	40.060514684026	0.003630791514
0	4271	40.06414547554	0.004221166846
0	4276	40.068366642386	0.110145771783
0	4284	40.178512414169	0.001623732571
0	4286	40.18013614674	0.025637173766
0	4294	40.205773320506	0.051029438172
0	4299	40.256802758678	0.114980336687
0	4304	40.371783095365	0.112772803
0	4309	40.484555898365	0.001245195174
0	4311	40.485801093539	0.033008121208
0	4319	40.518809214747	0.039073154365
0	4324	40.557882369112	0.090903278929
0	4329	40.648785648041	0.050237228941
0	4335	40.699022876982	0.061719432438
0	4340	40.76074230942	0.019372569866
0	4345	40.780114879286	0.135175474219
0	4352	40.915290353505	0.01811598678
0	4358	40.933406340285	0.18317192598
0	4363	41.116578266265	0.094247009205
0	4369	41.21082527547	0.044355640539
0	4374	41.255180916009	0.050325834816
0	4379	41.305506750825	0.146008365735
0	4384	41.45151511656	0.004277804516
0	4386	41.455792921076	0.061097534939
0	4394	41.516890456015	0.066455402267
0	4399	41.583345858282	0.031243975241
0	4404	41.614589833523	0.007069582125
0	4406	41.621659415648	0.123270239748
0	4414	41.744929655396	0.109963638409
0	4419	41.854893293805	0.043326848409
0	4424	41.898220142214	0.065423619399
0	4429	41.963643761613	0.013669209724
0	4434	41.977312971337	0.008357390193
0	4439	41.98567036153	0.024673928335
0	4444	42.010344289865	0.01954122728
0	4449	42.029885517145	0.02741909752
0	4454	42.057304614665	0.009378042583
0	4459	42.066682657248	0.008959952055
0	4464	42.075642609303	0.0865488096
0	4470	42.162191418903	0.001265879672
0	4472	42.163457298575	0.148483457636
0	4481	42.311940756211	0.002702293576
0	4483	42.314643049787	0.000406111803
0	4485	42.31504916159	0.056717133105
0	4497	42.371766294695	0.004249848421
0	4499	42.376016143116	0.014643143958
0	4507	42.390659287074	0.030572750557
0	4512	42.421232037631	0.008246973855
0	4518	42.429479011486	0.037689316871
0	4523	42.467168328357	0.011006344601
0	4528	42.478174672958	0.095819189687
0	4533	42.573993862645	0.085265321097
0	4540	42.659259183742	0.021527457146
0	4545	42.680786640888	0.111170904726
0	4550	42.791957545614	0.01027595631
0	4555	42.802233501924	0.030286060859
0	4560	42.832519562783	0.0165540458
0	4565	42.849073608583	0.067515949832
0	4570	42.916589558415	0.001525110205
0	4572	42.91811466862	0.042787009422
0	4581	42.960901678042	0.016936729431
0	4586	42.977838407473	0.033521865734
0	4591	43.011360273207	0.056243440769
0	4598	43.067603713976	0.051697375435
0	4603	43.119301089411	0.042435242898
0	4608	43.161736332309	0.148123361573
0	4613	43.309859693882	0.050304692486
0	4618	43.360164386368	0.081086405851
0	4623	43.441250792219	0.171708411066
0	4631	43.612959203285	0.026418003035
0	4636	43.63937720632	0.028038796151
0	4641	43.667416002471	0.014478189234
0	4646	43.681894191705	0.012132716367
0	4651	43.694026908072	0.000131360143
0	4653	43.694158268215	0.001144323835
0	4655	43.69530259205	0.017214599895
0	4663	43.712517191945	0.05637925229
0	4671	43.768896444235	0.193648951069
0	4676	43.962545395304	0.000772503928
0	4678	43.963317899232	0.027572394114
0	4687	43.990890293346	0.007941425357
0	4692	43.998831718703	0.038835554997
0	4699	44.0376672737	0.033878586456
0	4704	44.071545860156	0.003289348134
0	4706	44.07483520829	0.007487093348
0	4711	44.082322301638	0.007669856088
0	4716	44.089992157726	0.04471521534
0	4724	44.134707373066	0.212008687533
0	4729	44.346716060599	0.0119803542
0	4734	44.358696414799	0.038364160772
0	4740	44.397060575571	0.078103987409
0	4745	44.47516456298	0.012497436635
0	4750	44.487661999615	0.004459840072
0	4752	44.492121839687	0.051352371789
0	4760	44.543474211476	0.027511707213
0	4765	44.570985918689	0.064886430259
0	4770	44.635872348948	0.003838081361
0	4772	44.639710430309	0.035070403365
0	4780	44.674780833674	0.028675161451
0	4785	44.703455995125	0.019936459963
0	4790	44.723392455088	0.065647487495
0	4796	44.789039942583	0.064042449916
0	4801	44.853082392499	0.012910084339
0	4806	44.865992476838	0.006974713055
0	4808	44.872967189893	0.006522444443
0	4813	44.879489634336	0.063736426088
0	4821	44.943226060424	0.179877698622
0	4827	45.123103759046	0.029687397922
0	4832	45.152791156968	0.031664026022
0	4837	45.18445518299	0.036342077598
0	4842	45.220797260588	0.144129656845
0	4847	45.364926917433	0.049282769189
0	4852	45.414209686622	0.048343268347
0	4857	45.462552954969	0.098160743314
0	4862	45.560713698283	0.005018552258
0	4864	45.565732250541	0.018937046137
0	4873	45.584669296678	0.001158087326
0	4875	45.585827384004	0.05955539415
0	4883	45.645382778154	0.110298431882
0	4888	45.755681210036	0.006198105095
0	4890	45.761879315131	0.045871280895
0	4898	45.807750596026	0.028863014814
0	4903	45.83661361084	0.036335481541
0	4909	45.872949092381	0.06314676904
0	4914	45.936095861421	0.200929023027
0	4920	46.137024884448	0.110328428684
0	4925	46.247353313132	0.142044999296
0	4931	46.389398312428	0.040726648317
0	4936	46.430124960745	0.068362766292
0	4942	46.498487727037	0.050171842212
0	4947	46.548659569249	0.013244490503
0	4952	46.561904059752	0.037990072798
0	4957	46.59989413255	0.136762016331
0	4963	46.736656148881	0.02121398766
0	4968	46.757870136541	0.030991729463
0	4973	46.788861866004	0.093465045856
0	4978	46.88232691186	0.055234053054
0	4983	46.937560964914	0.042695617143
0	4988	46.980256582057	0.030957733309
0	4993	47.011214315366	0.015119419035
0	4998	47.026333734401	0.006204509094
0	5000	47.032538243495	0.079754972734
0	5009	47.112293216229	0.007354279529
0	5011	47.119647495758	0.089942425358
0	5019	47.209589921116	0.079892631777
0	5025	47.289482552893	0.030154815521
0	5031	47.319637368414	0.197884742707
0	5039	47.517522111121	0.056911463336
0	5045	47.574433574457	0.019352269515
0	5050	47.593785843972	0.004895396014
0	5052	47.598681239986	0.05405400937
0	5060	47.652735249356	0.064109384824
0	5066	47.71684463418	0.034946257874
0	5071	47.751790892054	0.020509369099
0	5076	47.772300261153	0.041789104489
0	5081	47.814089365642	0.001140020669
0	5083	47.815229386311	0.118595086436
0	5092	47.933824472747	0.0610584855
0	5097	47.994882958247	0.002422227951
0	5099	47.997305186198	0.039731246324
0	5109	48.037036432522	0.01899021283
0	5115	48.056026645352	0.088091015414
0	5126	48.144117660766	0.085741647827
0	5131	48.229859308593	0.006120620617
0	5133	48.23597992921	0.025992602865
0	5141	48.261972532075	0.24959494678
0	5154	48.511567478855	0.130656587022
0	5162	48.642224065877	0.020212334962
0	5169	48.662436400839	0.046683032784
0	5175	48.709119433623	0.007190412927
0	5178	48.71630984655	0.023115290746
0	5187	48.739425137296	0.002164921535
0	5190	48.741590058831	0.041057868283
0	5199	48.782647927114	0.019345987075
0	5205	48.801993914189	0.025310317389
0	5210	48.827304231578	0.011779063243
0	5215	48.839083294821	0.14254553391
0	5227	48.981628828731	0.042703386679
0	5234	49.02433221541	0.110526587672
0	5240	49.134858803082	0.158967189562
0	5248	49.293825992644	0.086858582604
0	5256	49.380684575248	0.012218217514
0	5261	49.392902792762	0.060606680038
0	5267	49.4535094728	0.019958460605
0	5273	49.473467933405	0.079157202487
0	5279	49.552625135892	0.015470271824
0	5284	49.568095407716	0.008336390809
0	5291	49.576431798525	0.015808382949
0	5297	49.592240181474	0.010923915735
0	5303	49.603164097209	0.058092556752
0	5310	49.661256653961	0.009253149064
0	5315	49.670509803025	0.111851801532
0	5322	49.782361604557	0.065001137683
0	5329	49.84736274224	0.043883738579
0	5335	49.891246480819	0.00239427576
0	5337	49.893640756579	0.025597716144
0	5345	49.919238472723	0.053052822334
0	5351	49.972291295057	0.027734626472
0	5356	50.000025921529	0.03860215447
0	5361	50.038628075999	0.040258319522
0	5366	50.078886395521	0.257402289878
0	5375	50.336288685399	0.018225930304
0	5380	50.354514615703	0.001989704607
0	5382	50.35650432031	0.014899655931
0	5390	50.371403976241	0.019910529357
0	5395	50.391314505598	0.120352141065
0	5403	50.511666646663	0.013787012063
0	5408	50.525453658726	0.035821301297
0	5414	50.561274960023	0.023986698424
0	5420	50.585261658447	0.006368189699
0	5422	50.591629848146	0.10374740289
0	5433	50.695377251036	0.042266688856
0	5438	50.737643939892	0.012102870799
0	5444	50.749746810691	0.014381730033
0	5449	50.764128540724	0.003281160346
0	5452	50.76740970107	0.000270482297
0	5454	50.767680183367	0.032091928982
0	5467	50.799772112349	0.042443616102
0	5472	50.842215728451	0.075044537511
0	5480	50.917260265962	0.022173880292
0	5485	50.939434146254	0.152503268815
0	5496	51.091937415069	0.057487294964
0	5504	51.149424710033	0.085961497938
0	5511	51.235386207971	0.04759520146
0	5516	51.282981409431	0.002196854035
0	5518	51.285178263466	0.009540897065
0	5523	51.294719160531	0.129126510826
0	5535	51.423845671357	0.017930978073
0	5540	51.44177664943	0.050419845004
0	5545	51.492196494434	0.062916053625
0	5551	51.555112548059	0.025496821918
0	5556	51.580609369977	0.028166087043
0	5563	51.60877545702	0.200385155035
0	5574	51.809160612055	0.007235263473
0	5576	51.816395875528	0.005164758349
0	5581	51.821560633877	0.00955534243
0	5591	51.831115976307	0.029881351045
0	5596	51.860997327352	0.064672282097
0	5602	51.925669609449	0.004122364605
0	5604	51.929791974054	0.048968494735
0	5614	51.978760468789	0.015936529816
0	5619	51.994696998605	0.040529647426
0	5627	52.035226646031	0.123095359139
0	5638	52.15832200517	0.002870010778
0	5640	52.161192015948	0.323646684947
0	5651	52.484838700895	0.02459048476
0	5657	52.509429185655	0.009354785815
0	5662	52.51878397147	0.029505467417
0	5668	52.548289438887	0.01666432374
0	5673	52.564953762627	0.043895298185
0	5678	52.608849060812	0.061873409893
0	5685	52.670722470705	0.059550736863
0	5692	52.730273207568	0.003598742189
0	5694	52.733871949757	0.06327212343
0	5706	52.797144073187	0.025372060342
0	5712	52.822516133529	0.044823336895
0	5720	52.867339470424	0.235723962015
0	5731	53.103063432439	0.015785036926
0	5736	53.118848469365	0.161435626578
0	5743	53.280284095943	0.026238536172
0	5749	53.306522632115	0.062246795987
0	5756	53.368769428102	0.074724714262
0	5763	53.443494142364	0.116126319235
0	5772	53.559620461599	0.031328445749
0	5780	53.590948907348	0.026625951021
0	5787	53.617574858369	0.025870007517
0	5792	53.643444865886	0.046510436341
0	5799	53.689955302227	0.096389284169
0	5804	53.786344586396	0.070818955501
0	5811	53.857163541897	0.265891812447
0	5824	54.123055354344	0.122902318726
0	5830	54.24595767307	0.027251555522
0	5836	54.273209228592	0.000113686042
0	5838	54.273322914634	0.05028257759
0	5846	54.323605492224	0.208656358734
0	5858	54.532261850958	0.121122185728
0	5867	54.653384036686	0.009017831712
0	5872	54.662401868398	0.008389612372
0	5877	54.67079148077	0.086196252265
0	5884	54.756987733035	0.017208527981
0	5892	54.774196261016	0.030155463186
0	5899	54.804351724202	0.052101204606
0	5906	54.856452928808	0.056607216207
0	5911	54.913060145015	0.009823281862
0	5916	54.922883426877	0.003977800189
0	5919	54.926861227066	0.016432373545
0	5927	54.943293600611	0.015122545748
0	5933	54.958416146359	0.137602422115
0	5939	55.096018568474	0.03070925678
0	5945	55.126727825254	0.018908974556
0	5950	55.14563679981	0.09521219649
0	5956	55.2408489963	0.005049543128
0	5959	55.245898539428	0.119465376261
0	5971	55.365363915689	0.034590404206
0	5976	55.399954319895	0.01614638345
0	5981	55.416100703345	0.003953200059
0	5983	55.420053903404	0.003562068653
0	5988	55.423615972057	0.014449373882
0	5994	55.438065345939	0.019159134559
0	6003	55.457224480498	0.155246060632
0	6014	55.61247054113	0.02381783643
0	6020	55.63628837756	0.092108793186
0	6025	55.728397170746	0.044249056725
0	6030	55.772646227471	0.00805133747
0	6035	55.780697564941	0.010671593132
0	6040	55.791369158073	0.01413130853
0	6045	55.805500466603	0.032740902006
0	6054	55.838241368609	0.00281580055
0	6058	55.841057169159	0.027553093648
0	6067	55.868610262807	0.011147036547
0	6072	55.879757299354	0.079869194142
0	6079	55.959626493496	0.082779809447
0	6089	56.042406302943	0.005962169337
0	6091	56.04836847228	0.123195061701
0	6102	56.171563533981	0.002392478593
0	6105	56.173956012574	0.049037602405
0	6113	56.222993614979	0.059887449683
0	6119	56.282881064662	0.004466741805
0	6121	56.287347806467	0.033125156298
0	6129	56.320472962765	0.034787187469
0	6135	56.355260150234	0.017171594402
0	6140	56.372431744636	0.055051783254
0	6145	56.42748352789	0.105295378517
0	6154	56.532778906407	0.005633982474
0	6156	56.538412888881	0.101676426155
0	6167	56.640089315036	0.043639438788
0	6173	56.683728753824	0.004568441164
0	6175	56.688297194988	0.070454515699
0	6185	56.758751710687	0.031028990037
0	6190	56.789780700724	0.02435685157
0	6196	56.814137552294	0.054151953796
0	6202	56.86828950609	0.087326558276
0	6208	56.955616064366	0.032215542044
0	6213	56.98783160641	0.009302758886
0	6218	56.997134365296	0.004900479256
0	6220	57.002034844552	0.015319488348
0	6228	57.0173543329	0.062107573726
0	6233	57.079461906626	0.081727067332
0	6240	57.161188973958	0.085499137718
0	6246	57.246688111676	0.057686425107
0	6252	57.304374536783	0.154199660307
0	6261	57.45857419709	0.076162467908
0	6266	57.534736664998	0.004557237884
0	6268	57.539293902882	0.009839971466
0	6273	57.549133874348	0.02843935571
0	6282	57.577573230058	0.1533164728
0	6291	57.730889702858	0.005959975456
0	6293	57.736849678314	0.009737099439
0	6301	57.746586777753	0.01314191896
0	6306	57.759728696713	0.059691832123
0	6314	57.819420528836	0.024801311482
0	6319	57.844221840318	0.018447411151
0	6324	57.862669251469	0.006520948868
0	6327	57.869190200337	0.035581744169
0	6335	57.904771944506	0.00928748904
0	6340	57.914059433546	0.122958552721
0	6345	58.037017986267	0.028240343676
0	6350	58.065258329943	0.075198267735
0	6356	58.140456597678	0.034355764007
0	6361	58.174812361685	0.069121458008
0	6366	58.243933819693	0.08292450325
0	6375	58.326858322943	0.005873886654
0	6378	58.332732209597	0.068255150752
0	6386	58.400987360349	0.122223837012
0	6391	58.523211197361	0.016408054855
0	6397	58.539619252216	0.116691983513
0	6403	58.656311235729	0.179170524591
0	6414	58.83548176032	0.207119361497
0	6425	59.042601121817	0.080260291193
0	6431	59.12286141301	0.005996358997
0	6433	59.128857772007	0.117897949543
0	6445	59.24675572155	0.024128323744
0	6452	59.270884045294	0.030906542905
0	6457	59.301790588199	0.016076542528
0	6462	59.317867130727	0.065777792371
0	6468	59.383644923098	0.094427814874
0	6480	59.478072737972	0.072035178065
0	6485	59.550107916037	0.114701960696
0	6492	59.664809876733	0.019590380916
0	6497	59.684400257649	0.035179360687
0	6502	59.719579618336	0.026084648256
0	6508	59.745664266592	0.012505343836
0	6513	59.758169610428	0.220883437617
0	6527	59.979053048045	0.002472736572
0	6529	59.981525784617	0.022829191909
0	6539	60.004354976526	0.106416475608
0	6545	60.110771452134	0.012055941933
0	6550	60.122827394067	0.148225477325
0	6557	60.271052871392	0.020572475176
0	6562	60.291625346568	0.070258889064
0	6567	60.361884235632	0.04033308828
0	6572	60.402217323912	0.086859035191
0	6578	60.489076359103	0.068101462695
0	6585	60.557177821798	0.018625827458
0	6591	60.575803649256	0.037102750681
0	6597	60.612906399937	0.006905126442
0	6599	60.619811526379	0.006407330628
0	6604	60.626218857007	0.005313682675
0	6609	60.631532539682	0.051737719973
0	6617	60.683270259655	0.055732873202
0	6623	60.739003132857	0.091049113205
0	6629	60.830052246062	0.007650299853
0	6631	60.837702545915	0.040322405448
0	6639	60.878024951363	0.12822109805
0	6644	61.006246049413	0.012643928198
0	6650	61.018889977611	0.014045960802
0	6655	61.032935938413	0.048999332036
0	6660	61.081935270449	0.068929290809
0	6665	61.150864561258	0.131885067086
0	6670	61.282749628344	0.047214318486
0	6676	61.32996394683	0.044719881373
0	6682	61.374683828203	0.021147128124
0	6687	61.395830956327	0.022420497323
0	6692	61.41825145365	0.049879174861
0	6697	61.468130628511	0.030487744948
0	6702	61.498618373459	0.000904773889
0	6704	61.499523147348	0.044946522503
0	6713	61.544469669851	0.072293190562
0	6718	61.616762860413	0.006868922668
0	6720	61.623631783081	0.009435451207
0	6725	61.633067234288	0.082251407644
0	6733	61.715318641932	0.047389908828
0	6738	61.76270855076	0.101279869411
0	6743	61.863988420171	0.006255875236
0	6745	61.870244295407	0.007222514938
0	6750	61.877466810345	0.042244581681
0	6758	61.919711392026	0.009636778402
0	6763	61.929348170428	0.066148315059
0	6769	61.995496485487	0.011517660727
0	6774	62.007014146214	0.079624710897
0	6779	62.086638857111	0.04339097493
0	6784	62.130029832041	0.007324117303
0	6786	62.137353949344	0.067462997319
0	6795	62.204816946663	0.032393557883
0	6800	62.237210504546	0.046591029826
0	6805	62.283801534372	0.0264695732
0	6810	62.310271107572	0.044008329633
0	6815	62.354279437205	0.025465385187
0	6820	62.379744822392	0.042146907565
0	6825	62.421891729957	0.088793787554
0	6831	62.510685517511	0.120782637481
0	6837	62.631468154992	0.010395188993
0	6842	62.641863343985	0.00604814999
0	6844	62.647911493975	0.071672830657
0	6853	62.719584324632	0.037727148409
0	6859	62.757311473041	0.066551469303
0	6864	62.823862942344	0.002756295134
0	6866	62.826619237478	0.02744653556
0	6874	62.854065773038	0.009286921392
0	6879	62.86335269443	0.007369715578
0	6881	62.870722410008	0.077569462712
0	6889	62.94829187272	0.060951230439
0	6894	63.009243103159	0.005463846451
0	6897	63.01470694961	0.103991389272
0	6905	63.118698338882	0.039967733063
0	6910	63.158666071945	0.00967099135
0	6915	63.168337063295	0.035991434892
0	6920	63.204328498187	0.006253320292
0	6922	63.210581818479	0.129077311392
0	6930	63.339659129871	0.011824373901
0	6935	63.351483503772	0.01442271595
0	6941	63.365906219722	0.029302427652
0	6946	63.395208647374	0.044433141193
0	6952	63.439641788567	0.030853292906
0	6957	63.470495081473	0.096240516061
0	6962	63.566735597534	0.070720885007
0	6967	63.637456482541	0.004785450505
0	6969	63.642241933046	0.008970206571
0	6974	63.651212139617	0.053947606435
0	6982	63.705159746052	0.11490989744
0	6987	63.820069643492	0.02621736742
0	6992	63.846287010912	0.036875326858
0	6997	63.88316233777	0.0102596668
0	7002	63.89342200457	0.016383660909
0	7008	63.909805665479	0.049444183831
0	7013	63.95924984931	0.001151175009
0	7015	63.960401024319	0.095174580176
0	7026	64.055575604495	0.044084295039
0	7031	64.099659899534	0.090155548179
0	7036	64.189815447713	0.011275416308
0	7041	64.201090864021	0.075068773985
0	7048	64.276159638006	0.029127877866
0	7053	64.305287515872	0.023441349386
0	7058	64.328728865258	0.16192674627
0	7064	64.490655611528	0.06374762568
0	7069	64.554403237208	0.011308475072
0	7074	64.56571171228	0.009876472271
0	7079	64.575588184551	0.026700092497
0	7084	64.602288277048	0.083100180736
0	7089	64.685388457784	0.09281225791
0	7094	64.778200715694	0.150446399273
0	7099	64.928647114967	0.001379638972
0	7101	64.930026753939	0.011343514383
0	7106	64.941370268322	0.055598301939
0	7116	64.996968570261	0.014386376691
0	7121	65.011354946952	0.031331859193
0	7127	65.042686806145	0.004269034079
0	7129	65.046955840224	0.020989055005
0	7137	65.067944895229	0.06000656194
0	7142	65.127951457169	0.03465528625
0	7148	65.162606743419	0.032938045144
0	7154	65.195544788563	0.028292024672
0	7160	65.223836813235	0.014430342919
0	7165	65.238267156154	0.040773888003
0	7170	65.279041044157	0.009814749778
0	7175	65.288855793935	0.005720249762
0	7177	65.294576043697	0.030451230134
0	7185	65.325027273831	0.02192763726
0	7190	65.346954911091	0.019871829829
0	7195	65.36682674092	0.132867029705
0	7200	65.499693770625	0.013447603151
0	7205	65.513141373776	0.035047004314
0	7210	65.54818837809	0.041875338416
0	7215	65.590063716506	0.051288068912
0	7220	65.641351785418	0.058204362856
0	7225	65.699556148274	0.031803523141
0	7230	65.731359671415	0.008951413478
0	7235	65.740311084893	0.17196775864
0	7240	65.912278843533	0.017298551982
0	7245	65.929577395515	0.006187281399
0	7247	65.935764676914	0.213382907766
0	7255	66.14914758468	0.021583325202
0	7260	66.170730909882	0.160483520944
0	7265	66.331214430826	0.057004245204
0	7270	66.38821867603	0.123704989316
0	7276	66.511923665346	0.076955949422
0	7281	66.588879614768	0.022958381919
0	7286	66.611837996687	0.025350189702
0	7291	66.637188186389	0.011185567953
0	7296	66.648373754342	0.067501765626
0	7301	66.715875519968	0.010677856636
0	7306	66.726553376604	0.023314612858
0	7311	66.749867989462	0.008375845328
0	7316	66.75824383479	0.005134833428
0	7318	66.763378668218	0.063810872803
0	7327	66.827189541021	0.000855882022
0	7329	66.828045423043	0.087525690411
0	7337	66.915571113454	0.00763912216
0	7340	66.923210235614	0.068613614687
0	7348	66.991823850301	0.217423477829
0	7354	67.20924732813	0.014466027871
0	7359	67.223713356001	0.010662033058
0	7364	67.234375389059	0.065194716473
0	7369	67.299570105532	0.0004017305
0	7371	67.299971836032	0.05806168382
0	7379	67.358033519852	0.04201809514
0	7384	67.400051614992	0.034615881625
0	7389	67.434667496617	0.032917706211
0	7395	67.467585202828	0.023887764297
0	7400	67.491472967125	0.017684709302
0	7405	67.509157676427	0.091065347002
0	7411	67.600223023429	0.133399301796
0	7416	67.733622325225	0.005426172147
0	7418	67.739048497372	0.060500795202
0	7426	67.799549292574	0.010467285215
0	7431	67.810016577789	0.026740113812
0	7436	67.836756691601	0.099215307135
0	7441	67.935971998736	0.00119816016
0	7443	67.937170158896	0.078479122213
0	7453	68.015649281109	0.058677661972
0	7460	68.074326943081	0.085278519805
0	7465	68.159605462886	0.055881819457
0	7471	68.215487282343	0.053404762946
0	7476	68.268892045289	0.020590162502
0	7481	68.289482207791	0.219273634428
0	7486	68.508755842219	0.179356676911
0	7491	68.68811251913	0.010695303889
0	7496	68.698807823019	0.127027966317
0	7501	68.825835789336	0.028663115526
0	7506	68.854498904862	0.034911157531
0	7511	68.889410062393	0.071011479846
0	7517	68.960421542239	0.093728777314
0	7522	69.054150319553	0.038630602087
0	7527	69.09278092164	0.095533664579
0	7532	69.188314586219	0.046064979638
0	7538	69.234379565857	0.023038601702
0	7543	69.257418167559	0.140563424911
0	7549	69.39798159247	0.248085130843
0	7554	69.646066723313	0.025500835167
0	7559	69.67156755848	0.024659550771
0	7564	69.696227109251	0.090364452074
0	7569	69.786591561325	0.071496373084
0	7574	69.858087934409	0.006505661422
0	7576	69.864593595831	0.030425042828
0	7585	69.895018638659	0.032738735132
0	7591	69.927757373791	0.006093867867
0	7593	69.933851241658	0.064747972883
0	7601	69.998599214541	0.041085049005
0	7607	70.039684263546	0.102850983622
0	7613	70.142535247168	0.061394965021
0	7618	70.203930212189	0.058995690969
0	7623	70.262925903158	0.047330123707
0	7628	70.310256026865	0.024414205062
0	7633	70.334670231927	0.017752675491
0	7638	70.352422907418	0.021943968181
0	7643	70.374366875599	0.109578111254
0	7648	70.483944986853	0.017467197594
0	7653	70.501412184447	0.078726831567
0	7658	70.580139016014	0.044431590495
0	7663	70.624570606509	0.02548453103
0	7668	70.650055137539	0.045567238212
0	7673	70.695622375751	0.016099015576
0	7678	70.711721391327	0.047764322195
0	7683	70.759485713522	0.085985893251
0	7690	70.845471606773	0.075123567407
0	7695	70.92059517418	0.015640965962
0	7700	70.936236140142	0.029872924104
0	7705	70.966109064246	0.01507905761
0	7710	70.981188121856	0.020303048826
0	7715	71.001491170682	0.015601020945
0	7720	71.017092191627	0.005070834581
0	7722	71.022163026208	0.046612161798
0	7730	71.068775188006	0.208219206169
0	7737	71.276994394175	0.0160550899
0	7742	71.293049484075	0.024227779633
0	7748	71.317277263708	0.097712079753
0	7753	71.414989343461	0.027150940553
0	7758	71.442140284014	0.016678983241
0	7763	71.458819267255	0.06839050364
0	7768	71.527209770895	0.146764202573
0	7773	71.673973973468	0.015258799859
0	7778	71.689232773327	0.024838283026
0	7783	71.714071056353	0.055877270967
0	7788	71.76994832732	0.062717338235
0	7793	71.832665665555	0.206496261161
0	7801	72.039161926716	0.009681329539
0	7806	72.048843256255	0.01555705464
0	7811	72.064400310895	0.009664151653
0	7817	72.074064462548	0.016756255961
0	7822	72.090820718509	0.015202698237
0	7827	72.106023416746	0.02886908539
0	7832	72.134892502136	0.016740448716
0	7837	72.151632950852	0.086585290165
0	7843	72.238218241017	0.055013348154
0	7848	72.293231589171	0.016966854096
0	7853	72.310198443267	0.157405311824
0	7858	72.467603755091	0.051712005063
0	7863	72.519315760154	0.05416439144
0	7869	72.573480151594	0.009952215461
0	7874	72.583432367055	0.048820579025
0	7879	72.63225294608	0.091551491181
0	7886	72.723804437261	0.18703962246
0	7891	72.910844059721	0.017303284832
0	7896	72.928147344553	0.018664401991
0	7901	72.946811746544	0.172958431176
0	7906	73.11977017772	0.079564319613
0	7911	73.199334497333	0.004752068395
0	7913	73.204086565728	0.048335336257
0	7921	73.252421901985	0.040620988379
0	7926	73.293042890364	0.048827390859
0	7931	73.341870281223	0.025461196196
0	7936	73.367331477419	0.024942152621
0	7941	73.39227363004	0.011945348809
0	7947	73.404218978849	0.189577845253
0	7953	73.593796824102	0.006488286976
0	7955	73.600285111078	0.018997713893
0	7963	73.619282824971	0.002344185281
0	7965	73.621627010252	0.015526228351
0	7973	73.637153238603	0.019656583168
0	7978	73.656809821771	0.048213674256
0	7984	73.705023496027	0.059525397333
0	7989	73.76454889336	0.003889276998
0	7991	73.768438170358	0.040682075275
0	7999	73.809120245633	0.025303658586
0	8004	73.834423904219	0.013085573154
0	8009	73.847509477373	0.046523109457
0	8014	73.89403258683	0.040476079237
0	8019	73.934508666067	0.042850220694
0	8024	73.977358886761	0.19002387939
0	8030	74.167382766151	0.111116721063
0	8035	74.278499487214	0.133107485192
0	8041	74.411606972406	0.114045624618
0	8048	74.525652597024	0.068374057148
0	8056	74.594026654172	0.0026738104
0	8058	74.596700464572	0.093675133594
0	8066	74.690375598166	0.063529594992
0	8071	74.753905193158	0.042107823651
0	8076	74.796013016809	0.130376182591
0	8081	74.9263891994	0.00119157169
0	8083	74.92758077109	0.017644363908
0	8091	74.945225134998	0.006602580545
0	8094	74.951827715543	0.005934990413
0	8099	74.957762705956	0.08259888304
0	8107	75.040361588996	0.095849286016
0	8112	75.136210875012	0.105355675726
0	8120	75.241566550738	0.038121965327
0	8125	75.279688516065	0.06402098589
0	8130	75.343709501955	0.080931346221
0	8135	75.424640848176	0.012281036792
0	8140	75.436921884968	0.029666812707
0	8145	75.466588697675	0.012237732561
0	8150	75.478826430236	0.119592485569
0	8155	75.598418915805	0.033481347189
0	8160	75.631900262994	0.118843515942
0	8166	75.750743778936	0.024248391293
0	8171	75.774992170229	0.028975224875
0	8177	75.803967395104	0.009057779917
0	8182	75.813025175021	0.09445050049
0	8187	75.907475675511	0.058002323362
0	8193	75.965477998873	0.0824299061
0	8200	76.047907904973	0.010203685645
0	8205	76.058111590618	0.045261879419
0	8210	76.103373470037	0.037768250278
0	8215	76.141141720315	0.019701899742
0	8220	76.160843620057	0.054552042568
0	8225	76.215395662625	0.014038196019
0	8230	76.229433858644	0.050577470313
0	8235	76.280011328957	0.067052706036
0	8241	76.347064034993	0.046949083697
0	8246	76.39401311869	0.070690050197
0	8251	76.464703168887	0.070722129221
0	8256	76.535425298108	0.001012092442
0	8258	76.53643739055	0.002998713618
0	8260	76.539436104168	0.069899200563
0	8271	76.609335304731	0.030268000591
0	8276	76.639603305322	0.01152323494
0	8281	76.651126540262	0.154587968942
0	8288	76.805714509204	0.017250461894
0	8293	76.822964971098	0.062820645813
0	8298	76.885785616911	0.076735332496
0	8303	76.962520949407	0.00412343044
0	8305	76.966644379847	0.048329303637
0	8314	77.014973683484	0.006675917284
0	8316	77.021649600768	0.119389043268
0	8325	77.141038644036	0.15656358648
0	8331	77.297602230516	0.124543374856
0	8338	77.422145605372	0.038242402342
0	8344	77.460388007714	0.008325560198
0	8349	77.468713567912	0.165955972133
0	8355	77.634669540045	0.019435898481
0	8361	77.654105438526	0.130428172975
0	8367	77.784533611501	0.057023092901
0	8374	77.841556704402	0.073437969595
0	8379	77.914994673997	0.068410605301
0	8385	77.983405279298	0.037164084744
0	8390	78.020569364042	0.019865530077
0	8395	78.040434894119	0.096154412215
0	8401	78.136589306334	0.015487852318
0	8406	78.152077158652	0.024015203556
0	8411	78.176092362208	0.083604818022
0	8416	78.25969718023	0.111727593059
0	8421	78.371424773289	1.717179e-006
0	8423	78.371426490468	0.01820481746
0	8431	78.389631307928	0.102393828006
0	8436	78.492025135934	0.006089055873
0	8438	78.498114191807	0.025617797867
0	8446	78.523731989674	0.028335548109
0	8451	78.552067537783	0.034572113393
0	8457	78.586639651176	0.018383280251
0	8462	78.605022931427	0.138023670454
0	8469	78.743046601881	0.002551258109
0	8471	78.74559785999	0.038673678869
0	8479	78.784271538859	0.063137912348
0	8484	78.847409451207	0.031800995871
0	8489	78.879210447078	0.010954324619
0	8494	78.890164771697	0.060009304449
0	8499	78.950174076146	0.028279789641
0	8504	78.978453865787	0.026240974005
0	8509	79.004694839792	0.0053642245
0	8511	79.010059064292	0.044352145627
0	8519	79.054411209919	0.01305420141
0	8524	79.067465411329	0.066826486362
0	8530	79.134291897691	0.053094712628
0	8535	79.187386610319	0.007233348937
0	8537	79.194619959256	0.008012460605
0	8542	79.202632419861	0.058563459961
0	8551	79.261195879822	0.006401779137
0	8554	79.267597658959	0.018882040074
0	8562	79.286479699033	0.122204977514
0	8567	79.408684676547	0.016025906789
0	8572	79.424710583336	0.006477192395
0	8574	79.431187775731	0.031247595729
0	8582	79.46243537146	0.003215639962
0	8584	79.465651011422	0.011053418731
0	8589	79.476704430153	0.043922533578
0	8597	79.520626963731	0.131535136031
0	8603	79.652162099762	0.016649357397
0	8608	79.668811457159	0.127602542694
0	8614	79.796413999853	0.017955216907
0	8619	79.81436921676	0.05105683864
0	8624	79.8654260554	0.099832066008
0	8630	79.965258121408	0.02231742969
0	8635	79.987575551098	0.085920362077
0	8642	80.073495913175	0.032866454336
0	8647	80.106362367511	0.11319847674
0	8653	80.219560844251	0.036543982952
0	8658	80.256104827203	0.124788581587
0	8664	80.38089340879	0.003316277237
0	8666	80.384209686027	0.001209846728
0	8668	80.385419532755	0.010449781691
0	8676	80.395869314446	0.014443735944
0	8684	80.41031305039	0.047478935793
0	8689	80.457791986183	0.002127294045
0	8691	80.459919280228	0.013883008666
0	8699	80.473802288894	0.039412286976
0	8704	80.51321457587	0.005174951703
0	8706	80.518389527573	0.059986537724
0	8714	80.578376065297	0.071789778406
0	8719	80.650165843703	0.138630514409
0	8725	80.788796358112	0.007580492216
0	8730	80.796376850328	0.120679721367
0	8736	80.917056571695	0.003991426536
0	8738	80.921047998231	0.019999090971
0	8746	80.941047089202	0.134499204185
0	8751	81.075546293387	0.18652038547
0	8756	81.262066678857	0.017482284884
0	8761	81.279548963741	0.031957704405
0	8766	81.311506668146	0.086454999544
0	8771	81.39796166769	0.065979018708
0	8776	81.463940686398	0.012618468046
0	8782	81.476559154444	0.00485983221
0	8784	81.481418986654	0.053837124712
0	8792	81.535256111366	0.01806596752
0	8797	81.553322078886	0.053501429333
0	8803	81.606823508219	0.00945748651
0	8808	81.616280994729	0.095866603799
0	8813	81.712147598528	0.020187158871
0	8818	81.732334757399	0.004899351172
0	8820	81.737234108571	0.030645089396
0	8828	81.767879197967	0.038018689068
0	8833	81.805897887035	0.028886699245
0	8838	81.83478458628	0.061902947811
0	8843	81.896687534091	0.126904480221
0	8849	82.023592014312	0.016372327508
0	8854	82.03996434182	0.002913433999
0	8856	82.042877775819	0.041458206407
0	8864	82.084335982226	0.005750993037
0	8866	82.090086975263	0.006264896024
0	8871	82.096351871287	0.027445972219
0	8879	82.123797843506	0.026451348738
0	8884	82.150249192244	0.078396165448
0	8890	82.228645357692	0.048471077362
0	8895	82.277116435054	0.09947840373
0	8901	82.376594838784	0.042874918279
0	8906	82.419469757063	0.224896176402
0	8911	82.644365933465	0.00877721846
0	8916	82.653143151925	0.090192642359
0	8921	82.743335794284	0.010254048237
0	8926	82.753589842521	0.000808377803
0	8928	82.754398220324	0.027422692139
0	8936	82.781820912463	0.108197512533
0	8942	82.890018424996	0.002339519825
0	8944	82.892357944821	0.024326244106
0	8952	82.916684188927	0.135053918755
0	8958	83.051738107682	0.021240901605
0	8963	83.072979009287	0.00282693994
0	8966	83.075805949227	0.005611246847
0	8971	83.081417196074	0.08045357004
0	8979	83.161870766114	0.015043560672
0	8984	83.176914326786	0.188387037145
0	8991	83.365301363931	0.057096112404
0	8996	83.422397476335	0.068065125429
0	9001	83.490462601764	0.030887185042
0	9006	83.521349786806	0.015201302291
0	9011	83.536551089097	0.002001063446
0	9013	83.538552152543	0.070080000896
0	9021	83.608632153439	0.021438461709
0	9026	83.630070615148	0.030090600595
0	9031	83.660161215743	0.044042136365
0	9036	83.704203352108	0.020101352674
0	9041	83.724304704782	0.074696618148
0	9047	83.79900132293	0.103119787604
0	9052	83.902121110534	0.051123476285
0	9057	83.953244586819	0.082096686534
0	9064	84.035341273353	0.103428929976
0	9069	84.138770203329	0.016688128034
0	9074	84.155458331363	0.049784555999
0	9079	84.205242887362	0.01616068578
0	9084	84.221403573142	0.072216026937
0	9089	84.293619600079	0.029466962568
0	9094	84.323086562647	0.044354036757
0	9099	84.367440599404	0.006114854072
0	9101	84.373555453476	0.016575744259
0	9109	84.390131197735	0.023462630838
0	9115	84.413593828573	0.111690192019
0	9120	84.525284020592	0.034019040633
0	9125	84.559303061225	0.019195370155
0	9130	84.57849843138	0.056643985127
0	9135	84.635142416507	0.09910683224
0	9141	84.734249248747	0.003492071468
0	9143	84.737741320215	0.036283341977
0	9151	84.774024662192	0.008743499547
0	9156	84.782768161739	0.208193240009
0	9161	84.990961401748	0.023847251745
0	9166	85.014808653493	0.02130889182
0	9171	85.036117545313	0.031675453299
0	9176	85.067792998612	0.130013302663
0	9181	85.197806301275	0.159042873636
0	9186	85.356849174911	0.023456010617
0	9191	85.380305185528	0.110977321329
0	9197	85.491282506857	0.03290835305
0	9202	85.524190859907	0.049666598488
0	9208	85.573857458395	0.074270070001
0	9214	85.648127528396	0.082523747752
0	9220	85.730651276148	0.003162083188
0	9222	85.733813359336	0.000880957391
0	9224	85.734694316727	0.070208842233
0	9235	85.80490315896	0.02617966755
0	9240	85.83108282651	0.060887724871
0	9245	85.891970551381	0.130670934738
0	9252	86.022641486119	0.137768429037
0	9257	86.160409915156	0.044124842814
0	9262	86.20453475797	0.047916240277
0	9268	86.252450998247	0.002753073441
0	9270	86.255204071688	0.12071969627
0	9278	86.375923767958	0.049784683043
0	9283	86.425708451001	0.003579311283
0	9285	86.429287762284	0.022285043843
0	9293	86.451572806127	0.071801795543
0	9298	86.52337460167	0.03579095673
0	9303	86.5591655584	0.005761847679
0	9305	86.564927406079	0.014970317116
0	9313	86.579897723195	0.004430695518
0	9315	86.584328418713	0.007486003429
0	9320	86.591814422142	0.007781490173
0	9325	86.599595912315	0.022648014469
0	9333	86.622243926784	0.003033241386
0	9335	86.62527716817	0.005143111321
0	9340	86.630420279491	0.128378413026
0	9348	86.758798692517	0.024423026037
0	9353	86.783221718554	0.015327868111
0	9358	86.798549586665	0.131766204117
0	9364	86.930315790782	0.008730740496
0	9369	86.939046531278	0.039929072369
0	9374	86.978975603647	0.008100082799
0	9379	86.987075686446	0.012244689355
0	9384	86.999320375801	0.065520942872
0	9390	87.064841318673	0.067200142206
0	9395	87.132041460879	0.002972678629
0	9397	87.135014139508	0.066471689758
0	9406	87.201485829266	0.057927595094
0	9411	87.25941342436	0.079927226189
0	9416	87.339340650549	0.135615470383
0	9421	87.474956120932	0.057145565859
0	9426	87.532101686791	0.054527140771
0	9431	87.586628827562	0.193106827319
0	9438	87.779735654881	0.020447127651
0	9443	87.800182782532	0.009702228858
0	9448	87.80988501139	0.024518093136
0	9453	87.834403104526	0.026840550625
0	9458	87.861243655151	0.078543911713
0	9464	87.939787566864	0.034252496407
0	9469	87.974040063271	0.007840469558
0	9471	87.981880532829	0.011366075929
0	9479	87.993246608758	0.011092631498
0	9486	88.004339240256	0.024147934753
0	9491	88.028487175009	0.134815543436
0	9496	88.163302718445	0.142667132224
0	9503	88.305969850669	0.038360674697
0	9508	88.344330525366	0.043661574353
0	9513	88.387992099719	0.032712704926
0	9518	88.420704804645	0.078491606314
0	9523	88.499196410959	0.004127615605
0	9525	88.503324026564	0.01660710813
0	9533	88.519931134694	0.024040651923
0	9538	88.543971786617	0.048546833548
0	9543	88.592518620165	0.046460298011
0	9548	88.638978918176	0.012886866812
0	9553	88.651865784988	0.004051425358
0	9555	88.655917210346	0.012273018217
0	9563	88.668190228563	0.015915715497
0	9568	88.68410594406	0.173131568802
0	9573	88.857237512862	0.101623425755
0	9579	88.958860938617	0.017575146175
0	9584	88.976436084792	0.019972991214
0	9589	88.996409076006	0.01279920127
0	9594	89.009208277276	0.013202734808
0	9599	89.022411012084	0.01642807438
0	9604	89.038839086464	0.023167257117
0	9609	89.062006343581	0.00137779658
0	9611	89.063384140161	0.00149970196
0	9613	89.064883842121	0.04192501918
0	9625	89.106808861301	0.039873575676
0	9631	89.146682436977	0.008916222982
0	9636	89.155598659959	0.111081505638
0	9641	89.266680165597	0.02616763168
0	9646	89.292847797277	0.000156990095
0	9648	89.293004787372	0.066948710568
0	9656	89.35995349794	0.04863007394
0	9661	89.40858357188	0.099417609456
0	9669	89.508001181336	0.001319031975
0	9671	89.509320213311	0.012949375279
0	9676	89.52226958859	0.041427636607
0	9684	89.563697225197	0.036129380856
0	9689	89.599826606053	0.100391959898
0	9694	89.700218565951	0.004187297984
0	9696	89.704405863935	0.06121438482
0	9705	89.765620248755	0.00676879586
0	9707	89.772389044615	0.234916815552
0	9715	90.007305860167	0.02409607868
0	9720	90.031401938847	0.014244105733
0	9725	90.04564604458	0.053190882867
0	9730	90.098836927447	0.025363505458
0	9736	90.124200432905	0.017963343517
0	9741	90.142163776422	0.030123859138
0	9746	90.17228763556	0.004439581853
0	9748	90.176727217413	0.009199607571
0	9753	90.185926824984	0.028519319495
0	9761	90.214446144479	0.00301364443
0	9763	90.217459788909	0.035261606231
0	9771	90.25272139514	0.097261178362
0	9777	90.349982573502	0.105476910644
0	9782	90.455459484146	0.088377971912
0	9788	90.543837456058	0.019253903728
0	9793	90.563091359786	0.016035588765
0	9798	90.579126948551	0.019287542955
0	9803	90.598414491506	0.110027000423
0	9808	90.708441491929	0.003303418629
0	9810	90.711744910558	0.082115018673
0	9820	90.793859929231	0.026053709157
0	9825	90.819913638388	0.143248246263
0	9830	90.963161884651	0.010160474995
0	9835	90.973322359646	0.018679279145
0	9840	90.992001638791	0.043557697944
0	9845	91.035559336735	0.025242805045
0	9850	91.06080214178	0.030088365578
0	9855	91.090890507358	0.146824639543
0	9860	91.237715146901	0.012008470045
0	9865	91.249723616946	0.004390795133
0	9867	91.254114412079	0.000847726659
0	9869	91.254962138738	0.028739608445
0	9880	91.283701747183	0.238913723836
0	9889	91.522615471019	0.012606743063
0	9894	91.535222214082	0.187105664187
0	9900	91.722327878269	0.00421167752
0	9902	91.726539555789	0.006432987094
0	9907	91.732972542883	0.009536600065
0	9912	91.742509142948	0.104632306501
0	9922	91.847141449449	0.238893798576
0	9933	92.086035248025	0.22330480591
0	9939	92.309340053935	0.004258986334
0	9942	92.313599040269	0.014444544402
0	9950	92.328043584671	0.11251284272
0	9959	92.440556427391	0.091207700005
0	9967	92.531764127396	0.110741118414
0	9976	92.64250524581	0.036919228469
0	9985	92.679424474279	0.172185808006
0	9991	92.851610282285	0.037231421494
0	9997	92.888841703779	0.008806213317
0	10002	92.897647917096	0.004630749828
0	10004	92.902278666924	0.01278291647
0	10012	92.915061583394	0.030268049364
0	10017	92.945329632758	0.021917146709
0	10023	92.967246779467	0.237210058744
0	10039	93.204456838211	0.089084659737
0	10046	93.293541497948	0.00712907334
0	10049	93.300670571288	0.014403879666
0	10058	93.315074450954	0.097350229608
0	10064	93.412424680562	0.02899620287
0	10070	93.441420883432	0.106879063591
0	10078	93.548299947023	0.039235335404
0	10084	93.587535282427	0.004475581636
0	10086	93.592010864063	0.000808833581
0	10088	93.592819697644	0.063031400064
0	10102	93.655851097708	0.031743260665
0	10107	93.687594358373	0.000555126887
0	10109	93.68814948526	0.027303119873
0	10119	93.715452605133	0.02281554277
0	10124	93.738268147903	0.004228288629
0	10126	93.742496436532	0.103489746367
0	10136	93.845986182899	0.071572027343
0	10141	93.917558210242	0.107975578333
0	10147	94.025533788575	0.050940772411
0	10154	94.076474560986	0.181857270976
0	10168	94.258331831962	0.040250219766
0	10174	94.298582051728	0.030569169122
0	10179	94.32915122085	0.012845755285
0	10185	94.341996976135	0.016542353065
0	10191	94.3585393292	0.039492324636
0	10196	94.398031653836	0.035521735786
0	10201	94.433553389622	0.055468536863
0	10207	94.489021926485	0.028406281681
0	10212	94.517428208166	0.044874458896
0	10219	94.562302667062	0.054612180487
0	10228	94.616914847549	0.010747408959
0	10233	94.627662256508	0.137858864058
0	10241	94.765521120566	0.030154661235
0	10246	94.795675781801	0.029772198982
0	10252	94.825447980783	0.024710797988
0	10258	94.850158778771	0.106132302197
0	10264	94.956291080968	0.036494343909
0	10271	94.992785424877	0.083670627195
0	10280	95.076456052072	0.075502950373
0	10286	95.151959002445	0.010596465876
0	10291	95.162555468321	0.057419743201
0	10296	95.219975211522	0.054060690052
0	10305	95.274035901574	0.021538270717
0	10311	95.295574172291	0.093856272471
0	10316	95.389430444762	0.004044746053
0	10318	95.393475190815	0.052872376817
0	10328	95.446347567632	0.021861446993
0	10333	95.468209014625	0.089460572191
0	10341	95.557669586816	0.042299785487
0	10346	95.599969372303	0.030692931744
0	10351	95.630662304047	0.052940163422
0	10356	95.683602467469	0.032159242846
0	10361	95.715761710315	0.036987264157
0	10369	95.752748974472	0.071373874344
0	10375	95.824122848816	0.007014450943
0	10377	95.831137299759	0.046808445941
0	10386	95.8779457457	0.026400927522
0	10391	95.904346673222	0.100936051205
0	10398	96.005282724427	0.005884376861
0	10400	96.011167101288	0.028819906369
0	10408	96.039987007657	0.043451971682
0	10413	96.083438979339	0.091548289232
0	10419	96.174987268571	0.009187120678
0	10425	96.184174389249	0.050536695062
0	10430	96.234711084311	0.003578553746
0	10432	96.238289638057	0.018090279604
0	10440	96.256379917661	0.099454805983
0	10445	96.355834723644	0.06304083316
0	10450	96.418875556804	0.099630495094
0	10455	96.518506051898	0.095823709212
0	10460	96.61432976111	0.024292688822
0	10465	96.638622449932	0.017113676276
0	10470	96.655736126208	0.008810915307
0	10475	96.664547041515	0.009470730786
0	10480	96.674017772301	0.00250088322
0	10482	96.676518655521	0.044763797605
0	10491	96.721282453126	0.020400668881
0	10496	96.741683122007	0.179140645219
0	10501	96.920823767226	0.106799049262
0	10506	97.027622816488	0.027992503049
0	10511	97.055615319537	0.108376229849
0	10517	97.163991549386	0.004244945217
0	10519	97.168236494603	0.024508621998
0	10527	97.192745116601	0.009627469417
0	10532	97.202372586018	0.042571356833
0	10537	97.244943942851	0.067577346048
0	10544	97.312521288899	0.109031529619
0	10549	97.421552818518	0.003846956462
0	10551	97.42539977498	0.016589486806
0	10559	97.441989261786	0.026161830118
0	10564	97.468151091904	0.022671963372
0	10569	97.490823055276	0.029211784726
0	10574	97.520034840002	0.006811602752
0	10576	97.526846442754	0.120736444136
0	10584	97.64758288689	0.035061272802
0	10589	97.682644159692	0.002843865597
0	10591	97.685488025289	0.039866321864
0	10599	97.725354347153	0.001623552101
0	10601	97.726977899254	0.167616441943
0	10610	97.894594341197	0.117805741894
0	10616	98.012400083091	0.04189997528
0	10621	98.054300058371	0.031820595285
0	10626	98.086120653656	0.114283087995
0	10631	98.200403741651	0.007563384807
0	10636	98.207967126458	0.085691867775
0	10641	98.293658994233	0.074902760385
0	10647	98.368561754618	0.01809341742
0	10652	98.386655172038	0.018796938001
0	10657	98.405452110039	0.034264521148
0	10662	98.439716631187	0.050660090618
0	10667	98.490376721805	0.019409381813
0	10672	98.509786103618	0.043100778091
0	10677	98.552886881709	0.044783030735
0	10683	98.597669912444	0.010129127884
0	10688	98.607799040328	0.007592885189
0	10695	98.615391925517	0.097480147587
0	10700	98.712872073104	0.101799515144
0	10706	98.814671588248	0.027653963818
0	10711	98.842325552066	0.071308439121
0	10716	98.913633991187	0.069199026489
0	10721	98.982833017676	0.081909331901
0	10726	99.064742349577	0.130982483875
0	10731	99.195724833452	0.085724826574
0	10736	99.281449660026	0.019059715331
0	10741	99.300509375357	0.07555963923
0	10747	99.376069014587	0.085100316582
0	10752	99.461169331169	0.003970190738
0	10754	99.465139521907	0.047419917566
0	10762	99.512559439473	0.0447365298
0	10767	99.557295969273	0.014674825475
0	10773	99.571970794748	0.08451676617
0	10779	99.656487560918	0.060216715868
0	10784	99.716704276786	0.19523232655
0	10791	99.911936603336	0.006929323794
0	10794	99.91886592713	0.042237087614
0	10802	99.961103014744	0.026256518497
0	10807	99.987359533241	0.076543790763
0	10815	100.063903324004	0.005062978589
0	10817	100.068966302593	0.06802145629
0	10827	100.136987758883	0.008222453853
0	10832	100.145210212736	0.017458488268
0	10838	100.162668701004	0.018116077178
0	10843	100.180784778182	0.048739850188
0	10848	100.22952462837	0.065996240112
0	10854	100.295520868482	0.005567757387
0	10856	100.301088625869	0.00725822764
0	10861	100.308346853509	0.011192563619
0	10869	100.319539417128	0.150153747726
0	10876	100.469693164854	0.024334452682
0	10882	100.494027617536	0.024219856803
0	10887	100.518247474339	0.077104455546
0	10892	100.595351929885	0.015559796283
0	10897	100.610911726168	0.048817993763
0	10903	100.659729719931	0.013315822513
0	10908	100.673045542444	0.001290648737
0	10910	100.674336191181	0.020382033718
0	10918	100.694718224899	0.071167387027
0	10923	100.765885611926	0.017146717928
0	10928	100.783032329854	0.009576584509
0	10934	100.792608914363	0.006153950761
0	10936	100.798762865124	0.004216720106
0	10941	100.80297958523	0.01078830801
0	10946	100.81376789324	0.102264053197
0	10954	100.916031946437	0.101767498041
0	10959	101.017799444478	0.001526963663
0	10961	101.019326408141	0.050803415676
0	10969	101.070129823817	0.049998965591
0	10974	101.120128789408	0.014903085072
0	10979	101.13503187448	0.041968823216
0	10985	101.177000697696	0.113675545814
0	10991	101.29067624351	0.026379485867
0	10996	101.317055729377	0.061058274647
0	11001	101.378114004024	0.053892803592
0	11007	101.432006807616	0.022687300313
0	11012	101.454694107929	0.041316121377
0	11017	101.496010229306	0.20085430836
0	11023	101.696864537666	0.039022536705
0	11028	101.735887074371	0.015175961852
0	11033	101.751063036223	0.011412524667
0	11038	101.76247556089	0.028373190851
0	11043	101.790848751741	0.018721519085
0	11048	101.809570270826	0.035760364576
0	11053	101.845330635402	0.083035424768
0	11059	101.92836606017	0.12178213577
0	11064	102.05014819594	0.019536618332
0	11069	102.069684814272	0.039556386812
0	11074	102.109241201084	0.110161518592
0	11079	102.219402719676	0.068985638481
0	11084	102.288388358157	0.045012923107
0	11090	102.333401281264	0.006309750221
0	11092	102.339711031485	0.008459305146
0	11100	102.348170336631	0.101044911728
0	11105	102.449215248359	0.020114129522
0	11111	102.469329377881	0.177855944216
0	11117	102.647185322097	0.03463424522
0	11122	102.681819567317	0.109560104937
0	11127	102.791379672254	0.09341386037
0	11132	102.884793532624	0.011642336032
0	11137	102.896435868656	0.040888631323
0	11142	102.937324499979	0.139056223286
0	11148	103.076380723265	0.035508638203
0	11153	103.111889361468	0.018871586597
0	11158	103.130760948065	0.033759983483
0	11163	103.164520931548	0.002754350397
0	11165	103.167275281945	0.152790063275
0	11177	103.32006534522	0.002764990473
0	11179	103.322830335693	0.020775326935
0	11187	103.343605662628	0.183614444921
0	11192	103.527220107549	0.010791913485
0	11197	103.538012021034	0.029991410086
0	11202	103.56800343112	0.056204810563
0	11207	103.624208241683	0.125414872573
0	11213	103.749623114256	0.113501503185
0	11218	103.863124617441	0.00185812028
0	11220	103.864982737721	0.030665311609
0	11228	103.89564804933	0.070913458655
0	11233	103.966561507985	0.032665164064
0	11239	103.999226672049	0.007364158611
0	11243	104.00659083066	0.04289158877
0	11251	104.04948241943	0.018348340944
0	11256	104.067830760374	0.170207754187
0	11261	104.238038514561	0.029774531512
0	11266	104.267813046073	0.010290792682
0	11271	104.278103838755	0.089013114974
0	11276	104.367116953729	0.127991273164
0	11281	104.495108226893	0.103439038146
0	11286	104.598547265039	0.005875588594
0	11288	104.604422853633	0.062710633203
0	11296	104.667133486836	0.107544754186
0	11301	104.774678241022	0.019591494157
0	11306	104.794269735179	0.022647620274
0	11311	104.816917355453	0.086837996544
0	11316	104.903755351997	0.042989934655
0	11322	104.946745286652	0.012038218986
0	11327	104.958783505638	0.027027985782
0	11332	104.98581149142	0.044023224965
0	11337	105.029834716385	0.067834745655
0	11342	105.09766946204	0.001497189761
0	11344	105.099166651801	0.059038075885
0	11353	105.158204727686	0.105381586739
0	11359	105.263586314425	0.00058688343
0	11361	105.264173197855	0.050557781885
0	11369	105.31473097974	0.02423880987
0	11374	105.33896978961	0.013891272047
0	11379	105.352861061657	0.105126142322
0	11384	105.457987203979	0.022013153423
0	11389	105.480000357402	0.068564180639
0	11394	105.548564538041	0.034210945445
0	11399	105.582775483486	0.010104944703
0	11404	105.592880428189	0.078216002116
0	11409	105.671096430305	0.03453282835
0	11415	105.705629258655	0.03340575475
0	11420	105.739035013405	0.113553373395
0	11425	105.8525883868	0.054074391436
0	11430	105.906662778236	0.016910936215
0	11435	105.923573714451	0.000359490984
0	11437	105.923933205435	0.050444492479
0	11447	105.974377697914	0.015713961305
0	11452	105.990091659219	0.109776476552
0	11457	106.099868135771	0.057793142953
0	11463	106.157661278724	0.144351533733
0	11468	106.302012812457	0.2721145099
0	11474	106.574127322357	0.025814849792
0	11479	106.599942172149	0.039892188109
0	11484	106.639834360258	0.019034524369
0	11489	106.658868884627	0.012834878961
0	11494	106.671703763588	0.061439062767
0	11500	106.733142826355	0.054545744961
0	11506	106.787688571316	0.048866209601
0	11511	106.836554780917	0.120488805363
0	11517	106.95704358628	0.049545888931
0	11522	107.006589475211	0.075171554316
0	11527	107.081761029527	0.113601579134
0	11532	107.195362608661	0.007039980231
0	11534	107.202402588892	0.083684941684
0	11544	107.286087530576	0.021472079259
0	11549	107.307559609835	0.027049238764
0	11555	107.334608848599	0.022690810796
0	11560	107.357299659395	0.04863825485
0	11566	107.405937914245	0.136285616886
0	11571	107.542223531131	0.022732787043
0	11576	107.564956318174	0.024324553822
0	11581	107.589280871996	0.040020469037
0	11586	107.629301341033	0.035975649126
0	11591	107.665276990159	0.042370824123
0	11596	107.707647814282	0.022667355238
0	11601	107.73031516952	0.071965635435
0	11607	107.802280804955	0.20041870654
0	11615	108.002699511495	0.085458357125
0	11624	108.08815786862	0.010672515462
0	11629	108.098830384082	0.013724783252
0	11634	108.112555167334	0.008040148376
0	11639	108.12059531571	0.001923609663
0	11641	108.122518925373	0.021096992038
0	11649	108.143615917411	0.006368607144
0	11651	108.149984524555	0.003439425244
0	11656	108.153423949799	0.039063998483
0	11664	108.192487948282	0.067742999104
0	11670	108.260230947386	0.032214901439
0	11677	108.292445848825	0.00377924036
0	11679	108.296225089185	0.010950132739
0	11687	108.307175221924	0.082557672634
0	11694	108.389732894558	0.032274468479
0	11699	108.422007363037	0.154430520651
0	11706	108.576437883688	0.062136569261
0	11715	108.638574452949	0.036772895257
0	11721	108.675347348206	0.02849858359
0	11727	108.703845931796	0.093507879696
0	11733	108.797353811492	0.02012318709
0	11739	108.817476998582	0.051298939165
0	11745	108.868775937747	0.115568866829
0	11753	108.984344804576	0.017522461228
0	11759	109.001867265804	0.066843910586
0	11766	109.06871117639	0.079614493347
0	11774	109.148325669737	0.058251340705
0	11780	109.206577010442	0.166806338317
0	11790	109.373383348759	0.046420648479
0	11796	109.419803997238	0.110214868765
0	11803	109.530018866003	0.08861795006
0	11811	109.618636816063	0.019812765916
0	11816	109.638449581979	0.065388573095
0	11823	109.703838155074	0.033837552264
0	11830	109.737675707338	0.028080977885
0	11836	109.765756685223	0.00198667849
0	11838	109.767743363713	0.00841151839
0	11843	109.776154882103	0.060226727627
0	11851	109.83638160973	0.010762036261
0	11856	109.847143645991	0.015074154699
0	11862	109.86221780069	0.03963620868
0	11867	109.90185400937	0.026174458131
0	11873	109.928028467501	0.01379555982
0	11880	109.941824027321	0.02172176461
0	11885	109.963545791931	0.029219206596
0	11892	109.992764998527	0.005043283125
0	11895	109.997808281652	0.0707007113
0	11903	110.068508992952	0.005554066819
0	11905	110.074063059771	0.034624285131
0	11914	110.108687344902	0.063769783159
0	11920	110.172457128061	0.085738161965
0	11925	110.258195290026	0.034428024492
0	11930	110.292623314518	0.55693822094
0	11945	110.849561535458	0.053038369232
0	11951	110.90259990469	0.014069124757
0	11956	110.916669029447	0.045216926323
0	11961	110.96188595577	0.026207823083
0	11967	110.988093778853	0.026624829241
0	11973	111.014718608094	0.024057619966
0	11978	111.03877622806	0.006765514845
0	11980	111.045541742905	0.046313525192
0	11989	111.091855268097	0.012109507813
0	11994	111.10396477591	0.008164636056
0	11999	111.112129411966	0.011916391194
0	12004	111.12404580316	0.090932167315
0	12011	111.214977970475	0.075855433916
[...]
22	21401	200.680089267361	3.0069326683112
22	21727	203.687021935672	3.1958600061168
22	22082	206.882881941789	0.865440964634
22	22200	207.748322906423	1.3759696144052
22	22349	209.124292520828	4.3810907394723
22	22833	213.5053832603	0.0088407459765674
22	22834	213.514224006277	1.5858637187973
22	23029	215.100087725074	3.3734723359175
22	23350	218.473560060992	2.8896115304326
22	23649	221.363171591425	4.5392924653665
22	24119	225.902464056791	1.3173109928351
22	24268	227.219775049626	0.16205155820086
22	24275	227.381826607827	1.7178596210406
22	24450	229.099686228868	2.8124836215792
22	24756	231.912169850447	4.0987414250008
22	25294	236.010911275448	1.1458360743879
22	25423	237.156747349836	0.77110405060596
22	25482	237.927851400442	2.8154623155687
22	25765	240.743313716011	0.96562423432785
22	25845	241.708937950339	1.4783035081389
22	25969	243.187241458478	0.49378266184658
22	26008	243.681024120325	1.2855969718425
22	26117	244.966621092168	0.44748596098623
22	26167	245.414107053154	1.174345233601
22	26324	246.588452286755	0.16929017285204
22	26348	246.757742459607	3.9233124887218
22	26760	250.681054948329	2.3859350834184
22	26953	253.066990031747	1.0765551250708
22	27103	254.143545156818	0.12853366081483
22	27135	254.272078817633	0.73448975218962
22	27213	255.006568569823	1.8936711088003
22	27405	256.900239678623	1.6153158142046
22	27632	258.515555492828	2.0576702452362
22	27858	260.573225738064	0.86233885277621
22	27939	261.43556459084	2.2778388959867
22	28221	263.713403486827	1.423706680745
22	28416	265.137110167572	0.23681267825064
22	28433	265.373922845823	1.8319441371688
22	28579	267.205866982992	0.86729482360581
22	28684	268.073161806598	0.0062579592017242
22	28685	268.0794197658	0.1169789060448
22	28692	268.196398671845	1.8814805631123
22	28864	270.077879234957	1.7776210401884
22	29006	271.855500275145	7.6273409451223
22	29826	279.482841220267	2.1564316497552
22	30069	281.639272870022	4.291551723054
22	30637	285.930824593076	10.012674190544
22	31628	295.94349878362	1.9589827579862
22	31799	297.902481541606	0.27172190705532
22	31823	298.174203448661	3.0677881584821
22	32129	301.241991607143	2.8670097063712
22	32399	304.109001313514	0.045975779118857
22	32409	304.154977092633	0.071786679212635
22	32428	304.226763771846	0.28365391292841
22	32462	304.510417684774	0.33807031299117
22	32509	304.848487997765	3.0721782970408
22	32806	307.920666294806	1.4288106114853
22	33001	309.349476906291	1.7814126114053
22	33133	311.130889517696	0.33950970889639
22	33159	311.470399226592	3.7524646916748
22	33600	315.222863918267	0.56713269066933
22	33681	315.789996608936	4.0471334576741
22	34129	319.83713006661	2.1424199851171
22	34393	321.979550051727	1.6499825509666
22	34620	323.629532602694	0.082379300611458
22	34625	323.711911903305	4.7321784478327
22	35192	328.444090351138	0.16228214598454
22	35199	328.606372497123	0.92319334280201
22	35319	329.529565839925	2.9614810178723
22	35641	332.491046857797	1.3435089636103
22	35741	333.834555821407	1.8915134493666
22	35914	335.726069270774	0.48978889722034
22	35975	336.215858167994	1.4741396808593
22	36171	337.689997848853	0.28765136454887
22	36213	337.977649213402	0.17118178744479
22	36222	338.148831000847	0.36602450088769
22	36259	338.514855501735	0.18482429724849
22	36276	338.699679798983	0.94028598774192
22	36368	339.639965786725	2.6856071254777
22	36680	342.325572912203	1.9318378504216
22	36884	344.257410762625	1.1659520760713
22	37004	345.423362838696	3.6709042171439
22	37417	349.09426705584	0.14633615629931
22	37424	349.240603212139	1.252199604842
22	37520	350.492802816981	1.2082050269921
22	37647	351.701007843973	0.47224934768382
22	37727	352.173257191657	0.030828946394349
22	37728	352.204086138051	11.36556937863
22	38865	363.569655516681	0.78771712356925
22	38991	364.35737264025	0.94412473601982
22	39070	365.30149737627	1.102583279481
22	39222	366.404080655751	8.4257218894066
22	40116	374.829802545158	0.019044217173143
22	40122	374.848846762331	3.225707845107
22	40458	378.074554607438	3.5873579326597
22	40811	381.661912540098	3.4909995825397
22	41203	385.152912122638	1.7170524753712
22	41392	386.869964598009	0.083531111980102
22	41398	386.953495709989	1.533124773011
22	41497	388.486620483	1.4550713855701
22	41628	389.94169186857	2.3516030280319
22	41835	392.293294896602	0.6058564498896
22	41905	392.899151346492	1.2241131222104
22	41998	394.123264468702	0.58425388621804
22	42068	394.70751835492	5.1705697499786
22	42627	399.878088104899	0.4349285881622
23	1557	14.88013127667	4.7205665301002
23	2127	19.60069780677	1.3852380602389
23	2269	20.985935867009	2.1693164908975
23	2509	23.155252357907	3.0578613548274
23	2866	26.213113712734	2.4518612410032
23	3115	28.664974953737	0.70916812221065
23	3204	29.374143075948	1.3608745928875
23	3358	30.735017668835	1.8534889848885
23	3532	32.588506653724	1.6523671528583
23	3662	34.240873806582	2.0178973773228
23	3855	36.258771183905	5.9961795454856
23	4480	42.254950729391	0.3553210300884
23	4538	42.610271759479	0.0014883428637058
23	4539	42.611760102343	0.32733841633871
23	4580	42.939098518682	9.0086486810069
23	5613	51.947747199689	0.10775257470661
23	5633	52.055499774396	0.71064527487448
23	5704	52.76614504927	3.7539359961844
23	6152	56.520081045454	2.6947424314664
23	6444	59.21482347692	1.2933820089373
23	6584	60.508205485857	0.86322369617272
23	6681	61.37142918203	1.9935337913247
23	6940	63.364962973355	6.0200243947272
23	7548	69.384987368082	4.3182959907546
23	7983	73.703283358837	2.9866079204565
23	8286	76.689891279294	0.7521926278423
23	8343	77.442083907136	0.53862385276211
23	8384	77.980707759898	0.60229380752291
23	8456	78.583001567421	0.64314656439402
23	8550	79.226148131815	1.4696331933983
23	8724	80.695781325213	2.6601253837878
23	8990	83.355906709001	4.9295399335186
23	9501	88.28544664252	0.83752411666243
23	9630	89.122970759182	0.63869119807147
23	9704	89.761661957253	2.8693551648363
23	9975	92.631017122089	2.0415738081163
23	10238	94.672590930205	2.6166110448452
23	10543	97.28920197505	7.8384397917293
23	11352	105.127641766779	0.81806324776956
23	11446	105.945705014549	10.736183484853
23	12514	116.681888499402	0.46518370830199
23	12561	117.147072207704	0.32049729765498
23	12609	117.467569505359	0.71024177675763
23	12651	118.177811282117	1.4030268211233
23	12785	119.58083810324	0.78509937267409
23	12888	120.365937475914	0.79022937215771
23	12947	121.156166848072	0.65621763620319
23	13035	121.812384484275	0.25539023842861
23	13052	122.067774722704	0.2420303609168
23	13083	122.309805083621	3.1545926815721
23	13463	125.464397765193	0.7365211161052
23	13555	126.200918881298	1.0419462417839
23	13671	127.242865123082	0.90267998864797
23	13775	128.14554511173	0.31920115191945
23	13825	128.464746263649	0.74149687056763
23	13925	129.206243134217	4.1901458466652
23	14332	133.396388980882	3.8446988907367
23	14773	137.241087871619	1.3195121867763
23	14927	138.560600058395	0.05633823156808
23	14928	138.616938289963	1.5380451690978
23	15111	140.154983459061	2.5885176978192
23	15427	142.74350115688	0.80820855434941
23	15499	143.551709711229	2.5720577418716
23	15795	146.123767453101	0.16859832024581
23	15808	146.292365773347	0.39230916052229
23	15869	146.684674933869	2.3694549381296
23	16136	149.054129871999	0.30780629166776
23	16158	149.361936163667	0.25467536436928
23	16165	149.616611528036	5.6038102626051
23	16812	155.220421790641	4.7181749474531
23	17243	159.938596738094	0.429108376749
23	17304	160.367705114843	1.3775399576318
23	17493	161.745245072475	1.0474788884704
23	17618	162.792723960945	1.7607767129682
23	17837	164.553500673913	9.2337363223021
23	18637	173.787236996215	0.63169173277892
23	18694	174.418928728994	0.052705726829951
23	18710	174.471634455824	3.3832613057954
23	19053	177.854895761619	3.2727891059794
23	19361	181.127684867598	1.9467947045252
23	19545	183.074479572123	1.1833827958248
23	19655	184.257862367948	0.38364823549929
23	19688	184.641510603447	0.69915621212556
23	19766	185.340666815573	0.036728641994197
23	19772	185.377395457567	1.6975777377591
23	19962	187.074973195326	0.78164435747619
23	20046	187.856617552802	3.4834207892597
23	20420	191.340038342062	1.2945917793557
23	20581	192.634630121418	5.8097393355623
23	21163	198.44436945698	0.88685932252931
23	21279	199.331228779509	11.688337911536
23	22576	211.019566691045	2.1517501220047
23	22776	213.17131681305	2.9446427321463
23	23110	216.115959545196	2.1496530142664
23	23323	218.265612559462	1.2622330539981
23	23469	219.52784561346	0.73252861502073
23	23532	220.260374228481	0.28192260676349
23	23563	220.542296835244	0.4338961683959
23	23601	220.97619300364	0.16342774753874
23	23623	221.139620751179	2.175209862811
23	23867	223.31483061399	1.3165896119398
23	24002	224.63142022593	0.017549253988623
23	24003	224.648969479919	1.092896162852
23	24116	225.741865642771	1.836050144065
23	24301	227.577915786836	3.4768092201653
23	24636	231.054725007001	4.8970568417189
23	25286	235.95178184872	4.9422088001257
23	25766	240.893990648846	3.0730426592648
23	26028	243.967033308111	0.76095255383162
23	26088	244.727985861943	0.076622186909967
23	26094	244.804608048853	1.5744880571048
23	26293	246.379096105958	0.8672569576853
23	26397	247.246353063643	2.6188967587305
23	26675	249.865249822373	0.86804122420774
23	26779	250.733291046581	2.8602320720236
23	27054	253.593523118605	6.609638847126
23	27810	260.203161965731	0.88936763923681
23	27899	261.092529604968	1.6703080933953
23	28081	262.762837698363	2.2358843275215
23	28399	264.998722025885	1.265678751236
23	28504	266.264400777121	2.3569655647722
23	28736	268.621366341893	4.792791733206
23	29165	273.414158075099	1.0708560640899
23	29267	274.485014139189	0.41749516272376
23	29295	274.902509301913	0.97087343728177
23	29351	275.873382739195	2.3120853465441
23	29666	278.185468085739	4.1569492741479
23	30162	282.342417359887	1.623068676485
23	30402	283.965486036372	3.2528014486919
23	30791	287.218287485064	1.6389077278318
23	30960	288.857195212896	2.1519212950615
23	31234	291.009116507958	5.5504854732819
23	31684	296.55960198124	2.5587919124516
23	31911	299.118393893692	0.7546157513653
23	31982	299.873009645057	0.54629135387515
23	32044	300.419300998932	2.3051473234542
23	32322	302.724448322386	2.4983604823875
23	32533	305.222808804774	1.6816102851071
23	32742	306.904419089881	1.7407737376489
23	32906	308.64519282753	0.21239623899589
23	32932	308.857589066526	0.14021478673399
23	32950	308.99780385326	2.113011223904
23	33129	311.110815077164	2.7216951754684
23	33447	313.832510252632	0.047249192801016
23	33454	313.879759445433	0.063849618029183
23	33460	313.943609063462	0.014568829016278
23	33463	313.958177892478	2.1194868052014
23	33737	316.077664697679	0.095317279425009
23	33751	316.172981977104	2.6327194368239
23	33998	318.805701413928	3.1410431789424
23	34389	321.94674459287	0.61120431502505
23	34485	322.557948907895	2.3491683825009
23	34784	324.907117290396	2.5361239932865
23	35106	327.443241283683	1.4491452028252
23	35253	328.892386486508	1.1203353644739
23	35391	330.012721850982	1.169714515498
23	35509	331.18243636648	6.6820628886334
23	36192	337.864499255113	0.2662115151537
23	36221	338.130710770267	0.39842728775679
23	36260	338.529138058024	0.80058118259344
23	36346	339.329719240617	2.7330948212813
23	36647	342.062814061898	0.19093381081762
23	36669	342.253747872716	0.64498982929234
23	36741	342.898737702008	1.4553344644998
23	36897	344.354072166508	1.1827216959398
23	37020	345.536793862448	1.9839211981972
23	37233	347.520715060645	1.7159302254059
23	37423	349.236645286051	1.7952115223918
23	37581	351.031856808443	7.4364120540516
23	38312	358.468268862495	0.74073119517851
23	38390	359.209000057674	3.9210616754892
23	38827	363.130061733163	1.7976479454005
23	39033	364.927709678564	0.78786397135886
23	39130	365.715573649923	0.13028055138465
23	39137	365.845854201308	8.4434489757577
23	40060	374.289303177066	0.15380104322515
23	40076	374.443104220291	1.2587219862665
23	40176	375.701826206558	1.7718838222605
23	40392	377.473710028818	0.23558095739537
23	40406	377.709290986213	3.4823330663764
23	40761	381.191624052589	7.9973036712071
23	41570	389.188927723796	8.4413992001134
23	42342	397.630326923909	5.0113513758688
24	1841	17.359049821192	0.48495296000732
24	1908	17.844002781199	1.5363635526454
24	2101	19.380366333844	5.7406037324418
24	2746	25.120970066286	1.3686644943602
24	2897	26.489634560646	0.066215589068304
24	2903	26.555850149714	1.4290777036021
24	3037	27.984927853316	5.3137032692466
24	3565	33.298631122563	5.084563121007
24	4083	38.38319424357	2.266207098395
24	4331	40.649401341965	2.3768015800091
24	4596	43.026202921974	2.5411167801236
24	4866	45.567319702098	0.88979150384091
24	4941	46.457111205939	1.6640053657462
24	5124	48.121116571685	0.86901310854306
24	5232	48.990129680228	1.2369755401593
24	5373	50.227105220387	0.91637317817326
24	5503	51.14347839856	0.27056240276879
24	5534	51.414040801329	1.5104089575316
24	5725	52.924449758861	1.2535969798979
24	5829	54.178046738759	0.58303350961165
24	5887	54.761080248371	0.83522851780302
24	6013	55.596308766174	0.65948424134043
24	6118	56.255793007514	1.5178318760739
24	6312	57.773624883588	0.789041582213
24	6402	58.562666465801	0.63099340668003
24	6443	59.193659872481	0.96058390915019
24	6555	60.154243781631	2.3365594723421
24	6830	62.490803253973	7.4187122009247
24	7590	69.909515454898	2.6506817548476
24	7868	72.560197209746	6.093289092174
24	8468	78.65348630192	1.7039175474934
24	8663	80.357403849413	5.3207708612379
24	9219	85.678174710651	1.9860893763939
24	9436	87.664264087045	0.26393792154666
24	9463	87.928202008592	2.1739654679445
24	9732	90.102167476537	4.0299939307351
24	10161	94.132161407272	0.41723024621709
24	10217	94.549391653489	0.8838795299013
24	10327	95.43327118339	0.10918122340288
24	10339	95.542452406793	0.63644182995341
24	10421	96.178894236746	2.1667402110281
24	10646	98.345634447774	1.5723851933844
24	10793	99.918019641158	0.16104488997608
24	10825	100.079064531134	0.074087367995255
24	10837	100.153151899129	2.3107985285903
24	11110	102.463950427719	0.82076379869982
24	11176	103.284714226419	5.4056909935489
24	11726	108.690405219968	6.7458282512752
24	12377	115.436233471243	1.4635898639171
24	12537	116.89982333516	0.28524594719122
24	12562	117.185069282351	0.40774137255118
24	12611	117.592810654902	0.099602601754547
24	12617	117.692413256657	3.4050028666747
24	12946	121.097416123332	2.5275835588869
24	13241	123.624999682219	0.78669122568551
24	13350	124.411690907905	1.867026943644
24	13558	126.278717851549	1.6828324568338
24	13746	127.961550308383	1.057899637373
24	13894	129.019449945756	0.35574819623259
24	13942	129.375198141989	0.86884050645385
24	14036	130.244038648443	0.73810004832002
24	14106	130.982138696763	0.41872689175675
24	14132	131.40086558852	2.9819496916566
24	14425	134.382815280177	0.91970144987482
24	14545	135.302516730052	4.8323057093163
24	15105	140.134822439368	0.17558276841263
24	15127	140.310405207781	4.1448462662474
24	15612	144.455251474028	3.3025134733525
24	15980	147.75776494738	2.3842614133711
24	16237	150.142026360751	0.15479173118091
24	16253	150.296818091932	0.49599960406474
24	16325	150.792817695997	0.01991116361597
24	16330	150.812728859613	0.82060157201951
24	16395	151.633330431633	1.7476013171831
24	16554	153.380931748816	5.9475076327613
24	17209	159.328439381577	1.0814556135882
24	17313	160.409894995165	0.95588144951685
24	17429	161.365776444682	3.8533761877855
24	17904	165.219152632467	0.3083810958053
24	17925	165.527533728272	1.0930420634288
24	18003	166.620575791701	1.6767419724239
24	18156	168.297317764125	5.6730265233386
24	18653	173.970344287464	0.21839062445117
24	18672	174.188734911915	1.2158375429033
24	18821	175.404572454818	1.4115050049286
24	18967	176.816077459747	1.3138576845705
24	19074	178.129935144318	0.58573069499408
24	19135	178.715665839312	0.57044656933932
24	19173	179.286112408651	0.78924729258347
24	19220	180.075359701234	0.38601155855217
24	19282	180.461371259786	2.5644871596217
24	19543	183.025858419408	2.4207187546032
24	19780	185.446577174011	0.0023583069883165
24	19784	185.448935480999	3.7092265655977
24	20164	189.158162046597	0.51578919829285
24	20224	189.67395124489	0.046079842919547
24	20230	189.72003108781	10.086478224162
24	21310	199.806509311972	1.4336049424804
24	21457	201.240114254452	4.6098315403148
24	21976	205.849945794767	1.2750561009061
24	22118	207.125001895673	0.79466708625006
24	22206	207.919668981923	0.21794943574674
24	22231	208.13761841767	1.58797069269
24	22411	209.72558911036	4.37013796124
24	22897	214.0957270716	0.28900247232308
24	22945	214.384729543923	0.03215573765883
24	22954	214.416885281582	2.7750424084206
24	23194	217.191927690003	2.5784826428703
24	23486	219.770410332873	0.14641469370595
24	23487	219.916825026579	1.4612775658627
24	23650	221.378102592442	3.9243712390439
24	24059	225.302473831486	0.56308846652365
24	24118	225.86556229801	1.9354324240459
24	24319	227.800994722056	0.75646139929851
24	24394	228.557456121355	1.1239036458236
24	24517	229.681359767179	0.76498971859446
24	24582	230.446349485773	2.9600981963779
24	24947	233.406447682151	0.87708194211506
24	25058	234.283529624266	0.78188970943856
24	25182	235.065419333705	4.737503257715
24	25645	239.80292259142	2.6528939089862
24	25910	242.455816500406	0.4515867886669
24	25952	242.907403289073	0.18250088726241
24	25958	243.089904176335	1.8018195596062
24	26095	244.891723735941	0.53420113845106
24	26172	245.425924874392	2.6939045380829
24	26489	248.119829412475	6.1666641589675
24	27136	254.286493571442	0.14911740111207
24	27147	254.435610972554	0.67845964784894
24	27216	255.114070620403	0.60493488185149
24	27281	255.719005502254	3.3016938912774
24	27682	259.020699393531	2.4303929916612
24	27940	261.451092385192	2.2402150728455
24	28218	263.691307458037	3.8387852975518
24	28638	267.530092755589	2.4493989707828
24	28858	269.979491726372	6.9420480889098
24	29504	276.921539815282	5.1567139808297
24	30124	282.078253796112	0.015439941503999
24	30128	282.093693737616	2.9496353460076
24	30517	285.043329083624	1.8719393412558
24	30742	286.91526842488	1.4297270508755
24	30935	288.344995475756	8.2340010437389
24	31690	296.578996519495	5.2500088092516
24	32202	301.829005328747	0.11316195188929
24	32214	301.942167280636	1.2405856820005
24	32344	303.182752962637	3.7525638028276
24	32743	306.935316765465	6.4812426199941
24	33396	313.416559385459	2.2988396763969
24	33670	315.715399061856	0.11952930309154
24	33692	315.834928364948	4.6426936096955
24	34203	320.477621974644	0.172501069495
24	34227	320.650123044139	0.98192529911755
24	34355	321.632048343257	1.1396786378681
24	34513	322.771726981125	2.1566516752795
24	34790	324.928378656405	0.61734312873762
24	34869	325.545721785143	0.060641813587989
24	34880	325.606363598731	0.71371528588573
24	34965	326.320078884617	0.66080661641352
24	35053	326.980885501031	4.6464863231012
24	35548	331.627371824132	2.7313461543271
24	35784	334.358717978459	1.8984065971865
24	35986	336.257124575645	1.8339309913899
24	36220	338.091055567035	2.9468512976934
24	36524	341.037906864728	6.031345396616
24	37191	347.069252261344	1.0807006781682
24	37299	348.149952939512	1.2759113585873
24	37446	349.425864298099	0.087736730437679
24	37452	349.513601028537	3.7850088471806
24	37835	353.298609875718	0.31872373856944
24	37856	353.617333614287	11.802727022865
24	39095	365.420060637152	0.034132655262443
24	39099	365.454193292414	3.6314901786433
24	39519	369.085683471057	1.1963838221832
24	39673	370.28206729324	4.258004988011
24	40088	374.540072281251	0.87063250439203
24	40159	375.410704785643	1.911407829865
24	40371	377.322112615508	1.3317889603443
24	40509	378.653901575852	0.80562399722946
24	40602	379.459525573081	0.28515035926285
24	40629	379.744675932344	4.5971652190333
24	41096	384.341841151377	1.9581604633133
24	41311	386.30000161469	0.15331304452657
24	41329	386.453314659217	0.50489635069854
24	41399	386.958211009916	4.5835050634107
24	41758	391.541716073327	5.5349677914967
24	42267	397.076683864824	0.20140252275269
24	42294	397.278086387577	2.3122570540939
24	42571	399.590343441671	1.745028230347

