file 9099929 1613479544                                         
version 2
run Exponential-capacity-11-20210216-13:45:42-21848
attr configname Exponential-capacity
attr datetime 20210216-13:45:42
attr experiment Exponential-capacity
attr inifile aerocom.ini
attr iterationvars "$0=0.5, $1=10, $2=4, $3=4"
attr iterationvarsf 0.5,10,4,4-
attr measurement "$0=0.5, $1=10, $2=4, $3=4"
attr network Aerocom
attr processid 21848
attr repetition 2
attr replication #2
attr resultdir results
attr runnumber 11
attr seedset 2
param **.t 0.5s
param **.k 10ms
param **.X 4s
param **.m 4s
param **.tDistribution "\"exponential\""
param **.operationMode 0
param **.s "70 byte"
param **.dimPoolMax 10000
param **.dimPoolMin 8000
param **.nDL 10
param **.nA 1
param **.DLMaxCapacity 0
param **.trasmitting false

vector 0 Aerocom.aircraft[0].packetGenerator arrivalTime:vector ETV
attr "" ""
attr source computeArrivalTime
vector 1 Aerocom.aircraft[0].linkSelector responseTime:vector ETV
attr "" ""
attr source computeResponseTime
vector 2 Aerocom.aircraft[0].linkSelector waitingTime:vector ETV
attr "" ""
attr source computeWaitingTime
vector 3 Aerocom.aircraft[0].linkSelector queueLength:vector ETV
attr "" ""
attr source computeQueueLength
vector 4 Aerocom.aircraft[0].dataLink[6] actualCapacity:vector ETV
attr "" ""
attr source computeActualCapacity
vector 5 Aerocom.aircraft[0].linkSelector serviceTime:vector ETV
attr "" ""
attr source computeServiceTime
vector 6 Aerocom.aircraft[0].dataLink[4] tDistribution:vector ETV
attr "" ""
attr source computeTDistribution
vector 7 Aerocom.aircraft[0].dataLink[9] tDistribution:vector ETV
attr "" ""
attr source computeTDistribution
vector 8 Aerocom.aircraft[0].dataLink[2] tDistribution:vector ETV
attr "" ""
attr source computeTDistribution
vector 9 Aerocom.aircraft[0].dataLink[1] tDistribution:vector ETV
attr "" ""
attr source computeTDistribution
vector 10 Aerocom.aircraft[0].dataLink[7] tDistribution:vector ETV
attr "" ""
attr source computeTDistribution
vector 11 Aerocom.aircraft[0].dataLink[5] tDistribution:vector ETV
attr "" ""
attr source computeTDistribution
vector 12 Aerocom.aircraft[0].dataLink[0] tDistribution:vector ETV
attr "" ""
attr source computeTDistribution
vector 13 Aerocom.aircraft[0].dataLink[8] tDistribution:vector ETV
attr "" ""
attr source computeTDistribution
vector 14 Aerocom.aircraft[0].dataLink[3] tDistribution:vector ETV
attr "" ""
attr source computeTDistribution
vector 15 Aerocom.aircraft[0].dataLink[6] tDistribution:vector ETV
attr "" ""
attr source computeTDistribution
vector 16 Aerocom.aircraft[0].dataLink[0] actualCapacity:vector ETV
attr "" ""
attr source computeActualCapacity
vector 17 Aerocom.aircraft[0].dataLink[1] actualCapacity:vector ETV
attr "" ""
attr source computeActualCapacity
vector 18 Aerocom.aircraft[0].dataLink[2] actualCapacity:vector ETV
attr "" ""
attr source computeActualCapacity
vector 19 Aerocom.aircraft[0].dataLink[3] actualCapacity:vector ETV
attr "" ""
attr source computeActualCapacity
vector 20 Aerocom.aircraft[0].dataLink[4] actualCapacity:vector ETV
attr "" ""
attr source computeActualCapacity
vector 21 Aerocom.aircraft[0].dataLink[5] actualCapacity:vector ETV
attr "" ""
attr source computeActualCapacity
vector 22 Aerocom.aircraft[0].dataLink[7] actualCapacity:vector ETV
attr "" ""
attr source computeActualCapacity
vector 23 Aerocom.aircraft[0].dataLink[8] actualCapacity:vector ETV
attr "" ""
attr source computeActualCapacity
vector 24 Aerocom.aircraft[0].dataLink[9] actualCapacity:vector ETV
attr "" ""
attr source computeActualCapacity
0	3614 1343200 5240 196960 10.0000051843 338.006319040219 32768 3.43436e-007 0.111387644188 328.00732916894 6.5217265145529
2	1346814 1179620 5242 196966 10.006626717297 338.01168895018 32768 0 0.142508160738 205.52157181321 5.7745045467354
3	2526434 920841 5242 196966 10.006626717297 338.01168895018 32768 0 17 20641 79015
5	3447275 1473490 5242 196966 10.006626717297 338.01168895018 32768 0.0070035017508754 0.0087423504433621 252.27136513938 1.9479796551389
1	4920765 1343360 5242 196969 10.006626717297 338.015589953345 32768 0.007003501751 0.150438374854 457.79168397094 10.928060493959
0	6264125 261823 196962 234211 338.007334353241 399.998945131452 6266 1.40559e-006 0.112081417393 61.998930705349 1.2430033764839
1	6525948 261821 196975 234208 338.019740479971 399.997154885273 6266 0.007018951168 0.084446807132 78.087763841035 1.4156950521528
2	6787769 228979 196969 234212 338.015589953345 399.998945131452 6266 0 0.076387861703 29.4022444118 0.57667542924086
3	7016748 181016 196969 234212 338.015589953345 399.998945131452 6266 0 9 2924 8036
4	7197764 121220 5242 234213 10.006626717297 400 3923 8068 9973 35993898 331327093450
5	7318984 286776 196969 234212 338.015589953345 399.998945131452 6266 0.007018951168154 0.0087205680827208 48.679656568427 0.37935020240227
6	7605760 33604 5331 234014 10.162350335492 399.557132409877 779 0.00058957674707913 3.6283714383534 391.59541878135 415.01298547421
7	7639364 32504 5356 233996 10.206470056365 399.518541338397 754 0.00059160080491825 3.5116036912708 390.07744971619 404.55139725648
8	7671868 34847 5362 234116 10.220926336418 399.74303304599 807 0.00033187725437789 2.6876159157321 390.28746093496 359.33867690759
9	7706715 35547 5368 233615 10.231070570013 398.833424272917 823 0.00083131507087317 3.1229545787128 389.85701768492 366.53037532545
10	7742262 34706 5531 234142 10.563737682349 399.840620911304 785 0.00037208571592645 3.6611044395179 389.68089320656 404.0064416672
11	7776968 34985 5545 233865 10.587818711263 399.288274335633 792 0.00020412202666193 2.9057882684976 389.82506612159 373.81622392629
12	7811953 34190 5546 234192 10.60670321773 399.962513772338 773 0.00090236662441967 4.4561266191636 393.81193717377 446.9900336573
13	7846143 34178 5756 234141 11.094711622537 399.839199635025 774 0.00024187057767713 3.0758182532393 389.40609766046 382.99501037556
14	7880321 34443 6115 233885 11.765387951768 399.32225448279 780 0.00050532535334727 5.0995094750189 389.22719569684 410.62137295466
15	7914764 33466 6138 234168 11.840123531286 399.895811930559 756 5.4463101410255e-005 3.8535725813892 388.21719007396 420.92893785527
16	7948230 155373 6208 234213 12 400 4846 8025 9939 43910409 399008046757
17	8103603 131586 6208 234213 12 400 4112 8032 9991 37288579 339226092483
18	8235189 106604 6208 234213 12 400 3343 8008 9970 30379569 276806128175
19	8341793 104890 6208 234213 12 400 3313 8137 9924 30399006 279614462350
20	8446683 179006 6208 234213 12 400 5627 8015 9945 50854424 460988264788
21	8625689 155304 6208 234213 12 400 4857 8007 9946 44584425 410375971063
22	8780993 68347 6208 234213 12 400 2156 8027 9826 19485057 176495398747
23	8849340 130288 6208 234213 12 400 4074 8056 9990 37048577 337882448983
24	8979628 120299 6208 234213 12 400 3763 8038 9995 34331762 314277758454

