file 32957424 1608580232                                        
version 2
run Exponential-selection-capacity-exponential-interarrival-time-630-20201221-20:50:09-10618
attr configname Exponential-selection-capacity-exponential-interarrival-time
attr datetime 20201221-20:50:09
attr experiment Exponential-selection-capacity-exponential-interarrival-time
attr inifile ../simulations/aerocom.ini
attr iterationvars "$0=0.5s, $1=0.5s, $2=5, $3=1, $4=4s"
attr iterationvarsf 0.5s,0.5s,5,1,4s-
attr measurement "$0=0.5s, $1=0.5s, $2=5, $3=1, $4=4s"
attr network Aerocom
attr processid 10618
attr repetition 0
attr replication #0
attr resultdir results
attr runnumber 630
attr seedset 0
param **.t 0.5s
param **.k 0.5s
param **.dataLink[*].s "1500 byte"
param **.dataLink[*].X 5
param **.nDL 1
param **.dataLink[*].dimPoolMax 400
param **.dataLink[*].dimPoolMin 100
param **.setCapacityDistribution "\"exponential\""
param **.aircraft[*].distribution "\"exponential\""
param **.aircraft[*].m 4s
param **.aircraft[*].linkSelector.DLMaxCapacity 0
param **.aircraft[*].linkSelector.trasmitting false
param **.aircraft[*].linkSelector.operationMode 0

vector 0 Aerocom.aircraft[0].dataLink[0] queueLength:vector ETV
attr "" ""
attr source computeQueueLength
vector 1 Aerocom.aircraft[0].dataLink[0] waitingTime:vector ETV
attr "" ""
attr source computeWaitingTime
vector 2 Aerocom.aircraft[0].dataLink[0] responseTime:vector ETV
attr "" ""
attr source computeResponseTime
1	1397 1377387 127980 336083 10000.739748612276 26315.411948426285 32768 -3e-12 49.264544701648 290989.04505032 4789653.9829279
2	1378784 1395063 127980 336083 10000.739748612276 26315.411948426285 32768 2.999999999998 58.606384842851 492013.04505032 9750694.2518523
0	2773847 998944 127977 336140 10000.370125876242 26319.699837177406 32768 0 98 584404 20041698
0	3772791 1000281 336145 543885 26319.964179132675 42626.38119005554 32768 0 128 661057 25155431
1	4773072 1378354 336085 544411 26315.636260781719 42667.104323490933 32768 -6e-12 67.289013912948 328119.31096224 6105988.4274164
2	6151426 1396930 336085 544411 26315.636260781719 42667.104323490933 32768 2.999999999996 74.237591474712 530311.31096224 11559092.936607
1	7548356 1378151 544416 751847 42667.655980668525 58840.087715322884 32768 -4e-12 54.050221832972 303133.97644615 5243244.6235086
2	8926507 1396948 544416 751847 42667.655980668525 58840.087715322884 32768 2.999999999996 64.374608640497 504818.97644615 10395773.370332
0	10323455 999341 543893 751952 42627.305892038358 58847.666971434518 32768 0 111 617831 22811443
1	11322796 1377894 751853 960416 58840.742642990078 75294.55453695116 32768 -1.2e-11 61.683406244497 330684.50649234 6627912.1215298
2	12700690 1396933 751853 960416 58840.742642990078 75294.55453695116 32768 2.999999999994 71.803476519144 530501.50649234 12044063.631064
0	14097623 999597 751958 960510 58848.023085822318 75301.826618963281 32768 0 128 663021 27423099
1	15097220 1404677 960423 1169024 75294.731568213971 91762.469453649209 32768 -8e-12 43.525561924444 278745.23389631 4262286.3697912
2	16501897 1425158 960423 1169024 75294.731568213971 91762.469453649209 32768 2.999999999992 55.525561924444 480282.23389631 9103163.5807294
0	17927055 1025334 960517 1169134 75302.423510937212 91769.472951827426 32768 0 88 554357 17403253
1	18952389 1426206 1169033 1377663 91763.315734925218 108283.062299869422 32768 -8e-12 44.225171866057 288356.47894549 4373366.8733682
2	20378595 1445950 1169033 1377663 91763.315734925218 108283.062299869422 32768 2.999999999992 53.225171866057 488191.47894549 9279592.2153312
0	21824545 1048498 1169137 1377715 91769.885324265298 108287.048121642427 32768 0 80 569350 17333090
1	22873043 1445243 1377665 1586126 108283.063622451648 124653.876545887196 32768 -8e-12 52.79523105164 312479.64540595 5942428.4203439
2	24318286 1465055 1377665 1586126 108283.063622451648 124653.876545887196 32768 2.999999999992 62.924865740475 512340.64540595 11145670.915576
0	25783341 1064963 1377725 1586168 108287.539274660405 124656.668882387934 32768 0 106 625033 24297967
1	26848304 1444490 1586128 1795260 124653.888709261969 141259.645443104615 32768 -2.4e-11 44.326387966362 279191.03673616 4244702.7684449
2	28292794 1465079 1586128 1795260 124653.888709261969 141259.645443104615 32768 2.999999999978 52.41855893361 479485.03673615 9046506.9422524
0	29757873 1064737 1586172 1795331 124657.125134461921 141264.816215311099 32768 0 86 552737 17147135
0	30822610 570609 1795334 1906737 141265.039999955219 149999.52123063144 17533 0 91 386064 15495300
1	31393219 777458 1795262 1906733 141259.749041039428 149999.467497631925 17525 -2.4e-11 39.598304024279 189583.79776015 3584967.8094311
2	32170677 786746 1795262 1906733 141259.749041039428 149999.467497631925 17525 2.999999999976 52.318839311795 296941.79776015 6660518.2161692

