file 4303672 1613383346                                         
version 2
run Exponential-capacity-4-20210215-11:02:25-7284
attr configname Exponential-capacity
attr datetime 20210215-11:02:25
attr experiment Exponential-capacity
attr inifile aerocom.ini
attr iterationvars "$0=20, $1=2"
attr iterationvarsf 20,2-
attr measurement "$0=20, $1=2"
attr network Aerocom
attr processid 7284
attr repetition 0
attr replication #0
attr resultdir results
attr runnumber 4
attr seedset 0
param **.t 1s
param **.k 20ms
param **.X 0.4s
param **.m 2s
param **.tDistribution "\"exponential\""
param **.operationMode 0
param **.s "70 byte"
param **.dimPoolMax 10000
param **.dimPoolMin 8000
param **.nDL 1
param **.nA 1
param **.DLMaxCapacity 0
param **.trasmitting false

vector 0 Aerocom.aircraft[0].dataLink[0] actualCapacity:vector ETV
attr "" ""
attr source computeActualCapacity
vector 1 Aerocom.aircraft[0].packetGenerator arrivalTime:vector ETV
attr "" ""
attr source computeArrivalTime
vector 2 Aerocom.aircraft[0].dataLink[0] tDistribution:vector ETV
attr "" ""
attr source computeTDistribution
vector 3 Aerocom.aircraft[0].linkSelector waitingTime:vector ETV
attr "" ""
attr source computeWaitingTime
vector 4 Aerocom.aircraft[0].linkSelector queueLength:vector ETV
attr "" ""
attr source computeQueueLength
vector 5 Aerocom.aircraft[0].linkSelector serviceTime:vector ETV
attr "" ""
attr source computeServiceTime
vector 6 Aerocom.aircraft[0].linkSelector responseTime:vector ETV
attr "" ""
attr source computeResponseTime
0	1508 604555 2589 108702 10 400 19821 8011 9976 177802629 1599242050379
1	606063 796139 2590 108700 10.012383330987 399.994805035006 19625 4.00603e-007 0.214446499592 390.00103189072 15.456759134965
2	1402202 16915 2616 108090 10.19835258653 398.023229865342 400 0.00012359181449871 5.0916301550693 389.91689248652 726.70497007989
3	1419117 670895 2637 108701 10.4 399.994805035006 19625 0 0.424777688335 932.73296364891 248.44785200716
4	2090012 544463 2637 108701 10.4 399.994805035006 19625 0 35 47449 696653
5	2634475 873272 2637 108701 10.4 399.994805035006 19625 0.0070168404170008 0.0087379852702534 153.55239929356 1.2047013355237
6	3507747 795923 2638 108695 10.407955449483 399.987029655793 19624 0.007016840417 0.433188117267 1086.2776178661 264.28598750464

