version 2
run Exponential-capacity-20-20210216-13:45:52-10588
attr configname Exponential-capacity
attr datetime 20210216-13:45:52
attr experiment Exponential-capacity
attr inifile aerocom.ini
attr iterationvars "$0=0.5, $1=50, $2=4, $3=0.5"
attr iterationvarsf 0.5,50,4,0.5-
attr measurement "$0=0.5, $1=50, $2=4, $3=0.5"
attr network Aerocom
attr processid 10588
attr repetition 2
attr replication #2
attr resultdir results
attr runnumber 20
attr seedset 2
param **.t 0.5s
param **.k 50ms
param **.X 4s
param **.m 0.5s
param **.tDistribution "\"exponential\""
param **.operationMode 0
param **.s "70 byte"
param **.dimPoolMax 10000
param **.dimPoolMin 8000
param **.nDL 10
param **.nA 1
param **.DLMaxCapacity 0
param **.trasmitting false

vector 0 Aerocom.aircraft[0].dataLink[0] actualCapacity:vector ETV
attr "" ""
attr source computeActualCapacity
vector 1 Aerocom.aircraft[0].dataLink[1] actualCapacity:vector ETV
attr "" ""
attr source computeActualCapacity
vector 2 Aerocom.aircraft[0].dataLink[2] actualCapacity:vector ETV
attr "" ""
attr source computeActualCapacity
vector 3 Aerocom.aircraft[0].dataLink[3] actualCapacity:vector ETV
attr "" ""
attr source computeActualCapacity
vector 4 Aerocom.aircraft[0].dataLink[4] actualCapacity:vector ETV
attr "" ""
attr source computeActualCapacity
vector 5 Aerocom.aircraft[0].dataLink[5] actualCapacity:vector ETV
attr "" ""
attr source computeActualCapacity
vector 6 Aerocom.aircraft[0].dataLink[6] actualCapacity:vector ETV
attr "" ""
attr source computeActualCapacity
vector 7 Aerocom.aircraft[0].dataLink[7] actualCapacity:vector ETV
attr "" ""
attr source computeActualCapacity
vector 8 Aerocom.aircraft[0].dataLink[8] actualCapacity:vector ETV
attr "" ""
attr source computeActualCapacity
vector 9 Aerocom.aircraft[0].dataLink[9] actualCapacity:vector ETV
attr "" ""
attr source computeActualCapacity
vector 10 Aerocom.aircraft[0].packetGenerator arrivalTime:vector ETV
attr "" ""
attr source computeArrivalTime
vector 11 Aerocom.aircraft[0].linkSelector waitingTime:vector ETV
attr "" ""
attr source computeWaitingTime
vector 12 Aerocom.aircraft[0].linkSelector queueLength:vector ETV
attr "" ""
attr source computeQueueLength
vector 13 Aerocom.aircraft[0].linkSelector serviceTime:vector ETV
attr "" ""
attr source computeServiceTime
vector 14 Aerocom.aircraft[0].linkSelector responseTime:vector ETV
attr "" ""
attr source computeResponseTime
vector 15 Aerocom.aircraft[0].dataLink[4] tDistribution:vector ETV
attr "" ""
attr source computeTDistribution
vector 16 Aerocom.aircraft[0].dataLink[9] tDistribution:vector ETV
attr "" ""
attr source computeTDistribution
vector 17 Aerocom.aircraft[0].dataLink[2] tDistribution:vector ETV
attr "" ""
attr source computeTDistribution
vector 18 Aerocom.aircraft[0].dataLink[1] tDistribution:vector ETV
attr "" ""
attr source computeTDistribution
vector 19 Aerocom.aircraft[0].dataLink[7] tDistribution:vector ETV
attr "" ""
attr source computeTDistribution
vector 20 Aerocom.aircraft[0].dataLink[5] tDistribution:vector ETV
attr "" ""
attr source computeTDistribution
vector 21 Aerocom.aircraft[0].dataLink[0] tDistribution:vector ETV
attr "" ""
attr source computeTDistribution
vector 22 Aerocom.aircraft[0].dataLink[8] tDistribution:vector ETV
attr "" ""
attr source computeTDistribution
vector 23 Aerocom.aircraft[0].dataLink[3] tDistribution:vector ETV
attr "" ""
attr source computeTDistribution
vector 24 Aerocom.aircraft[0].dataLink[6] tDistribution:vector ETV
attr "" ""
attr source computeTDistribution
0	1221	10	8605
0	1293	10.5	8412
0	1355	11	8044
0	1410	11.5	8058
0	1470	12	9458
0	1537	12.5	9585
0	1582	13	8721
0	1627	13.5	9982
0	1665	14	9786
0	1666	14	9786
0	1695	14.5	9295
0	1696	14.5	9295
0	1713	15	8803
0	1947	15.5	8738
0	1974	16	8721
0	2012	16.5	8595
0	2036	17	8470
0	2197	17.5	8540
0	2249	18	8348
0	2322	18.5	8137
0	2422	19	9049
0	2458	19.5	9157
0	2550	20	8948
0	2604	20.5	8739
0	2665	21	8530
0	2700	21.5	8321
0	2817	22	9046
0	2845	22.5	9398
0	2937	23	9857
0	2975	23.5	9482
0	2976	23.5	9482
0	3011	24	9347
0	3050	24.5	9213
0	3084	25	9078
0	3126	25.5	9247
0	3153	26	9533
0	3193	26.5	9777
0	3194	26.5	9777
0	3230	27	9185
0	3458	27.5	8492
0	3582	28	9563
0	3660	28.5	9774
0	3713	29	9366
0	3782	29.5	8957
0	3841	30	8549
0	3893	30.5	8897
0	3981	31	8843
0	4006	31.5	8951
0	4093	32	9059
0	4128	32.5	9166
0	4157	33	9274
0	4178	33.5	9065
0	4215	34	9230
0	4250	34.5	9353
0	4445	35	9187
0	4466	35.5	9356
0	4502	36	9525
0	4537	36.5	9695
0	4673	37	9062
0	4755	37.5	8323
0	4818	38	9809
0	4822	38.103457811556	9557
0	4829	38.148788260897	9445
0	4834	38.156727022566	9422
0	4839	38.240420076524	9179
0	4846	38.398655198707	8720
0	4851	38.407596887421	8694
0	4858	38.428306609865	9066
0	4866	38.481024088207	9790
0	4871	38.488174241425	9775
0	4874	38.495335366745	9760
0	4878	38.5	9751
0	4908	39	9465
0	4909	39	9465
0	4945	39.5	8859
0	5063	40	8275
0	5130	40.5	8322
0	5158	41	8527
0	5183	41.5	9141
0	5223	42	9756
0	5269	42.5	9086
0	5447	43	8882
0	5497	43.5	9126
0	5539	44	9370
0	5577	44.5	9614
0	5618	45	9401
0	5774	45.5	9093
0	5838	46	8560
0	5878	46.5	8199
0	5909	47	9623
0	5941	47.5	8875
0	5978	48	9634
0	5979	48.007678806494	9678
0	5980	48.014911705853	9718
0	5984	48.022114834069	9712
0	5987	48.029322412323	9675
0	5990	48.036557554442	9638
0	5996	48.04382047206	9601
0	5999	48.051111379257	9564
0	6004	48.058430492599	9526
0	6008	48.065778802488	9488
0	6011	48.073156542792	9451
0	6014	48.08056316643	9413
0	6017	48.087999690386	9374
0	6020	48.095467153582	9336
0	6024	48.102965011337	9301
0	6027	48.110491083802	9293
0	6031	48.118023635185	9284
0	6034	48.125563488696	9275
0	6037	48.133110658507	9266
0	6040	48.140665158831	9257
0	6046	48.148227003921	9249
0	6049	48.155795389692	9240
0	6053	48.163371147268	9231
0	6057	48.170954291023	9222
0	6060	48.178544835373	9213
0	6063	48.186142794778	9204
0	6066	48.193748183739	9196
0	6069	48.201360188959	9187
0	6072	48.208979651243	9178
0	6075	48.216606585216	9169
0	6078	48.224241005545	9160
0	6083	48.231882926942	9151
0	6088	48.239532364162	9142
0	6091	48.247189332003	9133
0	6099	48.261972532075	9116
0	6108	48.5	8839
0	6182	49	8296
0	6203	49.5	8277
0	6245	50	8274
0	6280	50.5	8844
0	6438	51	8424
0	6494	51.5	9216
0	6562	52	9473
0	6582	52.5	9730
0	6583	52.5	9730
0	6618	53	9072
0	6648	53.5	8326
0	6754	54	9295
0	6790	54.5	8929
0	6828	55	8659
0	6870	55.5	8389
0	6907	56	8502
0	7080	56.5	9237
0	7149	57	9832
0	7155	57.007420756917	9823
0	7160	57.0173543329	9810
0	7166	57.079461906626	9732
0	7173	57.161188973958	9630
0	7178	57.246688111676	9522
0	7184	57.304374536783	9449
0	7193	57.45857419709	9256
0	7200	57.5	9203
0	7245	58	8712
0	7275	58.5	8824
0	7291	59	8935
0	7419	59.5	9046
0	7468	60	9158
0	7498	60.5	8155
0	7535	61	8011
0	7670	61.5	8967
0	7711	62	9330
0	7813	62.5	9376
0	7883	63	9653
0	7924	63.5	9930
0	7972	64	9428
0	7973	64	9428
0	8002	64.5	8189
0	8151	65	9178
0	8201	65.5	9940
0	8203	65.505991451192	9939
0	8204	65.507374631268	9938
0	8205	65.513034413261	9937
0	8210	65.514418302027	9937
0	8213	65.520078792852	9935
0	8216	65.521462681618	9935
0	8219	65.527124590537	9933
0	8222	65.528508479303	9933
0	8225	65.534171806887	9931
0	8228	65.535555695653	9931
0	8231	65.541220442473	9930
0	8234	65.542604331239	9929
0	8239	65.548269787891	9928
0	8242	65.549654386632	9927
0	8245	65.555320553403	9926
0	8248	65.556705862405	9926
0	8251	65.562372739581	9924
0	8254	65.563758048583	9924
0	8264	65.590063716506	9917
0	8269	65.641351785418	9904
0	8276	65.699556148274	9889
0	8281	65.731359671415	9880
0	8286	65.740311084893	9878
0	8292	65.912278843533	9834
0	8299	65.929577395515	9829
0	8302	65.936699177995	9827
0	8313	66	9811
0	8332	66.5	9681
0	8333	66.5	9681
0	8378	67	9752
0	8379	67	9752
0	8418	67.5	9398
0	8559	68	8316
0	8599	68.5	8784
0	8623	69	8989
0	8686	69.5	9329
0	8717	70	9645
0	8748	70.5	9814
0	8751	70.50723065799	9794
0	8752	70.51437789099	9773
0	8756	70.521540481801	9753
0	8761	70.528717760587	9733
0	8764	70.535909787711	9712
0	8767	70.543117365965	9692
0	8771	70.550339817471	9671
0	8774	70.5575779521	9651
0	8777	70.56483108649	9630
0	8780	70.572100037684	9609
0	8783	70.579384874816	9589
0	8789	70.586684906102	9568
0	8792	70.594000959614	9547
0	8795	70.601333105838	9526
0	8798	70.608681415727	9505
0	8802	70.616045960703	9484
0	8805	70.623426812664	9463
0	8810	70.630824043986	9442
0	8813	70.638237727528	9421
0	8816	70.645667936635	9400
0	8821	70.653114745146	9379
0	8825	70.660578227394	9358
0	8833	70.695622375751	9258
0	8839	70.711721391327	9212
0	8845	70.759485713522	9077
0	8850	70.845471606773	8832
0	8857	70.92059517418	8619
0	8862	70.936236140142	8574
0	8867	70.966109064246	8489
0	8872	70.981188121856	8447
0	8877	71	8393
0	8942	71.5	8780
0	8962	72	9436
0	9006	72.5	9450
0	9033	73	9078
0	9034	73	9078
0	9064	73.5	8530
0	9104	74	9155
0	9268	74.5	9080
0	9305	75	8983
0	9343	75.5	8887
0	9370	76	8790
0	9514	76.5	8694
0	9581	77	8597
0	9627	77.5	8501
0	9668	78	8404
0	9700	78.5	8412
0	9740	79	8462
0	9906	79.5	8157
0	9961	80	8202
0	9996	80.5	8246
0	10029	81	9307
0	10063	81.5	8592
0	10102	82	8823
0	10142	82.5	8924
0	10346	83	8168
0	10373	83.5	8099
0	10406	84	8844
0	10441	84.5	9291
0	10589	85	8964
0	10633	85.5	8979
0	10695	86	9284
0	10751	86.5	9434
0	10799	87	9584
0	10826	87.5	9353
0	10964	88	9036
0	11018	88.5	9069
0	11054	89	9365
0	11094	89.5	9642
0	11124	90	9773
0	11161	90.5	8882
0	11162	90.5	8882
0	11197	91	8482
0	11425	91.5	8529
0	11451	92	8577
0	11510	92.5	8768
0	11572	93	9758
0	11610	93.5	9220
0	11690	94	9068
0	11750	94.5	9087
0	11808	95	9106
0	11842	95.5	9293
0	11873	96	9195
0	11910	96.5	9097
0	11945	97	8999
0	11983	97.5	8616
0	12011	98	9422
0	12052	98.5	8857
0	12086	99	9398
0	12303	99.5	9292
0	12418	100	9801
0	12422	100.063903324004	9616
0	12425	100.071182858114	9579
0	12436	100.136987758883	9249
0	12441	100.145210212736	9208
0	12446	100.162668701004	9120
0	12452	100.180784778182	9104
0	12457	100.22952462837	9062
0	12463	100.295520868482	9005
0	12467	100.303294327671	8998
0	12472	100.311073834228	8992
0	12479	100.319539417128	8984
0	12486	100.469693164854	8855
0	12491	100.494027617536	8834
0	12493	100.5	8829
0	12577	101	8398
0	12644	101.5	8287
0	12700	102	8241
0	12767	102.5	8615
0	12808	103	9684
0	12837	103.5	9330
0	12946	104	8976
0	12979	104.5	8622
0	13084	105	9584
0	13118	105.5	9341
0	13234	106	9001
0	13249	106.5	9762
0	13285	107	9105
0	13322	107.5	8625
0	13359	108	9102
0	13528	108.5	8705
0	13555	109	8633
0	13581	109.5	8474
0	13625	110	8314
0	13653	110.5	8155
0	13789	111	8144
0	13858	111.5	8616
0	13910	112	9141
0	13925	112.5	8773
0	13954	113	8499
0	14026	113.5	9543
0	14033	113.624858633059	9458
0	14038	113.665956458392	9433
0	14045	113.760230881272	9376
0	14048	113.767696751579	9371
0	14056	113.794590829913	9355
0	14062	113.813992915776	9343
0	14068	113.876396729848	9305
0	14071	113.883919567032	9301
0	14081	113.991062916429	9235
0	14085	114	9230
0	14176	114.5	8926
0	14200	115	8798
0	14231	115.5	8213
0	14268	116	9289
0	14303	116.5	9337
0	14460	117	9071
0	14492	117.5	9545
0	14512	118	9502
0	14552	118.5	9439
0	14578	119	9373
0	14719	119.5	9428
0	14814	120	8985
0	14880	120.5	9228
0	14911	121	9467
0	14950	121.5	9376
0	15052	122	9106
0	15122	122.5	8490
0	15172	123	8462
0	15211	123.5	8434
0	15254	124	8410
0	15422	124.5	8352
0	15451	125	8916
0	15521	125.5	9297
0	15555	126	9011
0	15578	126.5	8387
0	15612	127	8174
0	15654	127.5	8902
0	15803	128	8965
0	15849	128.5	8995
0	15894	129	9569
0	15927	129.5	8123
0	15965	130	8759
0	16153	130.5	9256
0	16209	131	9405
0	16261	131.5	9553
0	16288	132	9700
0	16323	132.5	9910
0	16324	132.507522028799	9898
0	16325	132.514594164584	9887
0	16331	132.52167416863	9877
0	16334	132.528761340848	9866
0	16337	132.535856414839	9855
0	16340	132.542959408243	9844
0	16343	132.550070338759	9833
0	16347	132.557189224145	9822
0	16350	132.564316082219	9811
0	16353	132.571450930858	9800
0	16356	132.578593788001	9789
0	16359	132.585744671646	9778
0	16362	132.592903599852	9767
0	16365	132.60007059074	9756
0	16368	132.607245662491	9745
0	16371	132.614428833348	9734
0	16374	132.621620121616	9723
0	16382	132.660601750078	9664
0	16387	132.697363459117	9607
0	16393	132.738542671417	9544
0	16398	132.753690768232	9521
0	16403	132.787176158604	9469
0	16408	132.808972896577	9436
0	16413	132.819237022931	9420
0	16418	132.909081149475	9283
0	16424	132.961844374948	9202
0	16429	133	9143
0	16476	133.5	8376
0	16560	134	8990
0	16586	134.5	9129
0	16620	135	9269
0	16661	135.5	9408
0	16689	136	9547
0	16870	136.5	9432
0	16918	137	9060
0	16950	137.5	8952
0	16985	138	9010
0	17041	138.5	8164
0	17232	139	8206
0	17298	139.5	8248
0	17375	140	8289
0	17410	140.5	8331
0	17442	141	8373
0	17554	141.5	8273
0	17606	142	8143
0	17692	142.5	8452
0	17728	143	8705
0	17750	143.5	9707
0	17784	144	9035
0	17918	144.5	9712
0	17999	145	9462
0	18023	145.5	9591
0	18043	146	8818
0	18044	146	8818
0	18075	146.5	8198
0	18213	147	9360
0	18264	147.5	9202
0	18322	148	9044
0	18357	148.5	8783
0	18392	149	8559
0	18418	149.5	9436
0	18543	150	8593
0	18610	150.5	8618
0	18662	151	9709
0	18690	151.5	9487
0	18691	151.5	9487
0	18726	152	9743
0	18749	152.5	9527
0	18750	152.507342914088	9517
0	18751	152.514698173098	9506
0	18754	152.522061943348	9496
0	18757	152.529433468201	9486
0	18760	152.536812764005	9476
0	18763	152.544199847162	9465
0	18766	152.551595515413	9455
0	18769	152.55899900563	9445
0	18774	152.566410334375	9435
0	18777	152.573829518265	9424
0	18780	152.581257362068	9414
0	18783	152.588693096081	9404
0	18786	152.596136737085	9393
0	18789	152.603589095224	9383
0	18792	152.611049395768	9373
0	18795	152.618517655663	9362
0	18798	152.625994690485	9352
0	18801	152.633479720425	9341
0	18804	152.640973564767	9331
0	18807	152.648475440236	9321
0	18810	152.655985364064	9310
0	18813	152.663504161056	9300
0	18817	152.671031042776	9289
0	18820	152.678566837802	9279
0	18823	152.686110754172	9268
0	18826	152.693663624263	9258
0	18830	152.701224652563	9247
0	18835	152.708794675273	9237
0	18838	152.716372893309	9226
0	18841	152.723960146723	9216
0	18845	152.731555632834	9205
0	18850	152.739160195572	9195
0	18853	152.746773028633	9184
0	18856	152.754394979853	9174
0	18862	152.762025239282	9163
0	18865	152.769664658686	9152
0	18868	152.777313260085	9142
0	18877	152.839914460444	9055
0	18880	152.84764499606	9044
0	18888	152.86545823147	9020
0	18894	152.886766051585	8990
0	18897	152.894552480951	8979
0	18906	152.907827179402	8891
0	18913	152.940242250266	8619
0	18918	152.970031285179	8619
0	18924	153	8618
0	18991	153.5	8489
0	19032	154	9202
0	19161	154.5	9251
0	19198	155	8363
0	19305	155.5	8670
0	19362	156	8976
0	19450	156.5	9685
0	19471	157	9457
0	19472	157	9457
0	19502	157.5	9294
0	19532	158	9272
0	19556	158.5	9250
0	19586	159	9227
0	19622	159.5	9723
0	19650	160	9023
0	19867	160.5	9614
0	19901	161	9299
0	19990	161.5	9785
0	20065	162	9326
0	20143	162.5	9044
0	20189	163	9099
0	20264	163.5	8327
0	20316	164	8187
0	20346	164.5	8143
0	20460	165	8098
0	20489	165.5	8132
0	20515	166	8546
0	20535	166.5	8923
0	20656	167	9391
0	20681	167.5	9285
0	20705	168	8938
0	20733	168.5	8650
0	20769	169	9450
0	20932	169.5	8969
0	20991	170	8731
0	21035	170.5	8962
0	21062	171	9288
0	21083	171.5	9280
0	21167	172	9332
0	21205	172.5	9384
0	21247	173	8942
0	21277	173.5	8354
0	21396	174	9185
0	21434	174.5	9038
0	21469	175	9340
0	21470	175.008312551953	9335
0	21471	175.015811212906	9330
0	21474	175.023313892434	9326
0	21477	175.030819789925	9321
0	21480	175.038329713753	9317
0	21485	175.045842861762	9312
0	21488	175.053360043893	9307
0	21491	175.06088126448	9303
0	21494	175.068405718957	9298
0	21497	175.07593421971	9294
0	21500	175.083465960618	9289
0	21503	175.091001755644	9284
0	21506	175.098541609155	9280
0	21509	175.106084712603	9275
0	21512	175.113631882414	9270
0	21516	175.121183122975	9266
0	21521	175.128737623299	9261
0	21524	175.136296202286	9257
0	21529	175.143858047376	9252
0	21532	175.151423979066	9247
0	21535	175.158994001776	9243
0	21538	175.166567300489	9238
0	21544	175.174144698194	9233
0	21547	175.181726199331	9229
0	21550	175.189310986415	9224
0	21553	175.196899884941	9219
0	21556	175.204492899368	9215
0	21563	175.212089209732	9210
0	21567	175.219689644043	9205
0	21576	175.320874113008	9143
0	21582	175.404681394295	9092
0	21587	175.5	9033
0	21623	176	9919
0	21652	176.5	9495
0	21653	176.5	9495
0	21691	177	9167
0	21816	177.5	8882
0	21843	178	9173
0	21872	178.5	9410
0	21968	179	9384
0	21994	179.5	9503
0	22017	180	9480
0	22018	180.007353713625	9463
0	22020	180.014750944947	9445
0	22023	180.022162273692	9427
0	22026	180.029587753696	9409
0	22029	180.037027439104	9392
0	22032	180.044480590722	9374
0	22035	180.051948053918	9356
0	22038	180.05942988376	9338
0	22041	180.066926135634	9320
0	22046	180.074436865248	9302
0	22049	180.081962128632	9284
0	22052	180.089501982143	9266
0	22060	180.156625899562	9106
0	22065	180.175988068407	9060
0	22070	180.236003685019	8916
0	22076	180.298702992509	8766
0	22080	180.306688390638	8747
0	22087	180.314691134436	8728
0	22090	180.322711299422	8709
0	22097	180.387919917516	8553
0	22103	180.40938768401	8502
0	22108	180.44651030593	8413
0	22112	180.5	8285
0	22163	181	8503
0	22193	181.5	8760
0	22227	182	9029
0	22330	182.5	8899
0	22354	183	8239
0	22366	183.5	8866
0	22436	184	9204
0	22474	184.5	9158
0	22509	185	9014
0	22541	185.5	8870
0	22724	186	8726
0	22745	186.5	8792
0	22783	187	8971
0	22906	187.5	8574
0	22944	188	8168
0	22980	188.5	8920
0	23081	189	9672
0	23135	189.5	8883
0	23159	190	8900
0	23190	190.5	8173
0	23318	191	8566
0	23369	191.5	8958
0	23402	192	9351
0	23558	192.5	9176
0	23589	193	8871
0	23633	193.5	8673
0	23668	194	8888
0	23805	194.5	9102
0	23836	195	9317
0	23863	195.5	9262
0	23963	196	8960
0	24006	196.5	8659
0	24033	197	8775
0	24146	197.5	9324
0	24201	198	9612
0	24236	198.5	8516
0	24284	199	9494
0	24285	199.007402707276	9483
0	24287	199.014784337562	9471
0	24290	199.022175320563	9460
0	24295	199.02957489773	9449
0	24300	199.036983089073	9437
0	24303	199.044400700602	9426
0	24306	199.051826968372	9415
0	24309	199.05926191261	9403
0	24312	199.066706345238	9392
0	24315	199.074159496856	9380
0	24319	199.081622183423	9369
0	24322	199.089093631817	9358
0	24325	199.096573862636	9346
0	24328	199.10406369786	9335
0	24331	199.111562358813	9323
0	24334	199.119070671588	9312
0	24337	199.126587853719	9300
0	24342	199.134114735439	9289
0	24345	199.141650530465	9277
0	24348	199.149196073205	9265
0	24351	199.156751388909	9254
0	24356	199.164315685429	9242
0	24359	199.171889803585	9231
0	24362	199.17947294734	9219
0	24365	199.187065961767	9207
0	24371	199.194668872596	9196
0	24374	199.202280877816	9184
0	24379	199.209902829036	9172
0	24382	199.217534752281	9161
0	24385	199.225175839499	9149
0	24394	199.296425981078	9040
0	24399	199.30859146613	9021
0	24405	199.397403487734	8885
0	24410	199.422374392258	8847
0	24415	199.451061849724	8803
0	24422	199.5	8728
0	24452	200	9096
0	24477	200.5	9242
0	24571	201	9065
0	24608	201.5	9171
0	24643	202	9613
0	24675	202.5	9716
0	24820	203	9819
0	24856	203.5	9375
0	24899	204	9512
0	24900	204.007074279939	9482
0	24902	204.014456688714	9450
0	24906	204.021864096121	9419
0	24909	204.029295882935	9387
0	24912	204.036753004486	9355
0	24917	204.044235634096	9323
0	24920	204.051743946871	9291
0	24923	204.059278119726	9259
0	24926	204.066838331412	9227
0	24929	204.074424762538	9195
0	24935	204.082037595599	9162
0	24939	204.089677848819	9130
0	24942	204.097344880582	9097
0	24946	204.105039725036	9064
0	24949	204.112762584701	9031
0	24952	204.120513664316	8998
0	24956	204.128293170873	8970
0	24959	204.136096961285	8961
0	24964	204.143908589451	8952
0	24968	204.151728071131	8944
0	24972	204.159554546981	8935
0	24976	204.167388906242	8926
0	24982	204.175231164812	8918
0	24985	204.183080458376	8909
0	24988	204.190937681409	8900
0	24991	204.198802849948	8891
0	24994	204.20667598008	8883
0	24997	204.214556200726	8874
0	25005	204.241451289216	8844
0	25010	204.277347840666	8804
0	25017	204.32005455137	8882
0	25024	204.37446385191	8993
0	25030	204.429746472189	9106
0	25036	204.486481731429	9222
0	25042	204.5	9249
0	25071	205	9268
0	25177	205.5	8247
0	25252	206	8437
0	25332	206.5	8627
0	25360	207	8817
0	25401	207.5	9007
0	25507	208	9197
0	25546	208.5	9387
0	25591	209	9199
0	25636	209.5	9190
0	25667	210	8780
0	25871	210.5	9564
0	25911	211	9444
0	26026	211.5	9169
0	26061	212	8221
0	26088	212.5	8561
0	26184	213	9527
0	26263	213.5	9916
0	26267	213.556130862614	9890
0	26271	213.563208719035	9887
0	26283	213.747943926747	8853
0	26288	213.765869263019	8726
0	26294	213.80043699671	8532
0	26299	213.83761625922	8501
0	26305	213.865675395893	8478
0	26314	213.931514466497	8424
0	26320	213.987794399286	8378
0	26326	214	8368
0	26365	214.5	8291
0	26481	215	8297
0	26519	215.5	8485
0	26539	216	8610
0	26628	216.5	8525
0	26651	217	8965
0	26680	217.5	8786
0	26728	218	9793
0	26765	218.5	9539
0	26766	218.5	9539
0	26804	219	9286
0	26839	219.5	8972
0	27044	220	8796
0	27079	220.5	8860
0	27108	221	8725
0	27225	221.5	9559
0	27313	222	8744
0	27359	222.5	9843
0	27367	222.541010935174	8753
0	27375	222.620890104254	8728
0	27380	222.634702499092	8724
0	27383	222.642726341366	8721
0	27388	222.65075294382	8719
0	27396	222.688575001873	8707
0	27402	222.738807061107	8691
0	27412	222.869656134076	8649
0	27418	222.939610185043	8627
0	27425	222.974703684932	8616
0	27428	222.982828104616	8613
0	27436	223	8608
0	27502	223.5	8668
0	27534	224	8893
0	27562	224.5	9119
0	27675	225	9127
0	27708	225.5	8144
0	27812	226	8081
0	27883	226.5	8018
0	27976	227	8164
0	28004	227.5	8372
0	28068	228	9307
0	28140	228.5	8188
0	28173	229	8646
0	28222	229.5	9077
0	28257	230	9386
0	28283	230.5	8997
0	28313	231	8609
0	28355	231.5	8344
0	28399	232	8335
0	28437	232.5	8322
0	28469	233	8308
0	28711	233.5	8295
0	28893	234	8281
0	28967	234.5	8873
0	29056	235	9657
0	29111	235.5	9153
0	29196	236	9171
0	29271	236.5	8706
0	29340	237	9281
0	29367	237.5	9371
0	29489	238	8927
0	29518	238.5	9344
0	29555	239	9105
0	29577	239.5	8506
0	29620	240	8523
0	29651	240.5	9076
0	29683	241	9125
0	29714	241.5	8521
0	29752	242	8430
0	29775	242.5	8183
0	30013	243	8491
0	30094	243.5	8560
0	30131	244	8319
0	30172	244.5	9687
0	30218	245	9228
0	30276	245.5	8769
0	30350	246	8310
0	30411	246.5	8534
0	30438	247	9514
0	30535	247.5	9081
0	30570	248	8601
0	30614	248.5	8621
0	30644	249	8920
0	30671	249.5	9220
0	30705	250	9361
0	30743	250.5	8989
0	30781	251	8969
0	30815	251.5	9051
0	30841	252	9292
0	31064	252.5	9532
0	31164	253	9663
0	31169	253.032944489127	9603
0	31174	253.055510640728	9547
0	31179	253.064664316222	9525
0	31182	253.072013397587	9507
0	31187	253.079376393274	9489
0	31192	253.086753356073	9471
0	31199	253.109588185077	9415
0	31204	253.143374425999	9332
0	31210	253.179568774853	9298
0	31213	253.187097275606	9295
0	31220	253.239705428745	9270
0	31225	253.270752152403	9256
0	31229	253.27831481446	9252
0	31234	253.28588074615	9249
0	31243	253.394387649148	9198
0	31248	253.405442838969	9192
0	31253	253.430762301461	9181
0	31256	253.438386743243	9177
0	31264	253.489367098087	9153
0	31268	253.5	9148
0	31332	254	9363
0	31396	254.5	9150
0	31462	255	8937
0	31521	255.5	8724
0	31560	256	8511
0	31584	256.5	8290
0	31723	257	8631
0	31762	257.5	8927
0	31810	258	8312
0	31832	258.5	8301
0	31973	259	8929
0	32012	259.5	8506
0	32042	260	9461
0	32088	260.5	9160
0	32116	261	9610
0	32150	261.5	8472
0	32344	262	8489
0	32400	262.5	8609
0	32434	263	9008
0	32476	263.5	9407
0	32637	264	8480
0	32709	264.5	8167
0	32794	265	9197
0	32832	265.5	9161
0	32864	266	9009
0	32898	266.5	8998
0	32924	267	9188
0	33069	267.5	8601
0	33092	268	9768
0	33127	268.5	9556
0	33128	268.5	9556
0	33165	269	9676
0	33166	269	9676
0	33191	269.5	9597
0	33192	269.5	9597
0	33219	270	8725
0	33394	270.5	8649
0	33428	271	8868
0	33454	271.5	8420
0	33483	272	8522
0	33582	272.5	8839
0	33640	273	8946
0	33712	273.5	9257
0	33747	274	9912
0	33778	274.5	9962
0	33779	274.5	9962
0	33807	275	8650
0	33808	275	8650
0	33832	275.5	9063
0	33954	276	8178
0	33998	276.5	8420
0	34037	277	8662
0	34076	277.5	8904
0	34109	278	9147
0	34159	278.5	9389
0	34383	279	9631
0	34389	279.008092485549	9635
0	34394	279.015357664584	9639
0	34399	279.022619828709	9642
0	34402	279.029879733293	9646
0	34409	279.037136627342	9649
0	34412	279.044391265128	9653
0	34415	279.051642896745	9656
0	34418	279.05889227537	9660
0	34422	279.066138652182	9663
0	34425	279.073382779265	9667
0	34429	279.080623908881	9670
0	34432	279.087862792025	9674
0	34435	279.095098682039	9677
0	34438	279.10233232883	9681
0	34447	279.159601097005	9709
0	34453	279.250933108038	9753
0	34459	279.337575559222	9795
0	34465	279.440685854789	9845
0	34473	279.490870498737	9869
0	34478	279.5	9874
0	34510	280	9505
0	34511	280.003834778928	9500
0	34512	280.011203199981	9491
0	34516	280.018578608263	9491
0	34519	280.025954016545	9491
0	34522	280.033329424827	9491
0	34526	280.040704833109	9491
0	34529	280.048080241391	9491
0	34534	280.055455649673	9491
0	34537	280.062831057955	9491
0	34540	280.070206466237	9491
0	34547	280.088793234009	9491
0	34550	280.096168642291	9491
0	34555	280.103544050573	9492
0	34560	280.110918681841	9492
0	34567	280.123412364923	9492
0	34572	280.149412839545	9492
0	34577	280.273084494052	9493
0	34582	280.295756167247	9494
0	34588	280.401255069521	9495
0	34592	280.408627370732	9495
0	34599	280.452769458766	9495
0	34605	280.486470787474	9496
0	34609	280.5	9496
0	34652	281	9540
0	34710	281.5	9750
0	34716	281.67872416574	9777
0	34724	281.752192552778	9775
0	34728	281.759353678098	9775
0	34737	281.806382248698	9774
0	34743	281.935307955251	9770
0	34749	282	9768
0	34753	282.035357498841	9767
0	34758	282.052201388989	9766
0	34764	282.068787888115	9766
0	34770	282.086101318541	9765
0	34776	282.173160370594	9763
0	34783	282.261879238162	9760
0	34788	282.277847030512	9760
0	34793	282.328670462933	9758
0	34798	282.340701594081	9758
0	34803	282.382390247848	9757
0	34810	282.5	9753
0	34845	283	9739
0	34981	283.5	9389
0	35021	284	8613
0	35051	284.5	8314
0	35079	285	8353
0	35128	285.5	8392
0	35158	286	8595
0	35188	286.5	8940
0	35222	287	9264
0	35262	287.5	8695
0	35498	288	8773
0	35593	288.5	9170
0	35628	289	9190
0	35689	289.5	9436
0	35695	289.50773993808	9440
0	35700	289.515805910829	9444
0	35706	289.548884542518	9460
0	35711	289.588470278845	9479
0	35716	289.604792408124	9487
0	35721	289.639413666176	9504
0	35730	289.701681357174	9535
0	35736	289.815516409875	9591
0	35743	289.877180515769	9621
0	35749	289.916816747315	9641
0	35755	289.944266396554	9617
0	35761	289.973313758266	9450
0	35766	289.982632368963	9397
0	35770	290	9297
0	35837	290.5	9328
0	35923	291	8534
0	35986	291.5	9891
0	36023	292	9735
0	36134	292.5	9768
0	36160	293	9836
0	36161	293	9836
0	36190	293.5	8713
0	36277	294	9773
0	36306	294.5	9201
0	36333	295	8786
0	36448	295.5	9579
0	36470	296	9701
0	36503	296.5	9440
0	36504	296.5	9440
0	36533	297	9179
0	36633	297.5	8919
0	36665	298	8658
0	36697	298.5	8741
0	36816	299	9572
0	36845	299.5	9485
0	36878	300	8450
0	36977	300.5	8979
0	37044	301	8382
0	37081	301.5	8245
0	37118	302	8187
0	37270	302.5	8464
0	37298	303	8809
0	37321	303.5	9155
0	37400	304	9500
0	37437	304.5	9206
0	37475	305	9162
0	37513	305.5	9092
0	37676	306	8892
0	37713	306.5	8898
0	37754	307	9066
0	37872	307.5	9233
0	37903	308	8845
0	37931	308.5	8800
0	38062	309	9274
0	38137	309.5	8762
0	38168	310	8151
0	38198	310.5	8186
0	38282	311	9003
0	38310	311.5	8987
0	38342	312	8717
0	38475	312.5	9455
0	38505	313	8866
0	38545	313.5	8600
0	38679	314	8523
0	38737	314.5	8445
0	38766	315	9354
0	38807	315.5	9131
0	38968	316	8908
0	39001	316.5	8685
0	39028	317	9623
0	39141	317.5	9405
0	39166	318	9188
0	39246	318.5	9414
0	39278	319	8993
0	39374	319.5	8571
0	39409	320	9025
0	39447	320.5	9230
0	39590	321	9310
0	39626	321.5	9596
0	39672	322	8253
0	39721	322.5	8466
0	39753	323	8805
0	39799	323.5	9144
0	39830	324	9483
0	40058	324.5	9822
0	40099	325	8853
0	40133	325.5	8350
0	40268	326	8488
0	40349	326.5	8626
0	40407	327	8128
0	40458	327.5	8564
0	40508	328	8943
0	40534	328.5	8798
0	40634	329	8796
0	40687	329.5	8993
0	40733	330	8933
0	40775	330.5	8301
0	40907	331	8566
0	40931	331.5	8737
0	40963	332	9482
0	40995	332.5	9323
0	41021	333	9164
0	41054	333.5	9319
0	41078	334	9784
0	41079	334.008239171375	9780
0	41080	334.015396635588	9776
0	41083	334.022557028387	9772
0	41086	334.029720352169	9768
0	41089	334.036886609335	9765
0	41092	334.044055068116	9761
0	41097	334.051226464489	9757
0	41100	334.058400800863	9753
0	41104	334.065578079649	9749
0	41107	334.072758303262	9745
0	41112	334.079941474119	9742
0	41116	334.087126856997	9738
0	41119	334.094315191357	9734
0	41122	334.101506479625	9730
0	41125	334.108700724229	9726
0	41132	334.115897927601	9722
0	41135	334.123098092176	9719
0	41139	334.130300479253	9715
0	41142	334.137505831801	9711
0	41145	334.144714152262	9707
0	41148	334.151925443083	9703
0	41151	334.159139706713	9699
0	41154	334.166356945604	9695
0	41157	334.17357716221	9692
0	41161	334.180799613716	9688
0	41164	334.188025047242	9684
0	41167	334.195253465251	9680
0	41170	334.20248487021	9676
0	41173	334.209719264588	9672
0	41176	334.216956650858	9668
0	41179	334.224197031495	9665
0	41182	334.231439659534	9661
0	41187	334.238685286281	9657
0	41190	334.245933914219	9653
0	41193	334.253185545836	9649
0	41196	334.260440183622	9645
0	41199	334.267697830071	9641
0	41202	334.274958487679	9637
0	41206	334.282222158946	9634
0	41209	334.289488092099	9630
0	41212	334.296757043293	9626
0	41215	334.304029015036	9622
0	41218	334.31130400984	9618
0	41221	334.318582030218	9614
0	41224	334.325863078689	9610
0	41227	334.333147157773	9606
0	41230	334.340434269995	9602
0	41233	334.347724417881	9599
0	41240	334.400301660946	9570
0	41246	334.412630347398	9564
0	41251	334.473040795572	9532
0	41256	334.5	9517
0	41285	335	9250
0	41286	335	9250
0	41318	335.5	8733
0	41444	336	9353
0	41502	336.5	8941
0	41599	337	9157
0	41670	337.5	9372
0	41745	338	9587
0	41767	338.5	9532
0	41793	339	8959
0	41899	339.5	8315
0	41925	340	8661
0	41965	340.5	8522
0	42102	341	8259
0	42136	341.5	8343
0	42178	342	8604
0	42212	342.5	8816
0	42367	343	8596
0	42408	343.5	8640
0	42441	344	9157
0	42567	344.5	8305
0	42595	345	8545
0	42687	345.5	8784
0	42740	346	9024
0	42797	346.5	9264
0	42842	347	9406
0	42878	347.5	9111
0	42999	348	8857
0	43022	348.5	8603
0	43136	349	8349
0	43168	349.5	8095
0	43194	350	8037
0	43214	350.5	8056
0	43329	351	8075
0	43383	351.5	8220
0	43431	352	8801
0	43463	352.5	9381
0	43500	353	8146
0	43534	353.5	8541
0	43688	354	8551
0	43731	354.5	8672
0	43764	355	8332
0	43813	355.5	8234
0	43842	356	9801
0	43843	356.007368421053	9824
0	43844	356.014493828219	9847
0	43847	356.02160259231	9869
0	43850	356.028695509526	9891
0	43857	356.035772650361	9900
0	43860	356.042843357432	9900
0	43863	356.049914064503	9900
0	43866	356.056984771574	9900
0	43869	356.064055478645	9900
0	43872	356.071126185716	9900
0	43875	356.078196892787	9899
0	43878	356.085268314143	9899
0	43882	356.092339735499	9899
0	43885	356.099411156855	9899
0	43888	356.106482578211	9899
0	43891	356.113553999567	9899
0	43894	356.120625420923	9898
0	43899	356.127697556708	9898
0	43904	356.134769692493	9898
0	43907	356.141841828278	9898
0	43910	356.148913964063	9898
0	43913	356.155986099848	9897
0	43916	356.163058950207	9897
0	43919	356.170131800566	9897
0	43924	356.177204650925	9897
0	43929	356.184277501284	9897
0	43932	356.191350351643	9897
0	43937	356.198423202002	9896
0	43940	356.205496767079	9896
0	43943	356.212570332156	9896
0	43948	356.219643897233	9896
0	43951	356.22671746231	9896
0	43954	356.233791027387	9896
0	43957	356.240864592464	9895
0	43960	356.247938872403	9895
0	43963	356.255013152342	9895
0	43973	356.316138196757	9894
0	43980	356.375324979301	9865
0	43987	356.435013300108	9761
0	43992	356.453408230451	9729
0	43997	356.462648675618	9713
0	44000	356.469855511817	9701
0	44006	356.5	9649
0	44009	356.594704346246	9484
0	44016	356.653121774207	9383
0	44023	356.860099759494	9024
0	44031	357	8781
0	44101	357.5	8762
0	44135	358	9184
0	44172	358.5	9607
0	44205	359	9553
0	44365	359.5	9198
0	44450	360	8843
0	44472	360.5	8444
0	44506	361	8501
0	44545	361.5	8653
0	44574	362	8802
0	44762	362.5	8876
0	44816	363	8842
0	44850	363.5	9032
0	44905	364	9362
0	45041	364.5	9290
0	45074	365	8365
0	45141	365.5	8599
0	45204	366	8813
0	45235	366.5	8931
0	45274	367	8652
0	45367	367.5	8372
0	45415	368	9354
0	45445	368.5	9076
0	45488	369	8799
0	45523	369.5	8521
0	45565	370	9082
0	45594	370.5	9888
0	45596	370.507220216606	9882
0	45599	370.514303802925	9876
0	45602	370.521391692759	9870
0	45606	370.528483891341	9792
0	45611	370.535632584151	9659
0	45614	370.542879711183	9523
0	45617	370.550230335986	9386
0	45621	370.557688252031	9247
0	45624	370.565258274741	9106
0	45627	370.572945513924	8962
0	45630	370.580756270452	8817
0	45633	370.5886954788	8668
0	45636	370.596771159465	8518
0	45639	370.604989050989	8364
0	45642	370.613358252328	8208
0	45645	370.621886517435	8049
0	45649	370.630583249948	8029
0	45652	370.639301645763	8049
0	45655	370.647998378276	8070
0	45658	370.656672479887	8090
0	45661	370.665325137489	8110
0	45664	370.673956456848	8130
0	45667	370.682566542949	8150
0	45670	370.691155500004	8170
0	45673	370.699723431461	8190
0	45676	370.708270440008	8210
0	45679	370.716796627584	8229
0	45684	370.725303128981	8249
0	45687	370.733789006057	8269
0	45690	370.742254358578	8289
0	45696	370.75069928559	8308
0	45699	370.759124899456	8328
0	45702	370.767530278899	8347
0	45706	370.775916525455	8367
0	45709	370.784282726005	8386
0	45714	370.792629971414	8405
0	45717	370.800958347381	8425
0	45720	370.809266952722	8444
0	45723	370.817556862717	8463
0	45726	370.825828161311	8483
0	45729	370.834079959024	8502
0	45734	370.842313315881	8521
0	45739	370.850528314121	8540
0	45742	370.858725035432	8559
0	45745	370.866903560961	8578
0	45748	370.875063971313	8597
0	45751	370.88320634656	8616
0	45755	370.891330766244	8635
0	45758	370.899437309382	8653
0	45761	370.907526989262	8672
0	45764	370.915598944982	8691
0	45767	370.923653254037	8710
0	45770	370.931689993417	8728
0	45774	370.939710158403	8747
0	45777	370.947712902201	8765
0	45780	370.955699211385	8784
0	45783	370.963668245993	8803
0	45786	370.971620080595	8821
0	45789	370.979555688803	8839
0	45796	371	8887
0	45836	371.5	9914
0	45886	372	8095
0	45887	372	8095
0	45919	372.5	8072
0	46076	373	8177
0	46146	373.5	8405
0	46182	374	8632
0	46237	374.5	8728
0	46265	375	8736
0	46280	375.5	8613
0	46373	376	8479
0	46457	376.5	8345
0	46483	377	8211
0	46531	377.5	8553
0	46565	378	8390
0	46591	378.5	8227
0	46625	379	8799
0	46834	379.5	8986
0	46871	380	8842
0	46897	380.5	8960
0	46931	381	9380
0	47070	381.5	9425
0	47121	382	9405
0	47185	382.5	9364
0	47261	383	9324
0	47300	383.5	8757
0	47333	384	8541
0	47445	384.5	9117
0	47532	385	9188
0	47552	385.5	9863
0	47586	386	9588
0	47587	386	9588
0	47617	386.5	8315
0	47656	387	8277
0	47681	387.5	8944
0	47844	388	8519
0	47872	388.5	8099
0	47916	389	8164
0	47940	389.5	8294
0	48064	390	8424
0	48104	390.5	8555
0	48170	391	9500
0	48210	391.5	9238
0	48237	392	8530
0	48268	392.5	8756
0	48378	393	8982
0	48412	393.5	8516
0	48451	394	8148
0	48489	394.5	8120
0	48520	395	9229
0	48561	395.5	8370
0	48586	396	8223
0	48762	396.5	8328
0	48789	397	9184
0	48829	397.5	9792
0	48866	398	9409
0	49017	398.5	8772
0	49077	399	8614
0	49165	399.5	8425
0	49254	400	9127
1	1221	10	9548
1	1293	10.5	9021
1	1355	11	9070
1	1410	11.5	9511
1	1470	12	8764
1	1537	12.5	9024
1	1582	13	9695
1	1626	13.5	9714
1	1627	13.5	9714
1	1666	14	9412
1	1696	14.5	9756
1	1713	15	9819
1	1714	15.00469385571	9819
1	1715	15.011822891253	9820
1	1718	15.017626559041	9821
1	1719	15.018951200825	9821
1	1723	15.02475414279	9822
1	1726	15.026078784574	9822
1	1729	15.031881000864	9823
1	1732	15.033205642648	9823
1	1736	15.03900713341	9824
1	1739	15.040331775194	9824
1	1742	15.046132540576	9824
1	1746	15.04745718236	9807
1	1749	15.053257947742	9708
1	1752	15.054594941104	9686
1	1755	15.058829893324	9614
1	1756	15.060468495744	9586
1	1759	15.061821866563	9563
1	1762	15.066110941795	9490
1	1765	15.066160503859	9489
1	1766	15.067770811621	9461
1	1769	15.069141745262	9438
1	1772	15.073487127253	9364
1	1775	15.073537466658	9363
1	1778	15.075169606674	9335
1	1781	15.076558570861	9312
1	1784	15.0809625651	9237
1	1787	15.081013702907	9236
1	1790	15.082668267627	9208
1	1793	15.084075752992	9184
1	1796	15.088540783136	9108
1	1799	15.088592741452	9107
1	1802	15.09027035277	9078
1	1805	15.091697704212	9054
1	1808	15.0962263343	8977
1	1811	15.096279136533	8976
1	1814	15.097981302318	8947
1	1817	15.099429093653	8922
1	1820	15.104024039547	8844
1	1823	15.104077710508	8843
1	1826	15.105805153888	8814
1	1829	15.107274868143	8789
1	1833	15.111939010149	8709
1	1836	15.111993576164	8708
1	1839	15.113747064485	8679
1	1842	15.115239369224	8653
1	1847	15.115294284379	8652
1	1867	15.149006612419	8078
1	1876	15.2100632287	8162
1	1881	15.224874670841	8188
1	1884	15.233423767079	8202
1	1889	15.241958270859	8217
1	1897	15.286814544775	8294
1	1903	15.323681611052	8357
1	1909	15.338036334617	8382
1	1917	15.39348355654	8477
1	1920	15.401741194855	8491
1	1927	15.440307251873	8557
1	1933	15.46311316639	8596
1	1938	15.48712684171	8638
1	1945	15.498289863547	8657
1	1947	15.5	8660
1	1974	16	9451
1	2011	16.5	9436
1	2012	16.5	9436
1	2036	17	8263
1	2197	17.5	8359
1	2249	18	8464
1	2322	18.5	8747
1	2422	19	9031
1	2458	19.5	9850
1	2550	20	9467
1	2604	20.5	9162
1	2665	21	8959
1	2700	21.5	9545
1	2817	22	9320
1	2845	22.5	9094
1	2937	23	8869
1	2976	23.5	8644
1	3011	24	8942
1	3050	24.5	9343
1	3084	25	8517
1	3126	25.5	9566
1	3153	26	8381
1	3194	26.5	8846
1	3230	27	9311
1	3458	27.5	9835
1	3462	27.507382408775	9844
1	3463	27.514493339291	9852
1	3466	27.521598495604	9861
1	3469	27.528697167138	9869
1	3472	27.535790084354	9877
1	3475	27.542877256572	9886
1	3478	27.549957976782	9894
1	3481	27.557032971728	9902
1	3484	27.564102250662	9911
1	3487	27.571165110111	9919
1	3490	27.578222273131	9927
1	3493	27.585273748904	9935
1	3496	27.592319546589	9944
1	3499	27.599358967345	9952
1	3502	27.606392729403	9960
1	3505	27.613420841853	9969
1	3508	27.620442609332	9977
1	3512	27.627458746447	9958
1	3515	27.634488270448	9918
1	3518	27.641546145019	9878
1	3525	27.655119529609	9800
1	3530	27.675217101414	9685
1	3536	27.771668292406	9134
1	3546	27.852374283068	8672
1	3551	27.869588518568	8574
1	3556	27.898909048528	8406
1	3561	27.931972839622	8217
1	3564	27.940491763804	8169
1	3573	27.961962161285	8149
1	3578	27.981117271932	8167
1	3582	28	8185
1	3660	28.5	9344
1	3713	29	9094
1	3782	29.5	8844
1	3841	30	8594
1	3893	30.5	8344
1	3981	31	8095
1	4006	31.5	8571
1	4093	32	8685
1	4128	32.5	8953
1	4157	33	9693
1	4177	33.5	9788
1	4178	33.5	9788
1	4214	34	8485
1	4215	34	8485
1	4250	34.5	9285
1	4445	35	9211
1	4466	35.5	9781
1	4501	36	9365
1	4502	36	9365
1	4537	36.5	8932
1	4673	37	8503
1	4755	37.5	9915
1	4760	37.587568981178	9900
1	4763	37.594639688249	9899
1	4771	37.609709791539	9897
1	4776	37.658090276669	9888
1	4781	37.670850084957	9886
1	4789	37.730716907512	9845
1	4795	37.740844517765	9828
1	4800	37.766338067026	9788
1	4803	37.773489681247	9777
1	4813	37.947188598262	9502
1	4818	38	9419
1	4878	38.5	8803
1	4909	39	8578
1	4945	39.5	8673
1	5063	40	8992
1	5130	40.5	9828
1	5157	41	8947
1	5158	41	8947
1	5183	41.5	9051
1	5223	42	9203
1	5269	42.5	8763
1	5447	43	8380
1	5497	43.5	9680
1	5539	44	9029
1	5577	44.5	9367
1	5618	45	9072
1	5774	45.5	8724
1	5838	46	8275
1	5878	46.5	8162
1	5909	47	8194
1	5941	47.5	8348
1	5978	48	9129
1	6108	48.5	9239
1	6182	49	8965
1	6203	49.5	8687
1	6245	50	8962
1	6280	50.5	8310
1	6438	51	8482
1	6494	51.5	8655
1	6562	52	8827
1	6583	52.5	8999
1	6618	53	9171
1	6648	53.5	8546
1	6754	54	9174
1	6790	54.5	9576
1	6828	55	8854
1	6870	55.5	8838
1	6907	56	9373
1	7080	56.5	9120
1	7149	57	9182
1	7200	57.5	9553
1	7245	58	9290
1	7275	58.5	8868
1	7291	59	9393
1	7293	59.007626103061	9401
1	7294	59.015072119442	9409
1	7297	59.02251180485	9417
1	7300	59.029945170041	9425
1	7303	59.037372225744	9432
1	7308	59.044793769425	9440
1	7311	59.052209023662	9448
1	7314	59.059617999107	9456
1	7317	59.067020706383	9463
1	7320	59.074417937705	9471
1	7323	59.081808920706	9479
1	7326	59.089193665932	9487
1	7329	59.096572183904	9494
1	7332	59.103945261637	9502
1	7335	59.11131213177	9510
1	7338	59.118672804746	9518
1	7343	59.126027290983	9525
1	7348	59.133376372348	9533
1	7351	59.140719286436	9541
1	7354	59.148056043589	9549
1	7357	59.155386654124	9556
1	7360	59.16271189481	9564
1	7363	59.170031008152	9572
1	7366	59.177344004391	9579
1	7370	59.184651656547	9480
1	7373	59.192035622792	9158
1	7376	59.199679213096	8825
1	7385	59.24675572155	8322
1	7390	59.270884045294	8416
1	7396	59.301790588199	8537
1	7401	59.317867130727	8600
1	7407	59.383644923098	8857
1	7414	59.478072737972	9242
1	7419	59.5	9548
1	7468	60	9077
1	7498	60.5	8383
1	7535	61	9937
1	7536	61.004544909442	9936
1	7539	61.011589998009	9934
1	7542	61.014546889463	9933
1	7543	61.018636504955	9932
1	7548	61.021594105813	9932
1	7551	61.024489908843	9931
1	7552	61.025684430851	9931
1	7555	61.028642031709	9930
1	7558	61.031538544429	9929
1	7561	61.032733066437	9929
1	7566	61.035691377127	9928
1	7569	61.038588599822	9927
1	7572	61.03978312183	9927
1	7576	61.042742142639	9926
1	7579	61.045640075595	9926
1	7583	61.046834597603	9926
1	7586	61.049794328817	9925
1	7589	61.052692261773	9924
1	7592	61.053886783781	9924
1	7595	61.056847225542	9923
1	7598	61.059745869189	9922
1	7611	61.081935270449	9917
1	7619	61.150864561258	9890
1	7631	61.282749628344	9739
1	7637	61.32996394683	9686
1	7644	61.374683828203	9635
1	7649	61.395830956327	9611
1	7654	61.41825145365	9585
1	7661	61.468130628511	9528
1	7666	61.498618373459	9494
1	7669	61.5	9492
1	7670	61.5	9492
1	7711	62	8923
1	7813	62.5	8358
1	7883	63	8521
1	7924	63.5	8210
1	7973	64	8322
1	8002	64.5	8496
1	8151	65	8261
1	8201	65.5	9051
1	8313	66	8439
1	8333	66.5	8693
1	8379	67	8687
1	8418	67.5	9347
1	8559	68	9620
1	8599	68.5	9479
1	8623	69	9337
1	8686	69.5	8744
1	8717	70	9494
1	8748	70.5	9624
1	8877	71	8618
1	8942	71.5	8541
1	8962	72	8766
1	9006	72.5	9001
1	9034	73	8848
1	9064	73.5	9189
1	9104	74	8519
1	9268	74.5	8692
1	9305	75	9523
1	9343	75.5	8675
1	9370	76	8909
1	9514	76.5	8867
1	9581	77	8958
1	9627	77.5	9066
1	9668	78	9173
1	9700	78.5	8993
1	9740	79	8627
1	9906	79.5	8617
1	9961	80	8132
1	9996	80.5	8587
1	10029	81	9282
1	10063	81.5	9605
1	10101	82	9431
1	10102	82	9431
1	10142	82.5	9211
1	10346	83	9157
1	10373	83.5	9104
1	10406	84	9141
1	10441	84.5	9217
1	10589	85	9292
1	10633	85.5	9368
1	10695	86	9444
1	10698	86.022641486119	9447
1	10706	86.160409915156	9468
1	10711	86.20453475797	9474
1	10716	86.252450998247	9482
1	10719	86.259833407022	9483
1	10729	86.375923767958	8866
1	10736	86.425708451001	8821
1	10739	86.433644059209	8831
1	10746	86.451572806127	8853
1	10751	86.5	8912
1	10799	87	9187
1	10826	87.5	9471
1	10827	87.507274238803	9475
1	10828	87.5146621016	9479
1	10831	87.522046846826	9483
1	10834	87.529428477112	9487
1	10840	87.536806995084	9492
1	10843	87.544181626352	9496
1	10846	87.551553151205	9500
1	10849	87.558921572258	9504
1	10852	87.566286892123	9508
1	10855	87.57364911341	9513
1	10858	87.581007465139	9517
1	10863	87.588362724149	9521
1	10867	87.595714893039	9525
1	10870	87.603063974404	9529
1	10873	87.610409970836	9533
1	10876	87.617752884924	9538
1	10880	87.625091949717	9542
1	10883	87.632427937979	9546
1	10886	87.639760852289	9550
1	10889	87.647090695221	9554
1	10892	87.654417469347	9558
1	10895	87.661741177236	9563
1	10898	87.669061055935	9567
1	10901	87.676377874164	9571
1	10904	87.683691634482	9575
1	10907	87.691002339443	9579
1	10916	87.779735654881	9630
1	10921	87.800182782532	9641
1	10926	87.80988501139	9647
1	10932	87.834403104526	9654
1	10938	87.861243655151	9635
1	10946	87.939787566864	9580
1	10953	87.974040063271	9555
1	10958	87.981880532829	9550
1	10963	87.993246608758	9542
1	10964	88	9537
1	10970	88.008076612438	9532
1	10975	88.028487175009	9517
1	10984	88.163302718445	9422
1	10993	88.305969850669	9322
1	10999	88.344330525366	9295
1	11004	88.387992099719	9264
1	11010	88.420704804645	9241
1	11016	88.499196410959	9186
1	11018	88.5	9186
1	11054	89	8834
1	11094	89.5	8708
1	11124	90	8869
1	11162	90.5	9029
1	11197	91	9154
1	11425	91.5	9141
1	11451	92	9155
1	11510	92.5	8731
1	11572	93	8671
1	11610	93.5	8496
1	11690	94	8951
1	11750	94.5	9722
1	11753	94.517428208166	9717
1	11759	94.562302667062	9705
1	11764	94.616914847549	9690
1	11769	94.627662256508	9687
1	11776	94.765521120566	9650
1	11781	94.795675781801	9642
1	11787	94.825447980783	9633
1	11792	94.850158778771	9627
1	11800	94.956291080968	9598
1	11806	94.992785424877	9588
1	11808	95	9586
1	11842	95.5	9322
1	11873	96	8839
1	11910	96.5	8356
1	11945	97	8657
1	11983	97.5	9393
1	12011	98	9891
1	12051	98.5	9109
1	12052	98.5	9109
1	12086	99	8662
1	12303	99.5	8216
1	12418	100	8236
1	12493	100.5	8403
1	12577	101	8561
1	12644	101.5	8298
1	12700	102	8188
1	12767	102.5	8127
1	12808	103	8859
1	12837	103.5	8508
1	12946	104	8760
1	12979	104.5	9732
1	13084	105	9394
1	13118	105.5	9055
1	13234	106	9138
1	13249	106.5	9801
1	13284	107	9383
1	13285	107	9383
1	13322	107.5	9117
1	13359	108	9159
1	13528	108.5	9177
1	13555	109	9195
1	13581	109.5	8393
1	13625	110	8319
1	13653	110.5	8273
1	13789	111	8433
1	13858	111.5	8704
1	13910	112	8975
1	13925	112.5	9246
1	13954	113	9522
1	14026	113.5	9489
1	14085	114	9009
1	14176	114.5	8844
1	14200	115	8320
1	14231	115.5	9354
1	14268	116	8599
1	14303	116.5	8516
1	14460	117	8433
1	14492	117.5	9615
1	14512	118	9441
1	14552	118.5	8651
1	14578	119	8182
1	14719	119.5	9368
1	14814	120	8724
1	14880	120.5	9149
1	14911	121	9045
1	14950	121.5	8959
1	15052	122	8751
1	15122	122.5	9422
1	15172	123	9082
1	15211	123.5	9818
1	15254	124	9768
1	15255	124.003234073802	9768
1	15256	124.010400330968	9769
1	15259	124.017565854563	9769
1	15262	124.024731378158	9769
1	15265	124.031896901753	9769
1	15268	124.039062425348	9770
1	15271	124.046227215522	9770
1	15274	124.053392005696	9770
1	15278	124.06055679587	9770
1	15281	124.067721586044	9771
1	15284	124.069385096247	9771
1	15285	124.074885642947	9771
1	15289	124.07654915315	9771
1	15292	124.08204969985	9771
1	15297	124.083713210053	9771
1	15301	124.089213756753	9772
1	15304	124.090877266956	9772
1	15307	124.096377080535	9772
1	15310	124.098040590738	9772
1	15313	124.103540404317	9772
1	15316	124.10520391452	9772
1	15319	124.109488956752	9772
1	15320	124.110703728099	9772
1	15323	124.112367238302	9772
1	15328	124.116652280534	9773
1	15331	124.117867051881	9773
1	15334	124.119530562084	9773
1	15339	124.123814871345	9773
1	15342	124.125029642692	9773
1	15345	124.126693152895	9773
1	15348	124.130675627098	9773
1	15362	124.158746734627	9774
1	15370	124.250288150136	9778
1	15375	124.266199943168	9778
1	15382	124.358184743816	9782
1	15387	124.368720592069	9782
1	15392	124.409803477916	9784
1	15395	124.416958015937	9784
1	15403	124.429341206378	9785
1	15406	124.436495013225	9785
1	15413	124.448796857686	9785
1	15422	124.5	9787
1	15451	125	9806
1	15452	125.007937407869	9807
1	15453	125.015075166613	9807
1	15457	125.022212925357	9807
1	15460	125.029350684101	9808
1	15463	125.036487715096	9808
1	15466	125.043624746091	9808
1	15469	125.050761777086	9808
1	15472	125.057898808081	9809
1	15481	125.149897674378	9812
1	15489	125.231588017684	9833
1	15494	125.244551760685	9836
1	15498	125.251668474796	9838
1	15510	125.39063195516	9875
1	15521	125.5	9729
1	15554	126	8640
1	15555	126	8640
1	15578	126.5	9717
1	15611	127	9655
1	15612	127	9655
1	15654	127.5	9057
1	15803	128	8898
1	15849	128.5	9615
1	15893	129	8682
1	15894	129	8682
1	15927	129.5	8789
1	15965	130	8895
1	16153	130.5	9001
1	16209	131	9640
1	16213	131.043062854099	9470
1	16219	131.073833624793	9348
1	16225	131.160702271842	9005
1	16233	131.237706692653	8701
1	16238	131.278199193697	8541
1	16245	131.431628097005	8339
1	16248	131.440022388887	8349
1	16255	131.459923781237	8372
1	16261	131.5	8419
1	16288	132	8884
1	16323	132.5	8941
1	16429	133	9958
1	16432	133.017128791143	9932
1	16438	133.127864483039	9760
1	16443	133.158235381745	9713
1	16449	133.225302017423	9609
1	16454	133.287070983598	9514
1	16459	133.314768396444	9471
1	16464	133.32834234367	9450
1	16469	133.35507609276	9408
1	16476	133.5	9184
1	16560	134	8745
1	16586	134.5	8923
1	16620	135	9506
1	16661	135.5	9577
1	16689	136	9039
1	16870	136.5	9399
1	16918	137	9472
1	16950	137.5	9607
1	16985	138	9654
1	17041	138.5	9409
1	17042	138.507137758744	9401
1	17045	138.514583775125	9392
1	17048	138.522036926743	9382
1	17051	138.529498022458	9373
1	17054	138.536966282353	9364
1	17059	138.5444417202	9355
1	17063	138.55192434981	9346
1	17066	138.559414185034	9337
1	17069	138.566911239762	9327
1	17072	138.574416332504	9318
1	17075	138.581928674208	9309
1	17078	138.589448278892	9300
1	17081	138.596975160612	9291
1	17085	138.604509333467	9281
1	17088	138.612051624168	9272
1	17092	138.619601235902	9263
1	17095	138.627158182895	9254
1	17098	138.634722479415	9244
1	17102	138.642294958861	9235
1	17105	138.649874818092	9226
1	17108	138.657462071506	9217
1	17111	138.665056733544	9207
1	17114	138.672659644373	9198
1	17121	138.680269994449	9189
1	17126	138.687887798345	9179
1	17129	138.695513901406	9170
1	17132	138.703147489192	9161
1	17136	138.71078857641	9151
1	17141	138.71843801363	9142
1	17144	138.726094981471	9132
1	17148	138.733760334077	9123
1	17153	138.741433248688	9114
1	17156	138.749113740239	9104
1	17159	138.756802668183	9095
1	17162	138.764499204742	9085
1	17166	138.772204212997	9039
1	17169	138.77994843249	8987
1	17173	138.787737461087	8936
1	17176	138.79557094363	8884
1	17181	138.803450277263	8832
1	17185	138.811376001901	8779
1	17188	138.819349575201	8727
1	17191	138.827370659193	8674
1	17195	138.835440753728	8620
1	17198	138.84356140338	8566
1	17201	138.851733245547	8512
1	17206	138.859956929758	8458
1	17209	138.868233117982	8403
1	17212	138.876563476187	8348
1	17215	138.884948718161	8293
1	17218	138.893389571893	8237
1	17221	138.901887811543	8180
1	17225	138.910445268756	8164
1	17232	139	8236
1	17298	139.5	8640
1	17375	140	9136
1	17410	140.5	9799
1	17442	141	9789
1	17445	141.007941009643	9761
1	17446	141.015112406016	9735
1	17449	141.022302955579	9710
1	17452	141.029512018401	9684
1	17455	141.03674043641	9658
1	17458	141.043988313817	9632
1	17461	141.051255755677	9606
1	17468	141.058542867899	9580
1	17471	141.065849757252	9554
1	17474	141.073176531378	9528
1	17477	141.0805232988	9501
1	17481	141.087890944311	9475
1	17484	141.095278807108	9449
1	17487	141.102686998451	9422
1	17490	141.110116418956	9396
1	17493	141.11756639767	9369
1	17496	141.125037846064	9342
1	17499	141.132530888239	9315
1	17507	141.15989843416	9221
1	17513	141.17531334858	9168
1	17518	141.191055179073	9114
1	17521	141.198735670624	9087
1	17529	141.272964911465	8831
1	17537	141.401274610537	9044
1	17543	141.435676990255	9109
1	17550	141.472299921229	9178
1	17554	141.5	9230
1	17606	142	9693
1	17692	142.5	9198
1	17728	143	9244
1	17750	143.5	8726
1	17784	144	8058
1	17918	144.5	9065
1	17999	145	9607
1	18023	145.5	9423
1	18044	146	9239
1	18075	146.5	9901
1	18076	146.500263928158	9901
1	18080	146.507333921088	9908
1	18083	146.514398919069	9905
1	18086	146.521466056878	9901
1	18089	146.528536049808	9897
1	18096	146.535608900167	9894
1	18100	146.542683895113	9890
1	18103	146.549761751534	9886
1	18108	146.556842471744	9883
1	18113	146.563925341318	9879
1	18118	146.571011078741	9875
1	18121	146.578099686336	9872
1	18125	146.585190448086	9868
1	18128	146.592284084081	9864
1	18131	146.599380596652	9860
1	18134	146.606479988133	9857
1	18137	146.613581540329	9853
1	18140	146.620685975526	9849
1	18143	146.627793296066	9846
1	18146	146.634902782152	9842
1	18149	146.642015157685	9838
1	18152	146.649130425016	9835
1	18159	146.669426196918	9824
1	18166	146.710460067196	9802
1	18171	146.727886509609	9793
1	18176	146.787026814219	9763
1	18181	146.794196741495	9759
1	18189	146.839181964669	9735
1	18199	146.90326086619	9702
1	18204	146.921344444559	9692
1	18207	146.928566896065	9689
1	18213	147	9651
1	18264	147.5	9546
1	18322	148	9020
1	18357	148.5	8743
1	18392	149	8542
1	18418	149.5	8215
1	18543	150	8972
1	18610	150.5	9130
1	18662	151	9110
1	18691	151.5	8261
1	18726	152	8255
1	18749	152.5	8720
1	18924	153	8150
1	18991	153.5	8382
1	19032	154	8656
1	19161	154.5	8931
1	19198	155	9205
1	19305	155.5	9479
1	19362	156	9536
1	19450	156.5	9219
1	19472	157	8903
1	19502	157.5	8474
1	19532	158	8963
1	19556	158.5	8910
1	19586	159	8278
1	19622	159.5	8598
1	19650	160	8615
1	19867	160.5	8513
1	19901	161	9120
1	19990	161.5	9187
1	20065	162	8547
1	20143	162.5	8989
1	20189	163	8681
1	20264	163.5	9713
1	20316	164	8716
1	20346	164.5	9408
1	20460	165	9379
1	20489	165.5	9173
1	20515	166	8721
1	20535	166.5	8270
1	20656	167	8320
1	20681	167.5	8389
1	20705	168	8458
1	20733	168.5	8527
1	20769	169	9556
1	20932	169.5	9554
1	20991	170	9275
1	21035	170.5	8497
1	21062	171	8331
1	21083	171.5	9129
1	21167	172	9903
1	21170	172.023484248131	9837
1	21176	172.081738291495	9672
1	21182	172.1308884703	9533
1	21188	172.226715474783	9262
1	21197	172.360145296165	8884
1	21205	172.5	8717
1	21247	173	8223
1	21277	173.5	8303
1	21396	174	8271
1	21434	174.5	8274
1	21469	175	8277
1	21587	175.5	8488
1	21623	176	8860
1	21653	176.5	9152
1	21691	177	9517
1	21816	177.5	9873
1	21842	178	8863
1	21843	178	8863
1	21872	178.5	8497
1	21968	179	8132
1	21994	179.5	9714
1	22017	180	8666
1	22112	180.5	9410
1	22163	181	9583
1	22192	181.5	9121
1	22193	181.5	9121
1	22227	182	9759
1	22228	182.007898002934	9768
1	22229	182.0150642601	9777
1	22232	182.022223920528	9785
1	22235	182.029377727375	9794
1	22239	182.036524960375	9802
1	22242	182.043666360089	9811
1	22245	182.050801208728	9819
1	22248	182.057930244271	9828
1	22251	182.065052751394	9836
1	22254	182.072169465505	9845
1	22257	182.079279673733	9853
1	22261	182.08638410893	9861
1	22266	182.093482780464	9837
1	22269	182.100598771112	9813
1	22274	182.107732165589	9788
1	22278	182.11488377981	9764
1	22282	182.122052972764	9739
1	22285	182.129240569026	9714
1	22288	182.136446663323	9690
1	22292	182.143670605531	9665
1	22299	182.152324406362	9635
1	22305	182.220111863946	9398
1	22312	182.343808634406	8953
1	22318	182.368914060266	8863
1	22321	182.3768120632	8834
1	22330	182.5	8655
1	22354	183	9041
1	22366	183.5	9428
1	22436	184	9814
1	22473	184.5	9392
1	22474	184.5	9392
1	22509	185	8674
1	22541	185.5	8195
1	22724	186	9458
1	22745	186.5	8941
1	22783	187	8642
1	22906	187.5	8518
1	22944	188	8781
1	22980	188.5	8537
1	23081	189	8194
1	23135	189.5	8157
1	23159	190	8120
1	23190	190.5	8444
1	23318	191	9370
1	23368	191.5	9778
1	23369	191.5	9778
1	23402	192	9839
1	23558	192.5	9392
1	23589	193	8945
1	23633	193.5	8499
1	23668	194	8481
1	23805	194.5	8534
1	23836	195	9750
1	23863	195.5	9729
1	23864	195.507158928206	9728
1	23865	195.51435465189	9728
1	23868	195.521550375574	9728
1	23871	195.528746099258	9727
1	23874	195.53594256271	9727
1	23877	195.543139026162	9727
1	23880	195.550335489614	9727
1	23884	195.557531953066	9728
1	23889	195.56472767675	9730
1	23892	195.571921921354	9732
1	23895	195.579114687486	9734
1	23898	195.586305975754	9736
1	23903	195.593495786765	9738
1	23906	195.600684121125	9740
1	23909	195.607870979441	9742
1	23912	195.615056362319	9744
1	23916	195.622240270365	9746
1	23924	195.639401791345	9751
1	23929	195.659105104709	9756
1	23935	195.710236562447	9770
1	23942	195.763073215094	9785
1	23945	195.770227021941	9787
1	23952	195.80588688094	9796
1	23958	195.949292813447	9836
1	23963	196	9850
1	24005	196.5	9839
1	24006	196.5	9839
1	24033	197	9458
1	24146	197.5	9077
1	24201	198	9655
1	24236	198.5	8654
1	24284	199	8594
1	24422	199.5	8942
1	24452	200	8200
1	24477	200.5	8863
1	24571	201	9935
1	24607	201.5	9659
1	24608	201.5	9659
1	24642	202	9268
1	24643	202	9268
1	24675	202.5	8473
1	24820	203	9925
1	24855	203.5	8911
1	24856	203.5	8911
1	24899	204	9015
1	25042	204.5	8542
1	25071	205	8771
1	25177	205.5	8802
1	25252	206	8715
1	25332	206.5	8829
1	25360	207	9126
1	25401	207.5	9438
1	25507	208	9910
1	25545	208.5	9761
1	25546	208.5	9761
1	25590	209	9612
1	25591	209	9612
1	25635	209.5	8951
1	25636	209.5	8951
1	25667	210	8897
1	25871	210.5	8349
1	25911	211	9716
1	26026	211.5	8599
1	26061	212	9124
1	26088	212.5	8572
1	26184	213	9272
1	26263	213.5	9428
1	26326	214	8810
1	26365	214.5	8398
1	26481	215	8386
1	26519	215.5	8373
1	26539	216	8361
1	26628	216.5	8855
1	26651	217	8726
1	26680	217.5	8843
1	26728	218	9049
1	26766	218.5	9413
1	26804	219	9555
1	26839	219.5	9169
1	27044	220	8652
1	27079	220.5	8069
1	27108	221	8848
1	27225	221.5	9625
1	27313	222	9555
1	27359	222.5	8706
1	27436	223	8786
1	27502	223.5	9749
1	27534	224	9040
1	27562	224.5	8610
1	27675	225	9300
1	27708	225.5	9679
1	27709	225.501846991889	9678
1	27710	225.509079891248	9670
1	27713	225.514316336733	9665
1	27714	225.516318774392	9663
1	27717	225.521558964772	9658
1	27720	225.523562901475	9656
1	27723	225.525926540287	9654
1	27727	225.528806842179	9651
1	27730	225.5308122801	9649
1	27733	225.533177420751	9646
1	27736	225.536059976569	9644
1	27751	225.550028093693	9630
1	27756	225.576854746715	9603
1	27763	225.601151610108	9579
1	27766	225.608459262264	9572
1	27776	225.679117334796	9502
1	27784	225.726482949764	9455
1	27800	225.923199605999	9396
1	27807	225.98953750053	9376
1	27812	226	9373
1	27883	226.5	8870
1	27976	227	8809
1	28004	227.5	9420
1	28005	227.504840587902	9411
1	28007	227.512278692248	9397
1	28010	227.519727878158	9382
1	28013	227.527188973873	9368
1	28016	227.534661219817	9354
1	28019	227.542144649366	9340
1	28022	227.549639296047	9326
1	28025	227.557145193538	9312
1	28028	227.564662375669	9297
1	28031	227.572191686199	9283
1	28038	227.601934046349	9227
1	28043	227.627308246472	9179
1	28049	227.744662272568	8956
1	28060	227.87055546174	9205
1	28068	228	9092
1	28140	228.5	8542
1	28173	229	9523
1	28222	229.5	9137
1	28257	230	9194
1	28283	230.5	9262
1	28313	231	9328
1	28355	231.5	8962
1	28399	232	9551
1	28437	232.5	8826
1	28469	233	9751
1	28470	233.00706999293	9751
1	28471	233.014248743827	9750
1	28474	233.021428231006	9749
1	28479	233.028608454619	9748
1	28482	233.035789414816	9747
1	28487	233.042971111748	9747
1	28490	233.05015280868	9746
1	28493	233.057335242499	9745
1	28496	233.064518413356	9744
1	28501	233.071702321402	9744
1	28506	233.078886229448	9743
1	28511	233.086070874834	9742
1	28514	233.093256257712	9741
1	28517	233.100442378234	9741
1	28520	233.107628498756	9740
1	28523	233.114815357072	9739
1	28528	233.122002953334	9738
1	28535	233.129191287694	9738
1	28538	233.136379622054	9737
1	28541	233.143568694664	9736
1	28544	233.150758505675	9735
1	28548	233.157949055238	9734
1	28553	233.165140343506	9734
1	28556	233.172331631774	9733
1	28560	233.179523658898	9732
1	28563	233.18671642503	9731
1	28566	233.193909930322	9731
1	28569	233.201103435614	9730
1	28573	233.208297680218	9729
1	28576	233.215492664286	9728
1	28579	233.22268838797	9728
1	28582	233.229884111654	9727
1	28585	233.237080575106	9726
1	28588	233.244277778478	9725
1	28591	233.251475721923	9724
1	28594	233.258674405592	9724
1	28597	233.265873089261	9723
1	28600	233.273072513307	9722
1	28606	233.280272677882	9721
1	28611	233.287473583139	9721
1	28616	233.294674488396	9720
1	28619	233.301876134487	9719
1	28622	233.309078521564	9718
1	28625	233.31628164978	9718
1	28628	233.323484777996	9717
1	28633	233.330688647503	9716
1	28636	233.337893258454	9715
1	28641	233.345098611002	9715
1	28645	233.35230396355	9714
1	28648	233.359510057847	9713
1	28651	233.366716894046	9712
1	28654	233.3739244723	9711
1	28657	233.381132792761	9711
1	28660	233.388341113222	9710
1	28663	233.395550176044	9709
1	28666	233.402759981379	9708
1	28669	233.409970529381	9708
1	28674	233.417181077383	9707
1	28677	233.424392368204	9706
1	28680	233.431604401998	9705
1	28684	233.438817178917	9705
1	28687	233.446029955836	9704
1	28690	233.453243476034	9703
1	28693	233.460457739664	9702
1	28696	233.467672746879	9701
1	28699	233.474888497833	9701
1	28702	233.482104248787	9700
1	28705	233.489320743632	9699
1	28708	233.496537982523	9698
1	28711	233.5	9698
1	28715	233.507274238803	9697
1	28716	233.514492966244	9696
1	28719	233.521712438191	9696
1	28722	233.528931910138	9695
1	28725	233.536152126744	9694
1	28728	233.543373088163	9693
1	28731	233.550594794549	9693
1	28736	233.557816500935	9692
1	28742	233.565038952441	9691
1	28746	233.572262149222	9671
1	28750	233.579500283851	9591
1	28754	233.58679879287	9511
1	28759	233.594158691934	9429
1	28764	233.601582596908	9348
1	28769	233.609070829685	9265
1	28772	233.616626145389	9182
1	28775	233.624249756803	9098
1	28780	233.631943755484	9013
1	28783	233.639710314898	8927
1	28787	233.647551694981	8891
1	28792	233.655424825113	8885
1	28795	233.663303271933	8879
1	28800	233.671187042628	8873
1	28803	233.679076144397	8867
1	28806	233.686970584456	8861
1	28809	233.694870370033	8855
1	28812	233.702775508373	8849
1	28815	233.710686006734	8843
1	28819	233.71860187239	8837
1	28823	233.72652311263	8831
1	28828	233.734449734757	8825
1	28831	233.742381746088	8819
1	28836	233.750319153957	8813
1	28839	233.758261965712	8807
1	28844	233.766210188716	8801
1	28851	233.774163830348	8795
1	28854	233.782122898	8789
1	28857	233.790087399081	8783
1	28860	233.798057341014	8777
1	28863	233.806032731238	8771
1	28867	233.814013577208	8765
1	28870	233.821999886392	8759
1	28873	233.829991666276	8753
1	28876	233.837988924359	8747
1	28884	233.957114862798	8656
1	28889	233.988619015263	8633
1	28893	234	8624
1	28967	234.5	8246
1	29056	235	9156
1	29111	235.5	9297
1	29196	236	9438
1	29271	236.5	9402
1	29340	237	8680
1	29367	237.5	9049
1	29489	238	9088
1	29518	238.5	8635
1	29555	239	8143
1	29577	239.5	8271
1	29620	240	8399
1	29651	240.5	8571
1	29683	241	8668
1	29714	241.5	8668
1	29752	242	8456
1	29775	242.5	8451
1	30013	243	8654
1	30094	243.5	8721
1	30131	244	9175
1	30172	244.5	8709
1	30218	245	8244
1	30276	245.5	8539
1	30350	246	9227
1	30411	246.5	9740
1	30438	247	9684
1	30439	247.004276934229	9683
1	30442	247.011506098744	9683
1	30445	247.014658979331	9682
1	30446	247.018735263259	9682
1	30449	247.021797465972	9681
1	30450	247.021888890506	9681
1	30453	247.025965174434	9681
1	30467	247.03367335137	9680
1	30473	247.041859893382	9679
1	30483	247.075033232565	9675
1	30488	247.137856323961	9668
1	30491	247.145096704598	9668
1	30503	247.219642766214	9659
1	30508	247.238204276532	9657
1	30523	247.431975823558	9635
1	30528	247.441393561652	9634
1	30535	247.5	9627
1	30570	248	9864
1	30613	248.5	8971
1	30614	248.5	8971
1	30644	249	9290
1	30671	249.5	9608
1	30705	250	8392
1	30743	250.5	8664
1	30781	251	9780
1	30814	251.5	9617
1	30815	251.5	9617
1	30841	252	8960
1	31064	252.5	8551
1	31164	253	9319
1	31268	253.5	9028
1	31332	254	9254
1	31396	254.5	9605
1	31462	255	9473
1	31521	255.5	8608
1	31560	256	9040
1	31584	256.5	8981
1	31723	257	8595
1	31762	257.5	8227
1	31810	258	9508
1	31832	258.5	9766
1	31973	259	9293
1	32012	259.5	8470
1	32042	260	8239
1	32088	260.5	8265
1	32116	261	9649
1	32150	261.5	9740
1	32151	261.507138486641	9740
1	32152	261.514325344957	9740
1	32156	261.521512203273	9741
1	32161	261.528698323795	9741
1	32165	261.535884444317	9741
1	32168	261.543070564839	9741
1	32171	261.550256685361	9742
1	32174	261.557442068239	9742
1	32177	261.564627451117	9742
1	32180	261.571812833995	9743
1	32183	261.578997479381	9743
1	32186	261.586182124767	9743
1	32189	261.593366770153	9744
1	32192	261.600550678199	9744
1	32195	261.607734586245	9744
1	32200	261.614918494291	9745
1	32203	261.622101665148	9745
1	32208	261.629284836005	9745
1	32211	261.636468006862	9745
1	32214	261.643651177719	9746
1	32217	261.650833611538	9746
1	32220	261.658016045357	9746
1	32223	261.665198479176	9747
1	32226	261.672380176108	9747
1	32229	261.67956187304	9747
1	32232	261.686743569972	9748
1	32235	261.693924530169	9748
1	32238	261.701105490366	9748
1	32241	261.708286450563	9748
1	32244	261.71546741076	9749
1	32247	261.722647634373	9749
1	32250	261.729827857986	9749
1	32255	261.737008081599	9750
1	32258	261.744187568778	9750
1	32261	261.751367055957	9750
1	32264	261.758546543136	9751
1	32267	261.765725294033	9751
1	32270	261.77290404493	9751
1	32273	261.780082795827	9752
1	32276	261.787260810593	9752
1	32279	261.794438825359	9752
1	32284	261.801616840125	9752
1	32289	261.808794854891	9753
1	32292	261.815972133677	9753
1	32295	261.823149412463	9753
1	32300	261.830326691249	9754
1	32303	261.837503234206	9754
1	32306	261.844679777163	9754
1	32311	261.85185632012	9755
1	32316	261.859032127398	9755
1	32319	261.866207934676	9755
1	32322	261.873383741954	9755
1	32325	261.880559549232	9756
1	32332	261.906378430957	9757
1	32339	261.951770064805	9759
1	32344	262	9761
1	32400	262.5	9782
1	32433	263	9803
1	32434	263	9803
1	32476	263.5	9568
1	32477	263.507770870337	9566
1	32479	263.515088453444	9565
1	32482	263.522406801588	9563
1	32485	263.529726680287	9561
1	32489	263.537048090181	9560
1	32494	263.544370265913	9558
1	32500	263.551693973802	9557
1	32505	263.559018448009	9555
1	32508	263.566344455335	9553
1	32513	263.573671996422	9552
1	32516	263.58100030463	9550
1	32519	263.588330147562	9549
1	32523	263.595660758097	9547
1	32526	263.602992904321	9545
1	32531	263.610326586877	9544
1	32534	263.617661037841	9542
1	32538	263.624997026103	9541
1	32541	263.632333783256	9539
1	32544	263.639672078675	9537
1	32547	263.647011913004	9536
1	32550	263.654352517031	9534
1	32555	263.661694660937	9533
1	32558	263.669037575025	9531
1	32561	263.676382029962	9529
1	32567	263.683728026394	9528
1	32570	263.691074793816	9526
1	32573	263.698423103705	9525
1	32576	263.70577218507	9523
1	32581	263.713122809873	9521
1	32584	263.720474978763	9520
1	32587	263.727827919939	9518
1	32590	263.735182406176	9516
1	32593	263.742538438122	9515
1	32600	263.763143749499	9510
1	32606	263.820546915928	9498
1	32612	263.828243833001	9496
1	32619	263.874569090907	9486
1	32625	263.894061240915	9482
1	32633	263.983683171122	9462
1	32637	264	9459
1	32709	264.5	9349
1	32794	265	8797
1	32832	265.5	8342
1	32864	266	8798
1	32898	266.5	9496
1	32924	267	9277
1	33069	267.5	9059
1	33092	268	8840
1	33128	268.5	9412
1	33166	269	8329
1	33192	269.5	9357
1	33219	270	9134
1	33394	270.5	9646
1	33402	270.644997664382	9609
1	33407	270.657649445617	9604
1	33416	270.826637236637	9532
1	33423	270.981929943268	9467
1	33428	271	9459
1	33454	271.5	9248
1	33483	272	9805
1	33582	272.5	9503
1	33640	273	9174
1	33712	273.5	8846
1	33747	274	8566
1	33779	274.5	9539
1	33808	275	9242
1	33832	275.5	8944
1	33954	276	8432
1	33998	276.5	9554
1	34036	277	9048
1	34037	277	9048
1	34076	277.5	9362
1	34109	278	9085
1	34159	278.5	8348
1	34383	279	9457
1	34478	279.5	9473
1	34510	280	8693
1	34609	280.5	8965
1	34652	281	9324
1	34710	281.5	9701
1	34749	282	8633
1	34810	282.5	9205
1	34845	283	8674
1	34981	283.5	9124
1	35021	284	8359
1	35051	284.5	8619
1	35079	285	9059
1	35128	285.5	9425
1	35158	286	8613
1	35188	286.5	8826
1	35222	287	8590
1	35262	287.5	9360
1	35264	287.501725942881	9360
1	35267	287.50920457536	9363
1	35270	287.516680811609	9365
1	35273	287.524155451225	9368
1	35276	287.531627697169	9370
1	35279	287.539098348183	9373
1	35285	287.546566608078	9375
1	35288	287.554033274745	9379
1	35293	287.561496756993	9382
1	35296	287.568957852708	9385
1	35299	287.576416563417	9388
1	35302	287.583872890643	9391
1	35305	287.59132683591	9394
1	35309	287.598778400739	9397
1	35313	287.606227586649	9400
1	35316	287.61367439516	9403
1	35319	287.621118827788	9406
1	35322	287.628560886049	9409
1	35325	287.636000571457	9412
1	35328	287.643437885524	9415
1	35332	287.650872829762	9418
1	35335	287.65830540568	9421
1	35339	287.665735614787	9424
1	35342	287.67316345859	9427
1	35345	287.680588938594	9430
1	35348	287.688012056303	9433
1	35351	287.69543281322	9436
1	35354	287.702851210846	9439
1	35357	287.710267250681	9442
1	35360	287.717680934223	9445
1	35366	287.725092262968	9448
1	35369	287.732501238413	9451
1	35375	287.739907862051	9454
1	35378	287.747312135374	9457
1	35383	287.754714059874	9460
1	35386	287.762113637041	9463
1	35390	287.769510868363	9466
1	35393	287.776905755327	9469
1	35396	287.784298299418	9472
1	35399	287.791688502121	9475
1	35402	287.799076364918	9478
1	35405	287.80646188929	9481
1	35410	287.813845076717	9484
1	35413	287.821225928678	9487
1	35416	287.82860444665	9490
1	35419	287.835980632108	9493
1	35422	287.843354486527	9496
1	35425	287.85072601138	9499
1	35428	287.858095208138	9502
1	35431	287.865462078271	9505
1	35434	287.872826623247	9508
1	35437	287.880188844534	9511
1	35440	287.887548743598	9514
1	35445	287.894906321904	9517
1	35450	287.902261580914	9520
1	35453	287.90961452209	9523
1	35456	287.916965146893	9526
1	35459	287.924313456782	9529
1	35462	287.931659453214	9532
1	35465	287.939003137645	9535
1	35470	287.946344511531	9537
1	35474	287.95368434586	9540
1	35477	287.961021872065	9543
1	35481	287.968357091598	9546
1	35485	287.975690005908	9549
1	35488	287.983020616443	9552
1	35492	287.990348924651	9555
1	35495	287.997674931977	9558
1	35498	288	9559
1	35593	288.5	9762
1	35597	288.6029239793	9804
1	35604	288.684790506075	9837
1	35611	288.803871459483	9777
1	35616	288.877912644636	9632
1	35622	288.917728306023	9554
1	35628	289	9392
1	35689	289.5	9002
1	35770	290	9393
1	35837	290.5	9640
1	35923	291	9474
1	35986	291.5	9102
1	36023	292	8032
1	36134	292.5	8201
1	36161	293	8369
1	36190	293.5	8538
1	36277	294	8549
1	36306	294.5	8270
1	36333	295	9091
1	36448	295.5	9732
1	36469	296	8420
1	36470	296	8420
1	36504	296.5	8559
1	36533	297	8382
1	36633	297.5	8293
1	36665	298	8703
1	36697	298.5	9188
1	36816	299	9273
1	36845	299.5	9107
1	36878	300	8758
1	36977	300.5	8132
1	37044	301	8786
1	37081	301.5	9453
1	37118	302	9498
1	37119	302.007656130373	9461
1	37122	302.015054925426	9425
1	37129	302.022481981129	9390
1	37132	302.029936720213	9354
1	37135	302.037420149762	9318
1	37138	302.044932491466	9282
1	37143	302.052473969596	9245
1	37147	302.060045629953	9209
1	37154	302.06764688959	9173
1	37157	302.075277980836	9136
1	37160	302.082939977333	9099
1	37164	302.090633130427	9062
1	37167	302.098357694541	9025
1	37170	302.106113927228	8988
1	37173	302.113902089222	8950
1	37176	302.121723318272	8913
1	37179	302.129577015119	8875
1	37182	302.137464339063	8837
1	37185	302.145385579303	8799
1	37190	302.153341028786	8761
1	37193	302.161330984271	8723
1	37196	302.169355746394	8684
1	37199	302.177416547868	8645
1	37202	302.18551371386	8606
1	37205	302.193647573958	8567
1	37208	302.20181846225	8528
1	37214	302.210026717409	8489
1	37217	302.218272682776	8449
1	37220	302.226557686919	8409
1	37223	302.234882101237	8369
1	37226	302.243246302456	8329
1	37232	302.251650672729	8289
1	37235	302.260095599741	8248
1	37241	302.268582505658	8207
1	37251	302.324121844051	8209
1	37257	302.372643220682	8243
1	37265	302.460646313205	8303
1	37270	302.5	8330
1	37298	303	8732
1	37321	303.5	8963
1	37400	304	8668
1	37437	304.5	8989
1	37475	305	9481
1	37513	305.5	9666
1	37514	305.507443641004	9667
1	37515	305.51468477062	9668
1	37519	305.521925151257	9669
1	37522	305.52916478307	9669
1	37525	305.536404414883	9670
1	37528	305.543643298027	9671
1	37531	305.550881432656	9672
1	37534	305.558118818926	9673
1	37537	305.565355456991	9673
1	37540	305.572592095056	9674
1	37545	305.57982798507	9675
1	37548	305.587063127189	9676
1	37551	305.594297521567	9676
1	37554	305.601531915945	9677
1	37560	305.608765562736	9678
1	37565	305.615998462095	9679
1	37568	305.623230614177	9679
1	37571	305.630462766259	9680
1	37574	305.637694171218	9681
1	37577	305.644924829208	9682
1	37581	305.652154740383	9682
1	37586	305.659384651558	9683
1	37589	305.666613816073	9684
1	37592	305.673842234082	9685
1	37595	305.681069905739	9685
1	37598	305.688297577396	9686
1	37601	305.695524502855	9687
1	37604	305.702750682271	9688
1	37608	305.709976115797	9688
1	37611	305.717201549323	9689
1	37614	305.724426237113	9690
1	37618	305.731650179321	9686
1	37621	305.73887710478	9638
1	37624	305.746140022398	9590
1	37629	305.753439292471	9541
1	37636	305.794262067209	9270
1	37641	305.817468104272	9116
1	37647	305.859786420415	8835
1	37651	305.867709453805	8783
1	37659	305.87927950381	8706
1	37669	305.937899554661	8335
1	37676	306	8492
1	37713	306.5	9719
1	37754	307	9770
1	37872	307.5	9696
1	37903	308	9836
1	37931	308.5	8434
1	38062	309	8596
1	38137	309.5	8790
1	38168	310	9399
1	38198	310.5	9968
1	38201	310.507055029228	9963
1	38202	310.514081025414	9958
1	38205	310.521110549415	9952
1	38208	310.528144311473	9947
1	38211	310.535181609151	9942
1	38214	310.542222446005	9937
1	38217	310.549266825596	9931
1	38220	310.556315461182	9926
1	38223	310.56336764736	9921
1	38229	310.570423387709	9915
1	38232	310.577483397795	9910
1	38235	310.584546969944	9905
1	38238	310.591614107753	9900
1	38241	310.598684814824	9894
1	38245	310.60575980977	9889
1	38250	310.612838381921	9884
1	38254	310.619920534896	9878
1	38262	310.651362042846	9855
1	38274	310.888522632895	9677
1	38282	311	9594
1	38310	311.5	9071
1	38342	312	8542
1	38475	312.5	8250
1	38505	313	8692
1	38545	313.5	8914
1	38679	314	9554
1	38737	314.5	9351
1	38766	315	9233
1	38807	315.5	9208
1	38968	316	9183
1	39001	316.5	9158
1	39028	317	9134
1	39141	317.5	9348
1	39166	318	9662
1	39246	318.5	8898
1	39278	319	9020
1	39374	319.5	9154
1	39409	320	9838
1	39447	320.5	9947
1	39452	320.507328308208	9948
1	39453	320.514364898477	9950
1	39456	320.521400074356	9951
1	39459	320.528434543254	9953
1	39462	320.535467598614	9955
1	39465	320.542499241005	9956
1	39468	320.549530177124	9958
1	39471	320.556559701125	9959
1	39474	320.563588519279	9961
1	39477	320.570615926166	9962
1	39480	320.577642627632	9964
1	39483	320.58466791868	9965
1	39486	320.591692504731	9967
1	39490	320.598715681213	9968
1	39495	320.605738153123	9970
1	39498	320.612759216313	9971
1	39501	320.619779575354	9973
1	39504	320.626798526522	9974
1	39507	320.633816773965	9976
1	39510	320.640833614382	9978
1	39515	320.647849048337	9979
1	39518	320.654863779272	9981
1	39521	320.66187710459	9982
1	39528	320.668889727311	9984
1	39533	320.67590094526	9985
1	39536	320.682911461034	9987
1	39539	320.689920572879	9988
1	39543	320.696928982971	9982
1	39546	320.703941605692	9934
1	39553	320.750095706168	9618
1	39561	320.80737173602	9350
1	39567	320.844577749749	9348
1	39572	320.868428845292	9347
1	39577	320.879840949758	9346
1	39582	320.889625758094	9346
1	39590	321	9339
1	39626	321.5	9472
1	39672	322	9206
1	39721	322.5	9069
1	39753	323	9028
1	39799	323.5	8488
1	39830	324	8406
1	40058	324.5	8579
1	40099	325	8753
1	40133	325.5	8328
1	40268	326	8197
1	40349	326.5	8246
1	40407	327	8294
1	40458	327.5	8485
1	40508	328	9280
1	40534	328.5	8590
1	40634	329	9263
1	40687	329.5	9936
1	40732	330	8496
1	40733	330	8496
1	40775	330.5	8376
1	40907	331	8290
1	40931	331.5	8317
1	40963	332	8396
1	40995	332.5	9503
1	41021	333	8334
1	41054	333.5	9730
1	41078	334	9607
1	41256	334.5	9372
1	41286	335	9137
1	41318	335.5	8899
1	41444	336	8658
1	41502	336.5	8416
1	41599	337	8922
1	41670	337.5	9351
1	41745	338	9228
1	41767	338.5	9105
1	41793	339	8982
1	41899	339.5	8859
1	41925	340	8736
1	41965	340.5	8695
1	42102	341	8748
1	42136	341.5	8904
1	42178	342	9045
1	42212	342.5	8536
1	42367	343	9321
1	42408	343.5	8906
1	42441	344	8825
1	42567	344.5	9680
1	42595	345	9368
1	42687	345.5	9492
1	42740	346	9412
1	42797	346.5	8580
1	42842	347	8337
1	42878	347.5	8396
1	42999	348	8397
1	43022	348.5	8356
1	43136	349	8316
1	43168	349.5	8402
1	43194	350	9002
1	43214	350.5	9020
1	43329	351	8991
1	43383	351.5	8962
1	43431	352	8932
1	43463	352.5	8903
1	43500	353	8837
1	43534	353.5	8539
1	43688	354	8536
1	43731	354.5	8641
1	43764	355	9908
1	43812	355.5	9923
1	43813	355.5	9923
1	43842	356	9229
1	44006	356.5	9562
1	44031	357	8891
1	44101	357.5	9259
1	44135	358	9028
1	44172	358.5	8796
1	44205	359	8725
1	44365	359.5	9041
1	44450	360	9356
1	44472	360.5	9534
1	44506	361	9358
1	44545	361.5	9182
1	44574	362	9207
1	44762	362.5	8333
1	44816	363	8058
1	44850	363.5	9506
1	44905	364	8519
1	45041	364.5	8826
1	45074	365	9394
1	45079	365.078850706159	9504
1	45086	365.149075889229	9116
1	45091	365.18166132234	8937
1	45096	365.195931063359	8858
1	45102	365.261165830367	8498
1	45109	365.301169470466	8277
1	45115	365.31545605144	8218
1	45121	365.358799919897	8239
1	45126	365.369516836	8245
1	45132	365.411535242766	8265
1	45137	365.478022942977	8298
1	45141	365.5	8309
1	45204	366	8618
1	45235	366.5	9091
1	45274	367	9145
1	45367	367.5	8843
1	45415	368	8378
1	45445	368.5	8667
1	45488	369	8957
1	45523	369.5	9246
1	45565	370	9536
1	45594	370.5	9825
1	45796	371	9286
1	45836	371.5	8301
1	45887	372	8136
1	45919	372.5	8149
1	46076	373	8161
1	46146	373.5	9443
1	46150	373.524057248628	9520
1	46157	373.682855838532	9117
1	46165	373.840273709868	8953
1	46170	373.859590123922	8949
1	46176	373.898592536744	8941
1	46182	374	8920
1	46237	374.5	9289
1	46265	375	8802
1	46280	375.5	9034
1	46373	376	8976
1	46457	376.5	8731
1	46483	377	8565
1	46531	377.5	9751
1	46564	378	9353
1	46565	378	9353
1	46591	378.5	9412
1	46625	379	9472
1	46834	379.5	8996
1	46871	380	9435
1	46897	380.5	9142
1	46931	381	9315
1	47070	381.5	9056
1	47121	382	8585
1	47185	382.5	8496
1	47261	383	8734
1	47300	383.5	8923
1	47333	384	8208
1	47445	384.5	8150
1	47532	385	8527
1	47552	385.5	9078
1	47587	386	9659
1	47617	386.5	8286
1	47656	387	8732
1	47681	387.5	8565
1	47844	388	8355
1	47872	388.5	8076
1	47916	389	9363
1	47940	389.5	9138
1	48064	390	8658
1	48104	390.5	8177
1	48170	391	8612
1	48210	391.5	8828
1	48237	392	8794
1	48268	392.5	8760
1	48378	393	8833
1	48412	393.5	8733
1	48451	394	9273
1	48489	394.5	9030
1	48520	395	8980
1	48561	395.5	9236
1	48586	396	9070
1	48762	396.5	8397
1	48789	397	8946
1	48829	397.5	9570
1	48866	398	9638
1	48867	398.007243377483	9644
1	48869	398.014501776488	9650
1	48874	398.021755662498	9656
1	48878	398.029005041123	9662
1	48881	398.03624991796	9668
1	48884	398.043490298597	9674
1	48888	398.050726188611	9680
1	48891	398.05795759357	9687
1	48894	398.065183772986	9693
1	48900	398.072405479372	9699
1	48903	398.079622718263	9705
1	48906	398.086835495182	9711
1	48909	398.094043815643	9717
1	48912	398.10124768515	9723
1	48915	398.108447109196	9729
1	48918	398.115642093264	9735
1	48921	398.122832642827	9741
1	48924	398.130018763349	9747
1	48927	398.137200460281	9753
1	48930	398.144377739067	9759
1	48933	398.151550605139	9765
1	48936	398.15871906392	9771
1	48939	398.165883120823	9777
1	48942	398.173042781251	9783
1	48945	398.180198050596	9789
1	48950	398.187348934241	9795
1	48953	398.194495437559	9802
1	48956	398.201636837273	9808
1	48959	398.208773868268	9814
1	48963	398.215906535886	9820
1	48966	398.223034845458	9826
1	48969	398.230158802307	9832
1	48974	398.237278411746	9838
1	48977	398.244393679077	9844
1	48984	398.266472791243	9862
1	48993	398.379553831741	8226
1	48998	398.424087487742	8210
1	49001	398.432613675318	8207
1	49008	398.462829157956	8196
1	49011	398.471369909542	8193
1	49017	398.5	8183
1	49077	399	9144
1	49165	399.5	9373
1	49254	400	9602
2	1221	10	8375
2	1293	10.5	8694
2	1355	11	9114
2	1410	11.5	9534
2	1470	12	8543
2	1537	12.5	9161
2	1582	13	9049
2	1627	13.5	8533
2	1666	14	9659
2	1696	14.5	9601
2	1713	15	9542
2	1947	15.5	9791
2	1973	16	8911
2	1974	16	8911
2	2012	16.5	8712
2	2036	17	8552
2	2197	17.5	8335
2	2249	18	8765
2	2322	18.5	9345
2	2422	19	8871
2	2458	19.5	9332
2	2550	20	8182
2	2604	20.5	8182
2	2665	21	8985
2	2700	21.5	9006
2	2817	22	9210
2	2845	22.5	9415
2	2937	23	9619
2	2976	23.5	9740
2	3010	24	9643
2	3011	24	9643
2	3049	24.5	9363
2	3050	24.5	9363
2	3084	25	8768
2	3126	25.5	9375
2	3153	26	9214
2	3194	26.5	8923
2	3230	27	9784
2	3231	27.005646540829	9780
2	3232	27.012804005042	9775
2	3235	27.019965130362	9769
2	3238	27.027130653957	9764
2	3241	27.034299846911	9759
2	3246	27.041472712983	9753
2	3249	27.048649991769	9748
2	3252	27.055830951966	9742
2	3255	27.063016334844	9737
2	3258	27.070205407454	9732
2	3261	27.077398173586	9726
2	3267	27.084595376958	9721
2	3270	27.091796282215	9715
2	3273	27.099001634763	9710
2	3276	27.106210697585	9705
2	3279	27.113423474504	9699
2	3283	27.120640713395	9694
2	3286	27.127861674814	9688
2	3289	27.13508710834	9683
2	3292	27.142316272855	9678
2	3295	27.149549172214	9672
2	3300	27.156786558484	9667
2	3303	27.1640276881	9661
2	3306	27.171273314847	9656
2	3310	27.178522693472	9651
2	3313	27.185775827862	9645
2	3316	27.193033474311	9640
2	3319	27.200294885099	9634
2	3322	27.207560818252	9629
2	3325	27.214830524348	9623
2	3328	27.222104763151	9618
2	3331	27.229382783529	9613
2	3334	27.236664589417	9607
2	3337	27.243950943117	9602
2	3340	27.251241091003	9596
2	3343	27.258535797131	9591
2	3347	27.26583430615	9585
2	3351	27.273137383876	9580
2	3354	27.280444273229	9574
2	3357	27.28775574179	9569
2	3360	27.295071030744	9563
[...]
24	21243	172.993388976894	0.77091157965712
24	21367	173.764300556551	0.35507037740995
24	21405	174.119370933961	0.084873665927266
24	21408	174.204244599888	0.0046550715228311
24	21409	174.208899671411	0.49441934450001
24	21454	174.703319015911	0.5121861448665
24	21566	175.215505160777	0.063084997244468
24	21574	175.278590158021	0.2687814011645
24	21589	175.547371559185	0.039810268028552
24	21592	175.587181827214	0.08001225258482
24	21595	175.667194079799	0.049721517522667
24	21598	175.716915597322	0.081633965769283
24	21602	175.798549563091	0.90361841462306
24	21676	176.702167977714	0.31764772302643
24	21699	177.01981570074	1.0433264721573
24	21851	178.063142172897	2.2317346131437
24	22074	180.294876786041	0.52072735775118
24	22140	180.815604143792	0.35467682983908
24	22175	181.170280973631	0.57090406167697
24	22211	181.741185035308	0.39737464014505
24	22291	182.138559675453	0.34492883609515
24	22328	182.483488511548	0.57448783974555
24	22358	183.057976351294	0.44631728155153
24	22371	183.504293632846	0.034450073237639
24	22385	183.538743706084	0.31811845473521
24	22418	183.856862160819	0.94234989991728
24	22494	184.799212060736	0.76481631468015
24	22570	185.564028375416	0.46890561881763
24	22725	186.032933994234	0.36539986861508
24	22741	186.398333862849	0.075213159664519
24	22743	186.473547022514	0.35106000764584
24	22771	186.82460703016	0.65209751938334
24	22903	187.476704549543	0.12760320387917
24	22915	187.604307753422	0.14398081670268
24	22927	187.748288570125	0.15981765642246
24	22932	187.908106226547	0.45904884966115
24	22973	188.367155076208	0.47421914657891
24	23066	188.841374222787	1.3052904992846
24	23173	190.146664722072	0.53320265831601
24	23267	190.679867380388	0.27751732683968
24	23306	190.957384707228	0.50913071405989
24	23359	191.466515421288	0.14773723574322
24	23379	191.614252657031	0.052549047866939
24	23381	191.666801704898	0.10744298756216
24	23385	191.77424469246	0.55801145421869
24	23531	192.332256146679	0.024588551617684
24	23541	192.356844698297	0.0017489821733949
24	23542	192.35859368047	0.022742159486953
24	23543	192.381335839957	0.29327663599977
24	23568	192.674612475957	0.0016177441527793
24	23569	192.67623022011	0.047052292905868
24	23572	192.723282513016	0.18667571970263
24	23583	192.909958232719	0.29517346698339
24	23609	193.205131699702	0.29317920124039
24	23631	193.498310900942	1.4107444744517
24	23829	194.909055375394	0.4366711673941
24	23854	195.345726542788	0.87110100823617
24	23979	196.216827551024	0.12111730293842
24	23986	196.337944853962	0.32181473987376
24	24015	196.659759593836	0.41855603244107
24	24065	197.078315626277	0.21425532777691
24	24110	197.292570954054	0.023579589072091
24	24111	197.316150543126	0.86469817522136
24	24216	198.180848718347	0.67241904547724
24	24265	198.853267763824	0.033164653901151
24	24269	198.886432417725	0.38542252335835
24	24392	199.271854941083	0.18192931604372
24	24416	199.453784257127	0.68721864598074
24	24460	200.141002903108	0.31398262785019
24	24476	200.454985530958	0.56424565327061
24	24575	201.019231184229	0.15522024799065
24	24588	201.17445143222	0.42496513654634
24	24616	201.599416568766	0.66759043782567
24	24657	202.267007006592	0.0904786610003
24	24665	202.357485667592	0.26387590733702
24	24728	202.621361574929	0.85118971685307
24	24852	203.472551291782	0.067340118261126
24	24867	203.539891410043	0.063648868175104
24	24872	203.603540278218	0.063179751851324
24	24879	203.666720030069	0.18202139419259
24	24890	203.848741424262	0.23633081847346
24	24938	204.085072242735	0.2166284115593
24	25015	204.301700654294	0.12439097265425
24	25028	204.426091626948	0.52759363820922
24	25069	204.953685265157	0.8974818834616
24	25235	205.851167148619	0.64731227050992
24	25330	206.498479419129	0.72492820312747
24	25375	207.223407622256	0.8301122726413
24	25511	208.053519894897	0.0068598200364742
24	25512	208.060379714933	0.3656648369731
24	25540	208.426044551906	0.069806340176523
24	25544	208.495850892083	0.050415583283099
24	25558	208.546266475366	0.34670816284691
24	25579	208.892974638213	0.090642244487986
24	25586	208.983616882701	0.099228205089715
24	25595	209.082845087791	1.2825278498323
24	25844	210.365372937623	0.23013758526662
24	25882	210.59551052289	0.63624359093771
24	25987	211.231754113828	0.31826037331347
24	26031	211.550014487141	0.26542531509607
24	26047	211.815439802237	0.034361940120751
24	26048	211.849801742358	0.12187269936731
24	26057	211.971674441725	0.028729433902882
24	26062	212.000403875628	0.32456716822482
24	26077	212.324971043853	0.46748858838759
24	26169	212.792459632241	0.54442286566012
24	26221	213.336882497901	0.02019503105369
24	26223	213.357077528955	0.54571983403531
24	26311	213.90279736299	0.080673193105829
24	26318	213.983470556096	1.1903970271242
24	26492	215.17386758322	1.0114861155507
24	26595	216.185353698771	0.38824363836894
24	26631	216.57359733714	0.40040206706113
24	26649	216.973999404201	2.2694835682868
24	26822	219.243482972488	0.04977310396354
24	26823	219.293256076452	0.31894039929634
24	26890	219.612196475748	1.3691907810205
24	27107	220.981387256769	0.13245200919087
24	27161	221.11383926596	0.15853734254335
24	27214	221.272376608503	0.28938849729747
24	27249	221.5617651058	0.17915261527732
24	27268	221.740917721077	0.081258429283608
24	27278	221.822176150361	0.38714098681922
24	27336	222.20931713718	1.5001436050186
24	27517	223.709460742199	0.29350141611935
24	27535	224.002962158318	0.91967488240254
24	27672	224.922637040721	0.2710121726133
24	27688	225.193649213334	0.33242171289684
24	27724	225.526070926231	0.096567731132438
24	27773	225.622638657363	0.098080783515282
24	27782	225.720719440878	0.014070579731852
24	27789	225.73479002061	0.69122707351149
24	27861	226.426017094121	0.11374978688671
24	27886	226.539766881008	0.25398808030553
24	27947	226.793754961314	1.0618200933627
24	28057	227.855575054677	0.0098949303852832
24	28058	227.865469985062	1.8167183769457
24	28239	229.682188362008	0.23709273401524
24	28250	229.919281096023	0.11050211255722
24	28263	230.02978320858	0.4800199990735
24	28287	230.509803207653	0.2850076516843
24	28304	230.794810859337	0.59650204025317
24	28350	231.39131289959	0.036103106195773
24	28353	231.427416005786	0.087420579757047
24	28361	231.514836585543	0.65637282513137
24	28408	232.171209410674	0.29125625584604
24	28429	232.46246566652	0.058144679059746
24	28443	232.52061034558	0.3193823292364
24	28460	232.839992674816	0.51109749755155
24	28644	233.351090172368	0.8197978112977
24	28914	234.170887983666	0.18267421941956
24	28944	234.353562203086	0.14958604996931
24	28968	234.503148253055	0.23550183982543
24	29001	234.73865009288	0.7629666353429
24	29112	235.501616728223	0.63944519669167
24	29219	236.141061924915	0.95053456824783
24	29343	237.091596493163	1.461192731164
24	29526	238.552789224327	0.98708917530709
24	29581	239.539878399634	0.32523680895236
24	29600	239.865115208586	0.28534558630218
24	29628	240.150460794888	0.40723488259491
24	29659	240.557695677483	0.20298876010975
24	29670	240.760684437593	0.37048617779308
24	29691	241.131170615386	0.29272540953896
24	29704	241.423896024925	0.32293712973962
24	29732	241.746833154665	0.40135675435577
24	29765	242.148189909021	0.35707556336752
24	29776	242.505265472389	0.0100422680683
24	29781	242.515307740457	2.3096156473619
24	30196	244.824923387819	1.4634911841582
24	30389	246.288414571977	0.12166062983189
24	30398	246.410075201809	0.071964663397568
24	30406	246.482039865207	0.073047797378865
24	30415	246.555087662586	0.1538006252386
24	30430	246.708888287825	0.43756906063834
24	30494	247.146457348463	0.69167996494545
24	30562	247.838137313408	1.0169581382904
24	30631	248.855095451698	0.37177665874411
24	30654	249.226872110442	0.0079974635380011
24	30656	249.23486957398	0.32749283684808
24	30679	249.562362410828	0.041382904376526
24	30682	249.603745315205	0.31477105179634
24	30699	249.918516367001	0.038768696026025
24	30703	249.957285063027	0.69085070058314
24	30755	250.64813576361	0.21999256706537
24	30776	250.868128330675	0.51658492927714
24	30809	251.384713259952	0.021356976276385
24	30810	251.406070236228	0.5459106969955
24	30837	251.951980933224	0.66951847489699
24	31115	252.621499408121	0.26062915793103
24	31151	252.882128566052	0.62829786290635
24	31270	253.510426428958	1.0907342257345
24	31417	254.601160654693	0.61741381631289
24	31476	255.218574471006	0.56540912175588
24	31539	255.783983592762	0.18109677206726
24	31557	255.965080364829	0.64604601547777
24	31632	256.611126380307	0.70213806776421
24	31741	257.313264448071	0.35916643008798
24	31777	257.672430878159	0.34432041977817
24	31814	258.016751297937	0.031841005588489
24	31816	258.048592303525	0.024946820126662
24	31817	258.073539123652	0.39539054733866
24	31831	258.468929670991	0.078571444487925
24	31877	258.547501115479	1.1009130867025
24	32028	259.648414202181	0.065264170537545
24	32029	259.713678372719	0.22608353049301
24	32038	259.939761903212	0.18008762726654
24	32056	260.119849530479	0.055248401373625
24	32062	260.175097931853	0.41264571115486
24	32096	260.587743643008	0.24067854840025
24	32109	260.828422191408	2.0477657384945
24	32428	262.876187929902	0.18797606154985
24	32443	263.064163991452	0.44602546639269
24	32478	263.510189457845	0.16766525542965
24	32564	263.677854713275	0.43493213235631
24	32655	264.112786845631	1.5917871697763
24	32849	265.704574015407	0.23349718356178
24	32861	265.938071198969	0.046797566944602
24	32862	265.984868765914	2.1470009073688
24	33102	268.131869673283	0.98779520089598
24	33177	269.119664874179	0.14183559818604
24	33183	269.261500472365	0.39211807390465
24	33203	269.65361854627	0.33062655736286
24	33218	269.984245103633	0.56248956489655
24	33397	270.54673466853	0.1332897395985
24	33411	270.680024408128	1.5498171121318
24	33548	272.22984152026	0.07237507385927
24	33556	272.302216594119	0.051539944876844
24	33565	272.353756538996	0.4736807127212
24	33620	272.827437251717	0.0036392190796904
24	33621	272.831076470797	0.86512942044849
24	33727	273.696205891245	1.2300228534756
24	33801	274.926228744721	0.064205739832016
24	33806	274.990434484553	0.63291897825359
24	33880	275.623353462807	0.16748074452581
24	33912	275.790834207333	0.080199763695101
24	33928	275.871033971028	0.19226136172316
24	33967	276.063295332751	0.50240506365498
24	34005	276.565700396406	0.55243036965231
24	34053	277.118130766058	0.44727958499423
24	34081	277.565410351052	0.12705968960486
24	34092	277.692470040657	0.024112191793954
24	34093	277.716582232451	0.69037768653214
24	34147	278.406959918983	0.50373677371768
24	34333	278.910696692701	5.6183095259853e-005
24	34334	278.910752875796	0.016724091869024
24	34342	278.927476967665	0.74089302537275
24	34485	279.668369993038	0.31836446441731
24	34507	279.986734457455	0.42028304750608
24	34591	280.407017504961	0.89686749130493
24	34696	281.303884996266	1.1901503007274
24	34808	282.494035296993	0.096030005608151
24	34815	282.590065302601	1.4666391129452
24	35030	284.056704415546	0.83504129313886
24	35072	284.891745708685	1.1616384404467
24	35164	286.053384149132	0.4525961098123
24	35189	286.505980258944	0.67679943586154
24	35242	287.182779694806	0.21335831244012
24	35252	287.396138007246	0.26422169921021
24	35338	287.660359706456	1.6431434944065
24	35656	289.303503200862	0.35052746019163
24	35725	289.654030661054	0.039941903704286
24	35727	289.693972564758	0.30905115163259
24	35771	290.003023716391	0.13438547086662
24	35780	290.137409187258	0.07964746058627
24	35799	290.217056647844	0.8634593983402
24	35945	291.080516046184	0.32476083939171
24	35976	291.405276885576	0.35459806175503
24	36004	291.759874947331	0.052803601803527
24	36008	291.812678549135	0.47920457190235
24	36109	292.291883121037	1.9175258221368
24	36285	294.209408943174	0.82181317403291
24	36354	295.031222117207	0.034848401446804
24	36384	295.066070518654	0.29728298239975
24	36428	295.363353501054	0.21228685777048
24	36452	295.575640358824	0.25667840667572
24	36466	295.8323187655	0.23207292766515
24	36477	296.064391693165	0.70857293063549
24	36524	296.7729646238	0.26859685433783
24	36550	297.041561478138	0.64204996223513
24	36642	297.683611440373	0.84099670443689
24	36706	298.52460814481	0.14293101431619
24	36780	298.667539159126	0.41356178647942
24	36822	299.081100945605	0.72657254962332
24	36865	299.807673495228	0.19078179284537
24	36877	299.998455288073	0.87614221627263
24	37023	300.874597504346	0.098237420956607
24	37042	300.972834925303	1.0818637242525
24	37146	302.054698649555	0.38754412532522
24	37263	302.44224277488	0.53527322828541
24	37294	302.977516003165	0.21650589883863
24	37310	303.194021902004	0.33713317660016
24	37334	303.531155078604	0.38030551403795
24	37392	303.911460592642	0.10764264877005
24	37402	304.019103241412	0.23398681526969
24	37421	304.253090056682	0.080064319320057
24	37425	304.333154376002	0.22291129711471
24	37443	304.556065673117	0.0040377536072892
24	37444	304.560103426724	0.68295304920104
24	37495	305.243056475925	0.0050185765158612
24	37496	305.248075052441	0.13214981289411
24	37506	305.380224865335	0.69096548361192
24	37680	306.071190348947	2.7465359419934
24	38043	308.81772629094	0.04761347272591
24	38046	308.865339763666	0.31987788076881
24	38103	309.185217644435	0.24222892483655
24	38120	309.427446569272	1.1410388972961
24	38228	310.568485466568	0.048986752140464
24	38253	310.617472218708	0.013527552191579
24	38260	310.6309997709	0.90061071927698
24	38314	311.531610490177	0.04822111253795
24	38321	311.579831602715	0.77611646630916
24	38448	312.355948069024	0.23739739455304
24	38478	312.593345463577	0.023320904732898
24	38479	312.61666636831	1.16567405545
24	38652	313.78234042376	0.96415783105016
24	38747	314.74649825481	0.0026893270310268
24	38748	314.749187581841	0.77837619535761
24	38815	315.527563777199	0.080342056206998
24	38854	315.607905833406	1.2028342528581
24	39018	316.810740086264	0.15011754374386
24	39025	316.960857630008	0.15340763138125
24	39072	317.114265261389	1.171845915002
24	39218	318.286111176391	1.2210991087434
24	39375	319.507210285134	1.5841589040078
24	39600	321.091369189142	0.010216523304567
24	39601	321.101585712447	0.22035169033593
24	39614	321.321937402783	0.19676358730396
24	39633	321.518700990087	0.23837851235725
24	39655	321.757079502444	0.025860860896297
24	39658	321.78294036334	0.12122794705081
24	39664	321.904168310391	0.42599595219481
24	39703	322.330164262586	0.2076844628398
24	39729	322.537848725426	1.0603452141135
24	39806	323.59819393954	0.21464585192944
24	39820	323.812839791469	0.020120378023654
24	39824	323.832960169493	0.8528741313007
24	40079	324.685834300794	0.092998468618923
24	40082	324.778832769413	0.087226109140612
24	40091	324.866058878554	0.60772006822627
24	40132	325.47377894678	0.36451554879618
24	40258	325.838294495576	0.11024930777276
24	40267	325.948543803349	0.13918940375857
24	40286	326.087733207108	1.186536129895
24	40452	327.274269337003	0.042025365108186
24	40454	327.316294702111	0.36336528453572
24	40476	327.679659986647	1.4095784654052
24	40653	329.089238452052	0.074477772252721
24	40662	329.163716224305	0.75409856062364
24	40727	329.917814784929	0.28062241843524
24	40745	330.198437203364	0.26921430569365
24	40771	330.467651509058	1.0366285444273
24	40932	331.504280053485	2.4470358763969
24	41077	333.951315929882	1.1709486287256
24	41298	335.122264558608	0.51797736498972
24	41381	335.640241923598	0.86826775814817
24	41508	336.508509681746	0.9470528557037
24	41667	337.45556253745	0.44663157626227
24	41725	337.902194113712	1.5501143010583
24	41897	339.45230841477	0.97297339036929
24	41958	340.425281805139	1.0550348158393
24	42131	341.480316620978	0.39747262873011
24	42172	341.877789249708	0.36056048033297
24	42201	342.238349730041	0.16105938286793
24	42209	342.399409112909	0.53443642663051
24	42363	342.93384553954	0.49143241666762
24	42396	343.425277956208	1.3907625123697
24	42582	344.816040468578	1.5578160604356
24	42777	346.373856529014	0.57656021921461
24	42837	346.950416748229	0.19340824854489
24	42858	347.143824996774	0.29216252596677
24	42875	347.435987522741	0.73863974968512
24	43009	348.174627272426	0.40036207518376
24	43057	348.57498934761	1.2078654295319
24	43183	349.782854777142	1.3370350410912
24	43342	351.119889818233	0.075286638794586
24	43345	351.195176457028	0.06855116734003
24	43346	351.263727624368	0.0024485821432459
24	43347	351.266176206511	0.23561912782949
24	43384	351.50179533434	1.0840945956059
24	43473	352.585889929946	0.0378308539793
24	43480	352.623720783925	0.085026293832572
24	43483	352.708747077758	0.17523744872464
24	43493	352.883984526483	0.017821069694754
24	43494	352.901805596178	0.13590619978367
24	43508	353.037711795962	0.092264721234244
24	43516	353.129976517196	0.38501549008513
24	43540	353.514992007281	0.11116144572111
24	43589	353.626153453002	0.24536219355938
24	43677	353.871515646561	1.4185352626029
24	43795	355.290050909164	0.0035532247234905
24	43796	355.293604133887	0.123595532421
24	43804	355.417199666308	0.41296707415453
24	43834	355.830166740463	0.20394152046965
24	43856	356.034108260933	1.0110624129403
24	44035	357.045170673873	0.36731221992826
24	44076	357.412482893801	0.19727972475832
24	44106	357.609762618559	0.13541092732596
24	44118	357.745173545885	0.02193286906458
24	44120	357.76710641495	1.1463487944796
24	44199	358.91345520943	0.32953104831154
24	44321	359.242986257742	1.0648854923116
24	44464	360.307871750054	0.71051923479393
24	44512	361.018390984848	0.32258965818171
24	44533	361.34098064303	0.015504793841218
24	44535	361.356485436871	0.12600193335655
24	44542	361.482487370228	0.43108790607207
24	44571	361.9135752763	0.04315650830884
24	44572	361.956731784609	0.53795844614212
24	44761	362.494690230751	1.1480419093798
24	44868	363.642732140131	0.094103198025389
24	44877	363.736835338156	0.037158968148255
24	44884	363.773994306304	0.044509714256847
24	44888	363.818504020561	0.047663291580192
24	44892	363.866167312141	0.83118256812267
24	45056	364.697349880264	0.33218944412703
24	45076	365.029539324391	3.7038598564159
24	45466	368.733399180807	0.71909322082134
24	45511	369.452492401628	0.32762071138667
24	45533	369.780113113015	0.14286064216486
24	45554	369.92297375518	0.37560109956159
24	45587	370.298574854742	0.17201329636286
24	45593	370.470588151105	0.56828776703813
24	45800	371.038875918143	1.7775461894221
24	46053	372.816422107565	0.32403516403927
24	46083	373.140457271604	0.15323575531675
24	46106	373.293693026921	0.26776044660488
24	46154	373.561453473526	0.42324584067622
24	46181	373.984699314202	0.33087417383087
24	46213	374.315573488033	0.56025576083974
24	46259	374.875829248873	1.4540494701924
24	46420	376.329878719065	2.3926199157039
24	46609	378.722498634769	0.42559386677972
24	46690	379.148092501549	0.40201290147133
24	46835	379.55010540302	0.16073188096938
24	46852	379.710837283989	1.5833131897035
24	47041	381.294150473693	0.15867166119711
24	47063	381.45282213489	0.66237525523226
24	47129	382.115197390122	0.069858293426741
24	47148	382.185055683549	1.8556554409565
24	47347	384.040711124506	1.9463696847322
24	47585	385.987080809238	1.5414286825303
24	47689	387.528509491768	0.29524914608307
24	47833	387.823758637851	1.1421194021732
24	47910	388.965878040024	1.6489313745637
24	48122	390.614809414588	0.25263740918159
24	48151	390.86744682377	0.5372758134456
24	48204	391.404722637216	0.00072606223793289
24	48205	391.405448699454	0.48806933174842
24	48232	391.893518031202	1.7183721210725
24	48416	393.611890152275	0.082234828637154
24	48422	393.694124980912	0.10450133177256
24	48432	393.798626312685	0.12685083625863
24	48441	393.925477148944	0.0072752855652131
24	48443	393.932752434509	0.13789974567392
24	48455	394.070652180183	1.6191618457797
24	48573	395.689814025963	0.42159079209589
24	48632	396.111404818059	0.65737221959568
24	48772	396.768777037655	1.8354933736684
24	49045	398.604270411323	0.21237240566715
24	49057	398.81664281699	0.14402839149256
24	49075	398.960671208483	0.06181664216932
24	49079	399.022487850652	0.38201254016014
24	49149	399.404500390812	0.11541719301933
24	49169	399.519917583831	0.37589434672765
24	49241	399.895811930559	0.16150167468631

