version 2
run Exponential-capacity-7-20210216-13:45:34-20120
attr configname Exponential-capacity
attr datetime 20210216-13:45:34
attr experiment Exponential-capacity
attr inifile aerocom.ini
attr iterationvars "$0=0.5, $1=10, $2=4, $3=0.5"
attr iterationvarsf 0.5,10,4,0.5-
attr measurement "$0=0.5, $1=10, $2=4, $3=0.5"
attr network Aerocom
attr processid 20120
attr repetition 1
attr replication #1
attr resultdir results
attr runnumber 7
attr seedset 1
param **.t 0.5s
param **.k 10ms
param **.X 4s
param **.m 0.5s
param **.tDistribution "\"exponential\""
param **.operationMode 0
param **.s "70 byte"
param **.dimPoolMax 10000
param **.dimPoolMin 8000
param **.nDL 10
param **.nA 1
param **.DLMaxCapacity 0
param **.trasmitting false

scalar Aerocom.aircraft[0].linkSelector responseTime:mean 0.61009369761105
attr "" ""
attr source computeResponseTime
scalar Aerocom.aircraft[0].linkSelector meanMalus:sum 32412
attr "" ""
attr source computeMeanMalus
scalar Aerocom.aircraft[0].linkSelector waitingTime:mean 0.60257815261922
attr "" ""
attr source computeWaitingTime
scalar Aerocom.aircraft[0].linkSelector serviceTime:mean 0.0073529090081768
attr "" ""
attr source computeServiceTime
scalar Aerocom.aircraft[0].linkSelector queueLength:mean 60.1972004423
attr "" ""
attr source computeQueueLength
scalar Aerocom.aircraft[0].dataLink[0] sentPackets:count 3280
attr source computeSentPackets
scalar Aerocom.aircraft[0].dataLink[0] actualCapacity:mean 9479.831529759
attr "" ""
attr source computeActualCapacity
scalar Aerocom.aircraft[0].dataLink[1] sentPackets:count 4796
attr source computeSentPackets
scalar Aerocom.aircraft[0].dataLink[1] actualCapacity:mean 9500.7628124438
attr "" ""
attr source computeActualCapacity
scalar Aerocom.aircraft[0].dataLink[2] sentPackets:count 4076
attr source computeSentPackets
scalar Aerocom.aircraft[0].dataLink[2] actualCapacity:mean 9379.3013557929
attr "" ""
attr source computeActualCapacity
scalar Aerocom.aircraft[0].dataLink[3] sentPackets:count 5229
attr source computeSentPackets
scalar Aerocom.aircraft[0].dataLink[3] actualCapacity:mean 9490.9990026596
attr "" ""
attr source computeActualCapacity
scalar Aerocom.aircraft[0].dataLink[4] sentPackets:count 4169
attr source computeSentPackets
scalar Aerocom.aircraft[0].dataLink[4] actualCapacity:mean 9395.6237144586
attr "" ""
attr source computeActualCapacity
scalar Aerocom.aircraft[0].dataLink[5] sentPackets:count 4289
attr source computeSentPackets
scalar Aerocom.aircraft[0].dataLink[5] actualCapacity:mean 9507.5515545061
attr "" ""
attr source computeActualCapacity
scalar Aerocom.aircraft[0].dataLink[6] sentPackets:count 2878
attr source computeSentPackets
scalar Aerocom.aircraft[0].dataLink[6] actualCapacity:mean 9442.931431706
attr "" ""
attr source computeActualCapacity
scalar Aerocom.aircraft[0].dataLink[7] sentPackets:count 3537
attr source computeSentPackets
scalar Aerocom.aircraft[0].dataLink[7] actualCapacity:mean 9432.7661795407
attr "" ""
attr source computeActualCapacity
scalar Aerocom.aircraft[0].dataLink[8] sentPackets:count 3908
attr source computeSentPackets
scalar Aerocom.aircraft[0].dataLink[8] actualCapacity:mean 9459.1361312314
attr "" ""
attr source computeActualCapacity
scalar Aerocom.aircraft[0].dataLink[9] sentPackets:count 3630
attr source computeSentPackets
scalar Aerocom.aircraft[0].dataLink[9] actualCapacity:mean 9360.0215958172
attr "" ""
attr source computeActualCapacity
scalar Aerocom.controlTower receivedPackets:count 39792
attr source computeReceivedPackets

