version 2
run Exponential-capacity-40-20210216-13:46:22-23204
attr configname Exponential-capacity
attr datetime 20210216-13:46:22
attr experiment Exponential-capacity
attr inifile aerocom.ini
attr iterationvars "$0=2, $1=50, $2=0.5, $3=4"
attr iterationvarsf 2,50,0.5,4-
attr measurement "$0=2, $1=50, $2=0.5, $3=4"
attr network Aerocom
attr processid 23204
attr repetition 1
attr replication #1
attr resultdir results
attr runnumber 40
attr seedset 1
param **.t 2s
param **.k 50ms
param **.X 0.5s
param **.m 4s
param **.tDistribution "\"exponential\""
param **.operationMode 0
param **.s "70 byte"
param **.dimPoolMax 10000
param **.dimPoolMin 8000
param **.nDL 10
param **.nA 1
param **.DLMaxCapacity 0
param **.trasmitting false

vector 0 Aerocom.aircraft[0].linkSelector responseTime:vector ETV
attr "" ""
attr source computeResponseTime
vector 1 Aerocom.aircraft[0].dataLink[4] tDistribution:vector ETV
attr "" ""
attr source computeTDistribution
vector 2 Aerocom.aircraft[0].packetGenerator arrivalTime:vector ETV
attr "" ""
attr source computeArrivalTime
vector 3 Aerocom.aircraft[0].linkSelector waitingTime:vector ETV
attr "" ""
attr source computeWaitingTime
vector 4 Aerocom.aircraft[0].linkSelector queueLength:vector ETV
attr "" ""
attr source computeQueueLength
vector 5 Aerocom.aircraft[0].dataLink[9] actualCapacity:vector ETV
attr "" ""
attr source computeActualCapacity
vector 6 Aerocom.aircraft[0].linkSelector serviceTime:vector ETV
attr "" ""
attr source computeServiceTime
vector 7 Aerocom.aircraft[0].dataLink[5] tDistribution:vector ETV
attr "" ""
attr source computeTDistribution
vector 8 Aerocom.aircraft[0].dataLink[0] tDistribution:vector ETV
attr "" ""
attr source computeTDistribution
vector 9 Aerocom.aircraft[0].dataLink[3] tDistribution:vector ETV
attr "" ""
attr source computeTDistribution
vector 10 Aerocom.aircraft[0].dataLink[7] tDistribution:vector ETV
attr "" ""
attr source computeTDistribution
vector 11 Aerocom.aircraft[0].dataLink[0] actualCapacity:vector ETV
attr "" ""
attr source computeActualCapacity
vector 12 Aerocom.aircraft[0].dataLink[1] actualCapacity:vector ETV
attr "" ""
attr source computeActualCapacity
vector 13 Aerocom.aircraft[0].dataLink[2] actualCapacity:vector ETV
attr "" ""
attr source computeActualCapacity
vector 14 Aerocom.aircraft[0].dataLink[3] actualCapacity:vector ETV
attr "" ""
attr source computeActualCapacity
vector 15 Aerocom.aircraft[0].dataLink[4] actualCapacity:vector ETV
attr "" ""
attr source computeActualCapacity
vector 16 Aerocom.aircraft[0].dataLink[5] actualCapacity:vector ETV
attr "" ""
attr source computeActualCapacity
vector 17 Aerocom.aircraft[0].dataLink[6] actualCapacity:vector ETV
attr "" ""
attr source computeActualCapacity
vector 18 Aerocom.aircraft[0].dataLink[7] actualCapacity:vector ETV
attr "" ""
attr source computeActualCapacity
vector 19 Aerocom.aircraft[0].dataLink[8] actualCapacity:vector ETV
attr "" ""
attr source computeActualCapacity
vector 20 Aerocom.aircraft[0].dataLink[8] tDistribution:vector ETV
attr "" ""
attr source computeTDistribution
vector 21 Aerocom.aircraft[0].dataLink[6] tDistribution:vector ETV
attr "" ""
attr source computeTDistribution
vector 22 Aerocom.aircraft[0].dataLink[1] tDistribution:vector ETV
attr "" ""
attr source computeTDistribution
vector 23 Aerocom.aircraft[0].dataLink[2] tDistribution:vector ETV
attr "" ""
attr source computeTDistribution
vector 24 Aerocom.aircraft[0].dataLink[9] tDistribution:vector ETV
attr "" ""
attr source computeTDistribution
0	1256	10.001162723415	0.008244023083
0	1263	10.078629266149	0.008242081714
0	1269	10.09428318024	0.008242081714
0	1274	10.127470777555	0.008241111373
0	1282	10.236442154499	0.008239171375
0	1288	10.266815294778	0.008238201718
0	1295	10.301798277713	0.00823723229
0	1301	10.31409239475	0.00823723229
0	1308	10.356550796762	0.00823626309
0	1313	10.366302747224	0.008235294118
0	1320	10.387262158275	0.008235294118
0	1323	10.395497452393	0.012646852373
0	1328	10.438119951818	0.008234325373
0	1337	10.549580615175	0.008231420508
0	1340	10.557812035683	0.010036082428
0	1350	10.607113505316	0.008230452675
0	1355	10.615342990385	0.014475155366
0	1358	10.623572475454	0.014969380415
0	1380	11.147588154678	0.008216926869
0	1385	11.174320759776	0.008216926869
0	1392	11.189914965067	0.008215962441
0	1395	11.198130927508	0.013914136863
0	1400	11.207299604887	0.008215962441
0	1405	11.219046075865	0.008215962441
0	1410	11.23523763135	0.00821499824
0	1415	11.300834640121	0.008214034264
0	1421	11.315334015703	0.008213070515
0	1427	11.367984811277	0.008212106992
0	1432	11.481992304	0.008209217779
0	1437	11.514589520595	0.008208255159
0	1442	11.604752781621	0.008206330598
0	1449	11.620816827989	0.008206330598
0	1452	11.629023158587	0.008502939317
0	1459	11.681534334622	0.008204406939
0	1472	11.951085025882	0.008198641368
0	1481	12.107005946477	0.007427843803
0	1487	12.12898616922	0.00742626777
0	1493	12.157576371608	0.007423904974
0	1501	12.197180815342	0.007420756917
0	1504	12.204600785662	0.011205068005
0	1511	12.234658869342	0.007417611529
0	1518	12.242075694941	0.011861187117
0	1521	12.249491734776	0.012333752834
0	1524	12.256906989013	0.015423649244
0	1529	12.347216271473	0.007408191343
0	1538	12.507782860914	0.007395668251
0	1543	12.520101773196	0.007394105841
0	1548	12.559007857799	0.007390983001
0	1553	12.645959419103	0.007384745226
0	1558	12.736793941265	0.007376962799
0	1564	13.05513160869	0.00735216889
0	1569	13.064449336018	0.007351396765
0	1577	13.301703156873	0.007408191343
0	1582	13.316789581245	0.007416039835
0	1587	13.325372668087	0.00741997032
0	1592	13.384282593262	0.007450771687
0	1597	13.416105269795	0.007466666667
0	1602	13.529126747727	0.007526072465
0	1607	13.590612077961	0.007558578987
0	1612	13.611451478968	0.00757002271
0	1619	13.632238357429	0.007580680095
0	1622	13.639823144513	0.011822502937
0	1627	13.695275015404	0.007614489285
0	1632	13.795129113225	0.007669551879
0	1637	13.864164386592	0.007707553402
0	1642	13.881359726256	0.007716900011
0	1647	13.966329920105	0.007763975155
0	1652	14.033930266702	0.007802050825
0	1658	14.128074591008	0.007844016136
0	1665	14.136677990975	0.007846653963
0	1668	14.144526404474	0.011440531283
0	1674	14.200315456453	0.007863401483
0	1679	14.218705494962	0.007867820614
0	1684	14.310804127934	0.007891770011
0	1690	14.351976940419	0.00790335328
0	1695	14.416935965096	0.007920343969
0	1700	14.543168530761	0.007953641632
0	1707	14.565419541246	0.007959972709
0	1711	14.573381324685	0.010937295094
0	1717	14.635279531691	0.007978117164
0	1724	14.661322108334	0.007985398129
0	1727	14.669309328781	0.008462445488
0	1732	14.70750478282	0.007998171846
0	1737	14.726340054818	0.008002743798
0	1742	14.778784900552	0.008017409231
0	1747	14.805992656299	0.008024762123
0	1752	14.824547662761	0.008029364533
0	1759	14.9294411297	0.008058017728
0	1764	15.021520179611	0.008083140878
0	1769	15.029869424845	0.008085942012
0	1774	15.064203737816	0.008095293165
0	1781	15.170298063601	0.008124419684
0	1786	15.23114091314	0.008141428239
0	1791	15.311377344967	0.008164217401
0	1796	15.368191057873	0.008180437069
0	1803	15.546349269629	0.008227550541
0	1808	15.595169638411	0.008218856405
0	1813	15.618085581816	0.00821499824
0	1819	15.924277551154	0.008159459144
0	1824	15.935742519673	0.008157557394
0	1829	15.944438240419	0.008156606852
0	1834	15.958194767193	0.008153756552
0	1861	16.507356031946	0.471702137363
0	1864	16.514713610252	0.391086542137
0	1869	16.522072735567	0.380433151662
0	1872	16.529433408543	0.219846470076
0	1875	16.536794855593	0.221609819551
0	1878	16.54415785128	0.168972115649
0	1881	16.551522396256	0.159471742752
0	1884	16.558888491173	0.133900836106
0	1887	16.566256136684	0.07874939611
0	1890	16.573624557737	0.069200634297
0	1893	16.580994530363	0.062951534098
0	1898	16.615113633761	0.007376185458
0	1903	16.674936401216	0.007387862797
0	1912	16.777812368556	0.007407407407
0	1915	16.785220559899	0.013522630618
0	1918	16.792630319611	0.016099598615
0	1923	16.915866170999	0.007433365191
0	1928	16.928032630202	0.007435734013
0	1933	16.950591850539	0.007439685408
0	1938	17.03972779796	0.007457121551
0	1943	17.120229949535	0.007473043664
0	1948	17.214541346306	0.007490636704
0	1953	17.278123218467	0.00750348376
0	1958	17.297017936684	0.007506702413
0	1963	17.343153628428	0.007515567962
0	1968	17.359533098758	0.007518796992
0	1973	17.372699531014	0.007522028799
0	1978	17.400881873873	0.00752688172
0	1983	17.430199827283	0.007532551383
0	1988	17.468974254397	0.007540665733
0	1995	17.520495491925	0.00755042606
0	1998	17.528047547163	0.010080138964
0	2005	17.601785314795	0.007566749541
0	2012	17.692476660737	0.007584787084
0	2017	17.771428595656	0.007600434311
0	2022	17.80969342333	0.00760786871
0	2027	17.833675142867	0.007612833061
0	2032	17.908265667678	0.007627765065
0	2037	17.934476080452	0.007632755425
0	2044	17.947601981809	0.007636085961
0	2047	17.955238900858	0.009689586337
0	2052	18.121261748704	0.007671232877
0	2057	18.150169597373	0.007677122176
0	2062	18.219703695499	0.007690617447
0	2067	18.316010510494	0.007710949548
0	2072	18.337025466389	0.007715198942
0	2078	18.511446795956	0.007751079615
0	2083	18.65981334111	0.007782101167
0	2088	18.723501637274	0.007795100223
0	2094	18.783798689722	0.007808142777
0	2099	18.810193296907	0.007813372028
0	2107	18.902017253398	0.00783260602
0	2117	18.909851612659	0.00817367502
0	2120	18.917687725947	0.013681547569
0	2125	18.925525594047	0.020402236498
0	2128	18.933365217745	0.025379386866
0	2131	18.941206597828	0.020645138295
0	2136	18.996297146891	0.007852815795
0	2141	19.018363192426	0.007858105074
0	2146	19.036536340197	0.00786163522
0	2151	19.112889324087	0.007877560207
0	2156	19.14926192483	0.007885546919
0	2161	19.179105590599	0.007891770011
0	2166	19.187603948899	0.007894440059
0	2171	19.220012353721	0.007900677201
0	2179	19.41078209362	0.007942811755
0	2184	19.447102357442	0.007950028393
0	2189	19.482043715264	0.007958162801
0	2194	19.505029545923	0.007962689114
0	2199	19.593354424121	0.007982666211
0	2206	19.608576690257	0.007985398129
0	2209	19.616563910704	0.012126525541
0	2215	19.693625893365	0.008004574042
0	2220	19.726225370652	0.008011903399
0	2228	19.841767279659	0.008037662189
0	2231	19.8498067881	0.012862004317
0	2236	19.867387084105	0.008043203493
0	2242	19.975223611808	0.008067304368
0	2275	20.507378517972	0.432486073988
0	2278	20.514760926747	0.410356082119
0	2283	20.52214723043	0.399469047834
0	2286	20.529537433133	0.403308616338
0	2289	20.536932320097	0.394021429468
0	2292	20.54433111515	0.397441201922
0	2297	20.551733822426	0.392874270331
0	2300	20.559140446064	0.361585514957
0	2303	20.566551774809	0.341737505876
0	2306	20.573967029046	0.345224057253
0	2309	20.581386212936	0.345919732928
0	2314	20.58881011791	0.343190540982
0	2317	20.596237961713	0.10306918943
0	2320	20.603669748527	0.081834258217
0	2324	20.61110548254	0.060853055616
0	2327	20.61854595873	0.033857399396
0	2332	20.640088472448	0.007452358139
0	2339	20.683884015158	0.007477034822
0	2345	20.877340977661	0.007588075881
0	2350	20.925816581773	0.007616974973
0	2355	20.943187849414	0.007626933973
0	2361	20.966527410196	0.007641087218
0	2366	20.996830340982	0.007658643326
0	2371	21.045073019171	0.007688083471
0	2376	21.070474512464	0.007703312424
0	2381	21.07903353122	0.007708402158
0	2386	21.156778093284	0.007755373366
0	2391	21.17290181699	0.007764836384
0	2398	21.220977423209	0.007795100223
0	2403	21.301179704168	0.007844895215
0	2408	21.345973404983	0.007872244714
0	2415	21.354286721656	0.007877560207
0	2418	21.362169604539	0.009105483069
0	2425	21.373590646845	0.007889990983
0	2430	21.381485977321	0.014214441408
0	2433	21.389385762898	0.008196066683
0	2438	21.40230219692	0.007907817442
0	2447	21.434972667172	0.007929315813
0	2450	21.442906476534	0.015221248122
0	2457	21.450845684882	0.023123166557
0	2461	21.458789398	0.015012694319
0	2464	21.466721409331	0.021405693334
0	2472	21.595057538038	0.007449978714
0	2477	21.626012777885	0.007452358139
0	2482	21.642214826731	0.007453151618
0	2489	21.651083556474	0.007453945267
0	2492	21.658538295558	0.01096798345
0	2497	21.71192216031	0.007457916045
0	2502	21.727958272746	0.007459505541
0	2508	21.807251030056	0.007465074118
0	2513	22.020795282337	0.007480230819
0	2518	22.063955338817	0.007483429549
0	2523	22.091420854735	0.007485830392
0	2528	22.150758520566	0.007489835224
0	2533	22.21625955089	0.007494646681
0	2539	22.241054559883	0.007496251874
0	2546	22.288806373749	0.007497857755
0	2552	22.296304231504	0.01262560832
0	2555	22.303802089259	0.010155756738
0	2560	22.33008509894	0.007499464324
0	2565	22.398182290898	0.007501071582
0	2570	22.421442282738	0.007501875469
0	2575	22.444187542131	0.007502679528
0	2581	22.489630488739	0.007504288165
0	2588	22.564609556363	0.007507507508
0	2591	22.572117063871	0.007808898564
0	2597	22.650647915825	0.007509923828
0	2602	22.66356866683	0.007510729614
0	2607	22.713867851002	0.007512341704
0	2613	22.79818227739	0.007515567962
0	2618	22.869674267012	0.007517989475
0	2623	22.885022644444	0.007517989475
0	2628	22.935837117614	0.007519604684
0	2633	22.962247514175	0.007521220587
0	2638	23.01547908502	0.007522837184
0	2646	23.152905818557	0.00752769115
0	2649	23.160433509707	0.015031435791
0	2654	23.169047061582	0.00752769115
0	2659	23.206955705124	0.00752931053
0	2664	23.214805355137	0.00752931053
0	2669	23.224639695822	0.007530120482
0	2674	23.285177782742	0.007531740908
0	2679	23.35847685003	0.007534983854
0	2686	23.400336224155	0.007535795026
0	2689	23.407872830529	0.013805214444
0	2698	23.448890217662	0.007537417896
0	2701	23.456428447255	0.011668670498
0	2704	23.463966676848	0.017059914685
0	2709	23.474190838966	0.007538229593
0	2714	23.501193762696	0.007539853511
0	2723	23.545039674232	0.007540665733
0	2726	23.552581152362	0.01486836547
0	2731	23.560122630492	0.017109712359
0	2734	23.567664108622	0.010497523874
0	2741	23.59955975244	0.007543103448
0	2746	23.660779709724	0.007544729468
0	2755	23.741504540342	0.00754798361
0	2758	23.749052523952	0.011920176653
0	2761	23.756601321536	0.015820556108
0	2766	23.765785703447	0.007548797584
0	2771	23.857076518146	0.007552055238
0	2793	24.507365319865	0.436226416793
0	2796	24.514731414782	0.384988799585
0	2799	24.522098284915	0.21494805555
0	2802	24.529465930426	0.21568724634
0	2805	24.536835127184	0.190182266435
0	2808	24.54420509981	0.159417199853
0	2813	24.551575848467	0.10025567658
0	2816	24.558948149678	0.014589545846
0	2822	24.601809139786	0.007377740304
0	2827	24.649846390839	0.007383966245
0	2832	24.681189528805	0.007387862797
0	2838	24.941590745975	0.007456327226
0	2843	25.038889815331	0.007486631016
0	2848	25.059233245408	0.007493042175
0	2853	25.068704063634	0.007495449192
0	2858	25.161716454215	0.007524454477
0	2863	25.249882812605	0.007552055238
0	2870	25.275958104556	0.007560211686
0	2873	25.283519949646	0.012973053196
0	2878	25.375250463345	0.007591367531
0	2883	25.476134778035	0.007622781226
0	2888	25.555722332169	0.007648601399
0	2895	25.612089984638	0.007666192093
0	2898	25.619758696294	0.00974688402
0	2904	25.647211554961	0.007677964243
0	2909	25.710061672758	0.007698229407
0	2914	25.76575110827	0.007716049383
0	2919	25.854339767393	0.007745076344
0	2924	25.885193503585	0.007755373366
0	2929	25.935571703342	0.007771733096
0	2934	26.011303925959	0.007796836712
0	2941	26.032111845705	0.007803790412
0	2944	26.039918246954	0.00958963753
0	2949	26.048753824397	0.007809885083
0	2954	26.084244998173	0.00782122905
0	2960	26.126038510651	0.007835236176
0	2967	26.228660999885	0.007870474477
0	2970	26.236534130017	0.01437340678
0	2979	26.361304324358	0.007914970602
0	2984	26.369221980732	0.013111136551
0	2987	26.377142324701	0.008586848223
0	2992	26.461219699938	0.007950028393
0	2997	26.475737173249	0.007954545455
0	3002	26.562413412696	0.007984487282
0	3009	26.679631459148	0.008025682183
0	3012	26.687659902777	0.014889518702
0	3017	26.701999865559	0.008033972225
0	3024	26.71235175027	0.008037662189
0	3027	26.720392182156	0.013150400308
0	3032	26.771393391186	0.008058017728
0	3037	26.834159141124	0.008080341683
0	3043	26.953695567188	0.008123476848
0	3048	26.980462531615	0.008132915069
0	3053	27.043410436002	0.008156606852
0	3058	27.109896742919	0.008180437069
0	3063	27.187730869284	0.008209217779
0	3070	27.220159890771	0.008220786847
0	3073	27.228383574982	0.011807015866
0	3080	27.259525799393	0.008235294118
0	3085	27.287775771819	0.008245965367
0	3091	27.314813089713	0.008256664308
0	3096	27.437751193047	0.008302692445
0	3101	27.454915780329	0.008308605341
0	3106	27.527172348569	0.008336310587
0	3111	27.642702221213	0.008380222674
0	3116	27.654218138305	0.008385241974
0	3121	27.709489052973	0.008406388856
0	3126	27.722678315432	0.008411439558
0	3131	27.80046389112	0.008441871684
0	3136	27.913873131288	0.008485877076
0	3159	28.507311468561	0.488881066002
0	3162	28.514622173522	0.428237657469
0	3165	28.521932115042	0.421150897781
0	3168	28.529241293282	0.401376689269
0	3171	28.5365497084	0.282510665713
0	3177	28.543857360556	0.105487031332
0	3180	28.551164249909	0.013549125376
0	3186	28.725658884079	0.007289388733
0	3193	28.760924709504	0.007285595337
0	3196	28.768209546636	0.011651879505
0	3201	28.805793878842	0.007281048471
0	3208	28.844602638173	0.007277263749
0	3211	28.85187914545	0.008449217864
0	3219	28.950177245213	0.007266687429
0	3224	29.021969035301	0.007259904584
0	3229	29.066847042933	0.007255389718
0	3234	29.076357425804	0.007254637786
0	3240	29.190028367157	0.007243377483
0	3246	29.228185514394	0.007239631813
0	3253	29.267920977884	0.007235142119
0	3256	29.275155372262	0.007710767927
0	3264	29.367004446276	0.007225433526
0	3267	29.374229134066	0.010664507421
0	3272	29.420899138146	0.007220216606
0	3277	29.467850567752	0.007215750954
0	3284	29.546159843131	0.007208320461
0	3291	29.579941454693	0.007204610951
0	3294	29.5871453242	0.012184437418
0	3300	29.638326843246	0.007198683669
0	3305	29.654234725939	0.007197203372
0	3310	29.732463512315	0.007189811011
0	3315	29.78201473868	0.007184645386
0	3320	29.98481191966	0.007165523595
0	3327	30.030236623916	0.00716112532
0	3330	30.037397016715	0.009930168455
0	3336	30.237763684134	0.007140671223
0	3342	30.287635997721	0.007136303395
0	3347	30.335605921675	0.007131214344
0	3352	30.378618478681	0.007127583749
0	3357	30.42094485462	0.007123231912
0	3362	30.47352271353	0.007118161481
0	3367	30.535403182586	0.007112375533
0	3372	30.574572803199	0.007108764091
0	3377	30.59396157702	0.007106598985
0	3382	30.634708730101	0.007102993404
0	3387	30.661564260691	0.007100111573
0	3393	30.763013109156	0.00709076175
0	3398	30.80533523075	0.007086454748
0	3403	30.835407422295	0.007083586319
0	3408	30.845268341379	0.007082869574
0	3414	30.883550176201	0.00708143652
0	3419	30.943630118039	0.007087172218
0	3425	31.002350690294	0.007092917216
0	3432	31.0322307753	0.007095793208
0	3435	31.039327287871	0.00950451162
0	3440	31.063509533087	0.007098671534
0	3445	31.09178753301	0.007101552196
0	3453	31.26195870163	0.007117437722
0	3458	31.269076863111	0.008848864496
0	3463	31.276195748497	0.013191745141
0	3466	31.283315357936	0.012897380043
0	3473	31.34162968947	0.007125407166
0	3476	31.348755822016	0.014145148563
0	3481	31.391187658165	0.007130487929
0	3486	31.402955924937	0.007131214344
0	3491	31.429221107033	0.007134121484
0	3496	31.441429805766	0.007134848639
0	3501	31.450422737369	0.007135575943
0	3506	31.486735157393	0.007139214686
0	3511	31.509351466656	0.007141399714
0	3517	31.551578564502	0.007145773785
0	3523	31.56643585207	0.007147233
0	3528	31.653296424277	0.007155269345
0	3533	31.700041849944	0.007159660428
0	3539	31.733391343159	0.007163323782
0	3544	31.889611373292	0.007178750897
0	3552	32.000651030355	0.00718907261
0	3574	32.507890662168	0.407390873861
0	3578	32.515131042805	0.38949988925
0	3581	32.522372172421	0.347631724408
0	3584	32.529613302037	0.28662439667
0	3587	32.536855180787	0.238362471986
0	3590	32.544097808826	0.205372411039
0	3593	32.551341186309	0.098886332466
0	3596	32.558585313392	0.057245407535
0	3601	32.565833315148	0.007244876837
0	3606	32.58159720889	0.007246376812
0	3611	32.615372347742	0.007250129467
0	3616	32.754091389276	0.007263671267
0	3621	32.823376999522	0.007270461155
0	3626	32.896793352178	0.007278020378
0	3631	32.910505114741	0.00727953411
0	3638	32.918373371558	0.007280291212
0	3641	32.925654420029	0.014066053464
0	3648	32.957420787801	0.007284079084
0	3651	32.964705624933	0.010232592202
0	3668	33.235256077065	0.00731223232
0	3676	33.270438410764	0.007316053512
0	3679	33.277755228993	0.012117849261
0	3684	33.306904811807	0.007319878699
0	3690	33.324941913716	0.007321409894
0	3695	33.375839971164	0.007326774126
0	3706	33.443357224853	0.007333682556
0	3717	33.486133557967	0.007337526205
0	3720	33.493471853386	0.012667968745
0	3723	33.500810918179	0.01612382408
0	3728	33.560685650308	0.007345225603
0	3733	33.585919496639	0.007348309889
0	3738	33.628521273532	0.00735216889
0	3743	33.652933787078	0.007354486237
0	3748	33.71872428185	0.00736144705
0	3754	33.73939988407	0.00736377025
0	3761	33.779421740823	0.007367645511
0	3767	33.816848456454	0.007371524853
0	3775	33.957039125498	0.007386303683
0	3782	33.995101354592	0.007390202703
0	3788	34.016366812734	0.007392544091
0	3793	34.055045792078	0.007396449704
0	3800	34.097770629689	0.007400359446
0	3809	34.161074973502	0.007407407407
0	3812	34.168483164845	0.012209865509
0	3817	34.190029326728	0.007410544146
0	3823	34.230341524614	0.007414468806
0	3829	34.276260698815	0.00741918389
0	3837	34.303447899691	0.007422330612
0	3840	34.3108710174	0.013029976637
0	3849	34.509489904251	0.007443641004
0	3855	34.536181555236	0.007446016381
0	3864	34.681773712579	0.007461891056
0	3876	34.804736558087	0.007474639616
0	3880	34.812211995934	0.007508867055
0	3887	34.923205655008	0.007487431811
0	3890	34.930693887785	0.012850346079
0	3898	35.022081869567	0.007497857755
0	3901	35.02958053052	0.008566479177
0	3907	35.048406755006	0.007500267867
0	3914	35.059114268639	0.007501875469
0	3917	35.066616948167	0.010494990843
0	3922	35.128393099936	0.007509118215
0	3927	35.149374677267	0.007511535572
0	3935	35.188639416013	0.007515567962
0	3938	35.189289280541	0.007861659456
0	3945	35.227225091773	0.007519604684
0	3948	35.234745504321	0.01242451505
0	3953	35.2610758072	0.007523645744
0	3964	35.416637987061	0.007534983854
0	3968	35.424173782087	0.014734942575
0	3974	35.49311945362	0.007539853511
0	3979	35.518038921891	0.00754147813
0	3987	35.556840713964	0.00754391637
0	4004	35.89926348941	0.00756593169
0	4018	36.203370474438	0.007108042242
0	4024	36.2891870224	0.007103714228
0	4029	36.398991030742	0.007098671534
0	4037	36.441521846968	0.007097232079
0	4040	36.448618359539	0.009872692967
0	4046	36.456778779346	0.007096512571
0	4051	36.469244329525	0.007095793208
0	4058	36.595819263456	0.007090043553
0	4066	36.691098271735	0.007140671223
0	4071	36.718709497428	0.00715673244
0	4076	36.826515407072	0.007219471947
0	4081	36.874835325557	0.007248627938
0	4086	36.907663241109	0.007268196449
0	4091	36.919021823931	0.007274994804
0	4096	36.931916429536	0.007282563462
0	4102	36.95180831092	0.007294706128
0	4107	37.024849612119	0.007339064793
0	4114	37.04601516624	0.00735216889
0	4117	37.053371971285	0.011571905317
0	4122	37.074275101699	0.007369196758
0	4129	37.083543703292	0.007375408282
0	4132	37.090923777093	0.01363134499
0	4138	37.102717934655	0.007387083157
0	4145	37.156743155247	0.007420756917
0	4150	37.164168635251	0.012954032255
0	4153	37.171598844358	0.011068363802
0	4160	37.48842545395	0.007634420329
0	4165	37.534685166912	0.007665352606
0	4170	37.585201916496	0.007699076111
0	4175	37.633558243812	0.007731389441
0	4180	37.661277169222	0.007750221435
0	4185	37.721169222627	0.007791629564
0	4190	37.748993906857	0.007810756528
0	4195	37.76626682703	0.007822977202
0	4200	37.803355018334	0.007848413499
0	4205	37.820635175283	0.007860752386
0	4210	37.888035483549	0.00790871088
0	4216	37.958474769731	0.007914970602
0	4221	38.046166179628	0.007904245709
0	4226	38.070732972937	0.007901569026
0	4231	38.10003898886	0.007898002934
0	4236	38.108309152368	0.007897111913
0	4241	38.14190071229	0.007893549842
0	4246	38.259720918786	0.007880220646
0	4255	38.276700347266	0.007877560207
0	4258	38.284577021059	0.015095776812
0	4261	38.292452808638	0.021570228772
0	4268	38.387538503614	0.007865168539
0	4271	38.395402788526	0.010295323624
0	4276	38.410253679853	0.007862518252
0	4281	38.441142304011	0.007858987313
0	4287	38.465188845617	0.00785634119
0	4292	38.488874694807	0.007853696847
0	4300	38.680617746166	0.007831729693
0	4305	38.728741316885	0.00782647585
0	4310	38.757432811261	0.007822977202
0	4315	38.867248142927	0.007810756528
0	4320	38.930159453979	0.007803790412
0	4325	38.99083305684	0.007796836712
0	4332	39.017413560503	0.007793364507
0	4335	39.025206057442	0.013336188937
0	4341	39.142050623143	0.007779506557
0	4346	39.150529864163	0.007778642071
0	4353	39.214080340456	0.007771733096
0	4356	39.221851210793	0.009060096402
0	4361	39.253321421006	0.007767421216
0	4368	39.315563722841	0.007760532151
0	4371	39.323323394718	0.011121158003
0	4376	39.343464479881	0.007757092199
0	4381	39.366060961858	0.007754514235
0	4386	39.407541883449	0.007750221435
0	4391	39.441265195916	0.007746790615
0	4396	39.574658716614	0.007731389441
0	4401	39.591351281038	0.007729681979
0	4406	39.663417035746	0.007722007722
0	4411	39.701660032177	0.007717750827
0	4416	39.733501381295	0.007714348689
0	4423	39.745263718957	0.007712648744
0	4426	39.75297551801	0.013168552952
0	4431	39.781608874687	0.007708402158
0	4436	39.817520894099	0.007705008255
0	4441	39.855056021068	0.007700770077
0	4446	39.909908330192	0.007694844454
0	4453	39.965847190771	0.007688927944
0	4457	39.973535274242	0.010728409921
0	4485	40.507405056596	0.476201820121
0	4488	40.514810113192	0.468840964865
0	4493	40.522215953226	0.410785000214
0	4496	40.529622576864	0.409810293644
0	4499	40.537029984271	0.389625258345
0	4504	40.544437391678	0.357615405239
0	4507	40.551845583021	0.334587676258
0	4510	40.559254558466	0.184118003177
0	4513	40.566663533911	0.08814852288
0	4516	40.574073293623	0.055505961871
0	4519	40.581483837769	0.040383868708
0	4524	40.610973799314	0.007412898443
0	4530	40.677955316411	0.007417611529
0	4535	40.749429663185	0.007423117709
0	4542	41.005811850085	0.007442058261
0	4547	41.02485323754	0.007443641004
0	4555	41.154248526674	0.007453151618
0	4558	41.161702471941	0.011080122644
0	4563	41.197919340349	0.007456327226
0	4568	41.235560591988	0.007459505541
0	4575	41.253762367865	0.007461095715
0	4578	41.26122346358	0.007772379727
0	4585	41.309600583757	0.007465074118
0	4588	41.317066454064	0.010237797653
0	4593	41.371946919017	0.007469853804
0	4598	41.381663583555	0.007470651014
0	4603	41.419094981166	0.007473043664
0	4608	41.464493007764	0.007477034822
0	4613	41.485382369081	0.007478632479
0	4619	41.525780267973	0.007481829842
0	4624	41.55616949217	0.007483429549
0	4631	41.612525422337	0.007488232777
0	4634	41.620013655114	0.010709967471
0	4639	41.676817252736	0.007493042175
0	4645	41.694032948103	0.007493844342
0	4650	41.765767910486	0.007499464324
0	4655	41.773595367353	0.007500267867
0	4661	41.787893013018	0.007501071582
0	4666	41.842800570365	0.007505897491
0	4671	41.872389434596	0.007507507508
0	4678	42.032397863115	0.007520412548
0	4683	42.039918275663	0.009922299114
0	4686	42.04743949625	0.008890182273
0	4695	42.174843735441	0.007530930608
0	4698	42.182375476349	0.013627568364
0	4701	42.189908027732	0.019129740066
0	4706	42.245930253607	0.007536606374
0	4711	42.355723808862	0.007544729468
0	4716	42.377585957695	0.007546356188
0	4721	42.386001783465	0.007547169811
0	4728	42.421262614694	0.00755042606
0	4733	42.428813040754	0.010138661899
0	4736	42.436364281315	0.014540352856
0	4741	42.578415991831	0.007562662057
0	4746	42.588202440688	0.007562662057
0	4751	42.603886953191	0.00756429652
0	4758	42.663347103315	0.007569204152
0	4763	42.682191872063	0.00757002271
0	4768	42.728666111641	0.007574118156
0	4773	42.748430638355	0.007575757576
0	4778	42.844444226695	0.007583143755
0	4783	42.863932892293	0.007584787084
0	4790	43.028683441029	0.007597134795
0	4795	43.189100003647	0.007610350076
0	4800	43.211385952346	0.00761200522
0	4805	43.252030875693	0.007615317668
0	4810	43.300446101754	0.007618633
0	4815	43.322715996542	0.007620291748
0	4820	43.352399636206	0.007622781226
0	4825	43.360185388782	0.007623611414
0	4830	43.395408091884	0.007626103061
0	4836	43.443429755323	0.007630259429
0	4841	43.46826948196	0.007631923245
0	4846	43.507746405083	0.007635253054
0	4853	43.697238921714	0.007650273224
0	4860	43.732035062988	0.007652782333
0	4865	43.780899415064	0.007656967841
0	4872	43.935028016561	0.007668711656
0	4875	43.94269756844	0.007687380873
0	4881	44.005338335204	0.007674597084
0	4905	44.512548140539	0.455062928411
0	4908	44.519762404169	0.452923905996
0	4911	44.526981876116	0.291430813113
0	4914	44.534205818324	0.244532697943
0	4917	44.541434982839	0.139143785437
0	4920	44.548669377217	0.103150222604
0	4923	44.555908260361	0.069566373773
0	4926	44.563152387444	0.060082236215
0	4929	44.570401015382	0.066589658113
0	4934	44.603578782915	0.007271971743
0	4939	44.685513955353	0.007329075489
0	4944	44.715304330172	0.007349853003
0	4949	44.849710224497	0.00744522442
0	4954	44.950275305247	0.007518796992
0	4961	45.016524495451	0.007568385771
0	4972	45.049533036973	0.007593014427
0	4980	45.077567883084	0.007613661083
0	4985	45.086507043671	0.007621121394
0	4991	45.110495009394	0.007639419404
0	4996	45.128099524709	0.007652782333
0	5002	45.196398899297	0.007705008255
0	5010	45.246934881828	0.007744219493
0	5013	45.254685103263	0.009788329537
0	5018	45.265191724112	0.007758811793
0	5024	45.342037572667	0.00781948168
0	5031	45.420632244522	0.007805530776
0	5039	45.455148569306	0.007783831869
0	5044	45.462927211377	0.008856906291
0	5047	45.4707015339	0.012996295235
0	5053	45.515366394978	0.007746790615
0	5062	45.601906654558	0.007693998681
0	5069	45.659098433204	0.007659481344
0	5074	45.683938346544	0.00764442503
0	5082	45.735903030419	0.007613661083
0	5087	45.743511726071	0.009577081491
0	5093	45.751116288809	0.012076834233
0	5097	45.758715897972	0.010130617221
0	5103	45.774841406162	0.00759054435
0	5112	45.872886830053	0.007532551383
0	5117	45.880415330806	0.011948083766
0	5120	45.88793897655	0.009989808666
0	5129	45.983379368137	0.007469056765
0	5136	46.060017646804	0.007425480004
0	5142	46.114627608955	0.007394886964
0	5154	46.196102731978	0.007358351729
0	5157	46.203459537023	0.013051352243
0	5160	46.210814796033	0.015882023173
0	5170	46.341481706709	0.007325240686
0	5175	46.370056278916	0.007319113342
0	5182	46.387714456771	0.007315288954
0	5188	46.465057402279	0.007297748123
0	5196	46.678095068823	0.007250129467
0	5206	46.711760764118	0.007242628039
0	5209	46.718055925649	0.0105905172
0	5215	46.815187302017	0.007220216606
0	5221	46.861227075831	0.007209805335
0	5227	46.88510119702	0.007204610951
0	5233	46.915147090694	0.007197943445
0	5238	46.964622093196	0.007187596262
0	5244	47.036761219985	0.007171396373
0	5249	47.048768432499	0.007169192954
0	5254	47.143174740215	0.00714869281
0	5262	47.235494295681	0.007129035543
0	5267	47.251175484858	0.007125407166
0	5273	47.342584580622	0.007105877576
0	5282	47.504586029426	0.007071421356
0	5288	47.546293922367	0.007062859449
0	5295	47.628975628407	0.007045797685
0	5301	47.648482109039	0.007041545116
0	5307	47.662736675405	0.007038712921
0	5312	47.684092648498	0.007042253521
0	5319	47.804234376809	0.007062859449
0	5325	47.849396483008	0.007070707071
0	5332	47.885802245468	0.007077140835
0	5335	47.892880817619	0.007283958495
0	5340	47.929440431041	0.007085020243
0	5345	47.965162657076	0.007091480093
0	5352	48.031526729146	0.007102993404
0	5358	48.049038449246	0.007106598985
0	5365	48.156051451683	0.007125407166
0	5371	48.176950567939	0.007129035543
0	5377	48.228716133244	0.007138486641
0	5384	48.248138306752	0.007142128354
0	5387	48.255281892832	0.008879900802
0	5393	48.343511359503	0.007158928206
0	5401	48.406511690659	0.00717066175
0	5406	48.41616210426	0.007172131148
0	5412	48.446601885961	0.007178014766
0	5417	48.460092769	0.007180223613
0	5423	48.485380775965	0.007184645386
0	5428	48.494367734966	0.007186858316
0	5437	48.51393726659	0.007190549563
0	5440	48.521128554858	0.013621040442
0	5445	48.546917718894	0.007196463452
0	5450	48.57464477608	0.007201646091
0	5455	48.675536004324	0.007219471947
0	5461	48.768431307024	0.007236638065
0	5467	48.910691282509	0.007263671267
0	5473	49.02723558032	0.007284837132
0	5478	49.043831594345	0.007287870901
0	5483	49.077248053303	0.007294706128
0	5489	49.170421953867	0.00731223232
0	5494	49.197781691066	0.007316818229
0	5499	49.231701256474	0.007323707889
0	5505	49.333031515587	0.007342914088
0	5510	49.348700100977	0.007345996432
0	5515	49.386298300567	0.007352941176
0	5520	49.400984061722	0.007356031946
0	5525	49.44076853697	0.007362995687
0	5530	49.492448152623	0.007373077733
0	5535	49.544851167687	0.007383187427
0	5542	49.57084621032	0.007388642601
0	5545	49.578235632889	0.010630027674
0	5551	49.664705969715	0.007406623638
0	5556	49.755887485046	0.007423904974
0	5564	49.784478244568	0.007429420505
0	5567	49.791909242445	0.009272312642
0	5573	49.880794366777	0.007448393275
0	5578	49.918801014519	0.007456327226
0	5583	49.957829462354	0.007463482248
0	5588	50.088045970288	0.007489033915
0	5594	50.198202852872	0.007506702413
0	5599	50.237981537086	0.00750348376
0	5605	50.312627598348	0.007497054728
0	5610	50.333569306636	0.007495449192
0	5615	50.349749741677	0.007494646681
0	5620	50.414590741946	0.007489033915
0	5625	50.422869516719	0.007488232777
0	5630	50.538499835564	0.007479431563
0	5635	50.629795094929	0.007472245944
0	5640	50.677677400828	0.007468259895
0	5647	50.744902568888	0.007462686567
0	5652	50.752365255455	0.0120499474
0	5655	50.759827146511	0.014062620011
0	5660	50.858737678339	0.007453945267
0	5667	50.886569928046	0.007451564829
0	5670	50.894020699733	0.013995286018
0	5675	50.944019687644	0.007446808511
0	5680	51.000713077807	0.007442849548
0	5685	51.029570805764	0.00744047619
0	5691	51.144713599867	0.007430997877
0	5696	51.163678256801	0.007429420505
0	5701	51.172244106743	0.007429420505
0	5706	51.270960039723	0.007421543681
0	5711	51.308513203805	0.007418397626
0	5716	51.3740838544	0.007412898443
0	5721	51.435127396714	0.007408191343
0	5726	51.443364928728	0.007408191343
0	5731	51.453013757121	0.007407407407
0	5736	51.463072741608	0.007406623638
0	5741	51.477136137839	0.007405056596
0	5748	51.538955137394	0.007400359446
0	5751	51.546354714561	0.011355471977
0	5756	51.597831426217	0.007395668251
0	5761	51.606488975074	0.007394886964
0	5768	51.635302403037	0.007392544091
0	5771	51.642694947128	0.00849773867
0	5776	51.675951599547	0.007389422569
0	5781	51.693120597094	0.007388642601
0	5787	51.833330496617	0.007377740304
0	5792	51.902754590179	0.007372301211
0	5817	52.507325240686	0.418473208709
0	5820	52.514650481372	0.366641471717
0	5823	52.521974955579	0.320076090595
0	5826	52.529298663468	0.255498848303
0	5831	52.536621605198	0.236938913362
0	5836	52.543944546928	0.190370767884
0	5839	52.55126672266	0.13151613387
0	5842	52.558588132554	0.059786712069
0	5845	52.565908776771	0.033492833325
0	5848	52.573229420988	0.032748886867
0	5853	52.617474559429	0.007316818229
0	5858	52.657878486876	0.007313760318
0	5865	52.666401794506	0.007312996239
0	5868	52.673714790745	0.013541324434
0	5873	52.683997712243	0.00731223232
0	5879	52.717825279754	0.00730917824
0	5884	52.730680262836	0.007308415118
0	5889	52.823381805381	0.007301554188
0	5895	53.009822277904	0.007287112222
0	5900	53.041780149307	0.007284837132
0	5905	53.09424913567	0.007281048471
0	5910	53.111767071012	0.00727953411
0	5915	53.124284062963	0.007278777165
0	5921	53.140337943475	0.007277263749
0	5927	53.154093882731	0.007276507277
0	5932	53.179097558852	0.007274238803
0	5937	53.225527620054	0.007271216371
0	5942	53.348085410583	0.007261410788
0	5948	53.450876087645	0.00725388601
0	5955	53.633918144833	0.007240380637
0	5958	53.641157776646	0.008554217245
0	5964	53.708830321186	0.007234394378
0	5969	53.823796883742	0.007226179416
0	5976	54.042922146836	0.007209805335
0	5981	54.069024587281	0.007207578254
0	5986	54.14084373581	0.007202387077
0	5991	54.149904165473	0.007201646091
0	5996	54.166623955769	0.007200905257
0	6001	54.188529486864	0.007198683669
0	6009	54.217081745016	0.007197203372
0	6012	54.224278208468	0.007755068824
0	6018	54.287928247809	0.007191288268
0	6023	54.30365272029	0.007190549563
0	6028	54.365428348413	0.007186120522
0	6033	54.419185207992	0.007181696932
0	6038	54.475861134103	0.007178014766
0	6043	54.509909499709	0.007175071751
0	6048	54.543367900559	0.007172866072
0	6053	54.600913312469	0.007168458781
0	6060	54.608636155937	0.007167724759
0	6063	54.615803880696	0.008853288302
0	6069	54.774600621498	0.007156000818
0	6076	54.899864818056	0.007164790174
0	6081	54.912304597904	0.007173601148
0	6087	54.938104409804	0.007192766132
0	6093	55.132338241193	0.007341373886
0	6102	55.178711316157	0.007378517972
0	6105	55.186095282402	0.007947222461
0	6108	55.193485485105	0.0149550925
0	6114	55.382520033581	0.007542290701
0	6119	55.41608883924	0.00757002271
0	6124	55.439698089511	0.007589721349
0	6130	55.583955907886	0.007712648744
0	6135	55.667311603552	0.007784697509
0	6144	55.698769791768	0.0078125
0	6147	55.706589273448	0.015266039419
0	6150	55.714415749298	0.016013618412
0	6155	55.735687335024	0.00784577449
0	6160	55.754901402215	0.007862518252
0	6167	55.76922827666	0.007875787579
0	6170	55.777111159543	0.008368278643
0	6176	55.835972888216	0.007935608208
0	6181	55.891423316996	0.007858105074
0	6186	55.945730575799	0.007777777778
0	6221	56.507399577167	0.473300130647
0	6224	56.51479837222	0.44971168651
0	6229	56.522196385325	0.454770120538
0	6234	56.529593616647	0.400850318318
0	6237	56.536990847969	0.407155576215
0	6242	56.544387297673	0.223118232652
0	6245	56.551782965924	0.217667321618
0	6248	56.559177852888	0.220167916876
0	6251	56.566572739852	0.216070642542
0	6255	56.573966845693	0.18211069453
0	6258	56.581360170577	0.18929083376
0	6261	56.588752714668	0.140338800281
0	6264	56.596144478132	0.126742398617
0	6267	56.603536241596	0.083984702445
0	6270	56.610927224597	0.082563869741
0	6273	56.6183174273	0.074746403098
0	6278	56.63391127244	0.007388642601
0	6283	56.737856300739	0.007380073801
0	6288	56.765309512227	0.007377740304
0	6294	56.779395800004	0.007376962799
0	6299	56.792911727042	0.007375408282
0	6304	56.88610806711	0.007367645511
0	6311	57.014530266297	0.007357578306
0	6316	57.04633987228	0.007354486237
0	6321	57.063510348744	0.007352941176
0	6326	57.071230842536	0.00735216889
0	6332	57.254550305219	0.007337526205
0	6337	57.341443788028	0.007330610535
0	6344	57.348826217172	0.007329842932
0	6347	57.356155292661	0.010588528626
0	6353	57.439466115103	0.007322175732
0	6358	57.518694727961	0.007316053512
0	6364	57.594575549091	0.00730917824
0	6370	57.640387798899	0.007305364225
0	6375	57.689599091298	0.007301554188
0	6381	57.794231045382	0.00729318608
0	6387	57.825091307521	0.007290907197
0	6392	57.906363991662	0.007284079084
0	6397	57.931925715165	0.007281805888
0	6402	57.957629223867	0.00727953411
0	6411	58.124835615011	0.007266687429
0	6414	58.132101548164	0.007270223633
0	6419	58.18300248943	0.007261410788
0	6424	58.198477094859	0.007260657608
0	6431	58.32050099601	0.007250880464
0	6434	58.327751125477	0.014434839596
0	6439	58.359716752358	0.007247127032
0	6445	58.412692666573	0.007243377483
0	6452	58.439627507014	0.007241129616
0	6455	58.446867887651	0.010011941679
0	6460	58.456243263576	0.007239631813
0	6465	58.466121701302	0.007238883144
0	6470	58.49671882853	0.007236638065
0	6475	58.510767654164	0.007235142119
0	6481	58.656198240502	0.007223942208
0	6486	58.682248430032	0.007221706386
0	6491	58.719205076276	0.007218727441
0	6496	58.777246269515	0.00721426363
0	6501	58.823759929212	0.007210548002
0	6506	58.853149115834	0.007208320461
0	6511	58.908938668922	0.007203869507
0	6516	58.943971548978	0.007200905257
0	6524	59.020367821426	0.007194984068
0	6527	59.02756206603	0.009497130694
0	6532	59.101495685507	0.00718833436
0	6538	59.122132834074	0.007187596262
0	6543	59.150859389128	0.007187596262
0	6548	59.1624350974	0.007187596262
0	6553	59.199832924509	0.00718833436
0	6558	59.26702176393	0.00718907261
0	6565	59.296947269951	0.00718907261
0	6568	59.304136342561	0.013487631189
0	6573	59.38783375686	0.007190549563
0	6578	59.435793138921	0.007190549563
0	6584	59.573910263157	0.007192027124
0	6589	59.633758697639	0.007192766132
0	6594	59.675297681448	0.007193505292
0	6599	59.710421511936	0.007193505292
0	6608	59.722153522159	0.007194244604
0	6611	59.729347766763	0.012113640651
0	6616	59.736542011367	0.014866142022
0	6619	59.743736255971	0.007603394174
0	6624	59.840280930758	0.007194984068
0	6629	59.853859925928	0.007194984068
0	6634	59.905782995212	0.007195723684
0	6639	59.92136583316	0.007195723684
0	6659	60.507202387077	0.491226328358
0	6662	60.514404774154	0.483157459784
0	6665	60.521607161231	0.328734891208
0	6668	60.528809548308	0.155865485452
0	6671	60.536012676524	0.116109279005
0	6674	60.54321580474	0.045002764795
0	6679	60.567993052741	0.007203128216
0	6684	60.678773974025	0.007204610951
0	6689	60.693074417214	0.007204610951
0	6695	60.75557650149	0.007205352548
0	6700	60.789244871953	0.007205352548
0	6705	60.810528627183	0.007206094297
0	6710	60.929457337987	0.007206836199
0	6715	61.071698980068	0.007209062822
0	6720	61.102358101313	0.007209062822
0	6725	61.135484649983	0.007209062822
0	6730	61.169159941575	0.007209805335
0	6736	61.179414990423	0.007209805335
0	6742	61.198536496972	0.007209805335
0	6748	61.263911254395	0.007210548002
0	6753	61.354030008608	0.007212033794
0	6759	61.369038332369	0.007212033794
0	6764	61.428761493439	0.007212776919
0	6769	61.515281932467	0.007213520198
0	6774	61.571671366681	0.00721426363
0	6779	61.639117975808	0.007215007215
0	6784	61.695248543405	0.007215750954
0	6791	61.712387167595	0.007215750954
0	6794	61.719602918549	0.010894908028
0	6799	61.746700754242	0.007216494845
0	6804	61.813559629452	0.007217238891
0	6809	61.876340010503	0.007217238891
0	6814	61.961661606455	0.007218727441
0	6820	62.016795695255	0.007219471947
0	6827	62.140584710582	0.007220216606
0	6834	62.177973910359	0.007220961419
0	6837	62.185194871778	0.010413810269
0	6842	62.194051039788	0.007220961419
0	6847	62.229628976815	0.007221706386
0	6852	62.249236163496	0.007221706386
0	6857	62.257066162468	0.007221706386
0	6862	62.316405174152	0.007222451506
0	6867	62.329466036086	0.007222451506
0	6874	62.359997521639	0.007223196781
0	6877	62.36722071842	0.009591811712
0	6882	62.428120468979	0.007223942208
0	6887	62.4666571913	0.007223942208
0	6893	62.524276950323	0.00722468779
0	6898	62.636091336422	0.007226179416
0	6903	62.658067127278	0.007226179416
0	6910	62.666364579155	0.007226179416
0	6913	62.673590758571	0.009234410267
0	6918	62.706468144412	0.007226925459
0	6923	62.763563626421	0.007227671657
0	6928	62.812232080482	0.007227671657
0	6933	62.834203316005	0.007228418009
0	6940	62.983638233453	0.007229911175
0	6945	63.02525465088	0.007229911175
0	6952	63.073885521422	0.00723065799
0	6955	63.081116179412	0.00778502186
0	6960	63.127124375707	0.007231404959
0	6965	63.135016823824	0.007231404959
0	6970	63.1433261027	0.007231404959
0	6977	63.170895260072	0.007232152082
0	6982	63.195280135688	0.007232152082
0	6988	63.250619987067	0.007232899359
0	6995	63.279198970459	0.007232899359
0	6998	63.286431869818	0.008217975408
0	7003	63.314389577097	0.007233646791
0	7010	63.388850371205	0.007234394378
0	7015	63.424618315824	0.007234394378
0	7020	63.519932583915	0.007235890014
0	7025	63.542698609597	0.007235890014
0	7030	63.598531482344	0.007236638065
0	7035	63.659572464776	0.00723738627
0	7040	63.728809797032	0.007238134629
0	7045	63.807239415896	0.007238883144
0	7050	63.820861376396	0.007238883144
0	7057	63.833625569147	0.007238883144
0	7060	63.84086520096	0.009195652978
0	7065	63.851846599068	0.007239631813
0	7070	63.871805568526	0.007239631813
0	7108	64.507178014766	0.450064919576
0	7111	64.514356765663	0.450536132162
0	7116	64.521536252842	0.456339732385
0	7119	64.528716476455	0.436585280366
0	7122	64.535897436652	0.405793787637
0	7125	64.543079133584	0.341384875459
0	7128	64.550261567403	0.345243977193
0	7131	64.55744473826	0.335925700854
0	7134	64.564628646306	0.337446660262
0	7139	64.571813291692	0.247788178432
0	7142	64.57899867457	0.209246647008
0	7145	64.586184795092	0.186268844137
0	7148	64.593371653408	0.18254254967
0	7153	64.60055924967	0.180898942026
0	7156	64.60774758403	0.137630532991
0	7159	64.61493665664	0.093419367797
0	7162	64.622126467651	0.054905503408
0	7165	64.629317755919	0.033237471431
0	7171	64.769384606779	0.007206094297
0	7176	64.789427842277	0.007208320461
0	7181	64.85919509604	0.007215750954
0	7186	64.895522895672	0.007220216606
0	7192	64.971878741051	0.007228418009
0	7199	65.207834782034	0.00725388601
0	7203	65.21508941982	0.009629324194
0	7209	65.282415021289	0.007262164125
0	7214	65.321897819381	0.007266687429
0	7219	65.339275788019	0.007268951194
0	7224	65.362547765983	0.007271216371
0	7230	65.493729088812	0.007285595337
0	7235	65.519819914114	0.007288629738
0	7240	65.529998634984	0.007290147886
0	7245	65.682244726254	0.007306889353
0	7252	65.708472211167	0.00730994152
0	7255	65.715782916128	0.008495389409
0	7260	65.737908630647	0.007312996239
0	7265	65.790281839469	0.007319113342
0	7270	66.002668859018	0.007342914088
0	7279	66.101856623099	0.007353713625
0	7282	66.109211109336	0.01448176928
0	7285	66.116567141282	0.015912988003
0	7291	66.160401126935	0.007360672976
0	7296	66.2219002226	0.007367645511
0	7302	66.25743517785	0.007371524853
0	7307	66.269855964537	0.007373077733
0	7312	66.278332995891	0.007373854419
0	7317	66.297468886654	0.007376185458
0	7322	66.348791291409	0.007382408775
0	7327	66.440346071127	0.007392544091
0	7335	66.522831527746	0.0074019245
0	7338	66.530234235022	0.012683001822
0	7343	66.597793680885	0.007410544146
0	7350	66.677502160861	0.00741997032
0	7353	66.684922917778	0.010800534171
0	7358	66.768143941331	0.007430209107
0	7363	66.847414939675	0.007439685408
0	7368	66.869072235841	0.007442058261
0	7373	66.890299919842	0.007444432628
0	7378	66.938968031966	0.007449978714
0	7384	67.034708316559	0.007461095715
0	7389	67.070142433709	0.007465074118
0	7394	67.111434911825	0.007469853804
0	7402	67.126341019112	0.007471448394
0	7405	67.133814062776	0.010779085324
0	7411	67.206903784384	0.007481030245
0	7418	67.275187501532	0.007489033915
0	7421	67.282677336756	0.014064835647
0	7426	67.317566305746	0.007494646681
0	7431	67.356166718123	0.007498660953
0	7436	67.386192517172	0.007502679528
0	7441	67.548312849373	0.007521220587
0	7446	67.599188232523	0.00752769115
0	7452	67.644192764305	0.007532551383
0	7457	67.673519922607	0.007536606374
0	7464	67.692807273356	0.007539041465
0	7469	67.700347126867	0.013197679764
0	7472	67.7078877926	0.009434766097
0	7477	67.827930333763	0.007554500324
0	7483	67.994933712917	0.007574937777
0	7517	68.50723738627	0.502908408995
0	7520	68.514475520899	0.467730624157
0	7523	68.521713655528	0.458589085864
0	7526	68.528952538672	0.465362261663
0	7529	68.536191421816	0.470050995618
0	7532	68.543431053629	0.467632214081
0	7535	68.550671434266	0.411687285872
0	7538	68.557911814903	0.395105161209
0	7541	68.565152944519	0.282251354576
0	7544	68.572394823269	0.25964347458
0	7549	68.579636702019	0.235801753318
0	7552	68.586879330058	0.220699772166
0	7555	68.594121958097	0.143808564921
0	7560	68.60136533558	0.023257679541
0	7563	68.608609462663	0.010566267312
0	7568	68.623963131473	0.007244876837
0	7573	68.648249760614	0.007246376812
0	7579	68.733904192456	0.007251631617
0	7584	68.751151752065	0.00725313439
0	7589	68.858327487723	0.007259904584
0	7594	68.875801754516	0.007260657608
0	7599	68.903156484363	0.007262164125
0	7607	68.944355235588	0.007265179035
0	7610	68.951621168741	0.014217624644
0	7615	68.964392155141	0.007266687429
0	7622	68.984961283066	0.00726744186
0	7625	68.992229479515	0.011132610207
0	7630	69.12123879108	0.007276507277
0	7635	69.179845002063	0.007280291212
0	7640	69.27286949025	0.0072863537
0	7645	69.291324811951	0.007287112222
0	7650	69.33233710825	0.007290147886
0	7655	69.357241106701	0.007291666667
0	7661	69.411098849658	0.007294706128
0	7666	69.42140736799	0.007295466389
0	7673	69.520039446586	0.007301554188
0	7676	69.527341762463	0.012072629042
0	7681	69.54510482163	0.007303839733
0	7686	69.598214612995	0.007306889353
0	7691	69.617673557635	0.007308415118
0	7696	69.645189114586	0.00730994152
0	7701	69.695483941817	0.007312996239
0	7707	69.830193389961	0.007322175732
0	7716	69.873950291437	0.007324474207
0	7719	69.881275532123	0.013694429798
0	7722	69.888601539449	0.016656406438
0	7727	69.966394483819	0.007330610535
0	7734	69.993897859468	0.007332146224
0	7739	70.001230773778	0.013729400995
0	7744	70.008564456334	0.014423479226
0	7747	70.01589813889	0.012261615268
0	7754	70.044564850532	0.007335988262
0	7757	70.051900838794	0.013975341705
0	7762	70.084329956707	0.007338295419
0	7767	70.119936948898	0.007340604027
0	7772	70.14251366637	0.007342143906
0	7777	70.164340140446	0.007343684431
0	7782	70.198038665675	0.007345996432
0	7787	70.217201280745	0.007346767422
0	7793	70.276854647331	0.007350624803
0	7799	70.460108378035	0.007362995687
0	7804	70.468061462841	0.007362995687
0	7809	70.511207696928	0.007366094917
0	7814	70.529763979724	0.007367645511
0	7821	70.660234850586	0.007421543681
0	7827	70.692236932995	0.00744047619
0	7832	70.802197822656	0.007508312775
0	7837	70.854390788571	0.007540665733
0	7842	70.875146796803	0.007553685119
0	7847	70.942018343642	0.007595486111
0	7852	70.99505251052	0.007629427793
0	7858	71.012826902947	0.007641087218
0	7863	71.023682570431	0.00764776576
0	7869	71.055086373525	0.007667871618
0	7874	71.077846437247	0.007682177349
0	7879	71.092979696911	0.007692307692
0	7887	71.150742240622	0.007729681979
0	7890	71.158477047252	0.008840490421
0	7895	71.199460416963	0.007762253271
0	7902	71.212466824849	0.007770870337
0	7905	71.220242874616	0.01110799633
0	7912	71.38705985011	0.007888212756
0	7915	71.394953399952	0.01171370562
0	7921	71.476685155246	0.007950028393
0	7928	71.550438130557	0.00800091439
0	7933	71.599577200029	0.008035816783
0	7938	71.659995735986	0.00807847663
0	7943	71.675880502828	0.008090614887
0	7948	71.728206142177	0.008128193219
0	7953	71.805269303149	0.008184262832
0	7958	71.817754567713	0.008193842912
0	7964	71.990088758717	0.008335317933
0	7991	72.507066424389	0.448731172071
0	7996	72.514132848778	0.448144795525
0	7999	72.521199273167	0.412199042106
0	8002	72.528265697556	0.414608159479
0	8005	72.535332121945	0.413718176338
0	8008	72.542398546334	0.411887640528
0	8013	72.549464970723	0.409867596387
0	8016	72.556531395112	0.303631767083
0	8019	72.563597819501	0.262213326518
0	8022	72.57066424389	0.254091057165
0	8025	72.577730668279	0.069696869304
0	8028	72.584797092668	0.03749674739
0	8033	72.598469875278	0.007066424389
0	8038	72.776963964467	0.007065711113
0	8043	72.794453694322	0.007065711113
0	8049	72.933317943215	0.007065711113
0	8055	72.996275107065	0.007065711113
0	8060	73.036786873964	0.007065711113
0	8065	73.048145323435	0.007065711113
0	8070	73.083169341815	0.007065711113
0	8075	73.134442404889	0.007065711113
0	8080	73.155160251	0.007065711113
0	8089	73.181873850057	0.007065711113
0	8092	73.18893956117	0.013005328806
0	8095	73.196005272283	0.018506707449
0	8100	73.217781322479	0.007065711113
0	8105	73.254106092081	0.007065711113
0	8110	73.268635718377	0.007065711113
0	8117	73.304049839459	0.007065711113
0	8120	73.311115550572	0.01382227953
0	8130	73.425836560531	0.007065711113
0	8133	73.432902271644	0.011632606667
0	8138	73.490378378448	0.007064997981
0	8143	73.607806100333	0.007064997981
0	8148	73.625914292227	0.007064997981
0	8153	73.63395556233	0.007064997981
0	8158	73.685758912865	0.007064997981
0	8163	73.696551160791	0.007064997981
0	8168	73.710935387271	0.007064997981
0	8173	73.746518881444	0.007064997981
0	8178	73.799606415422	0.007064997981
0	8183	73.846059836693	0.007064997981
0	8188	73.892054875058	0.007064997981
0	8193	73.900041913799	0.007064997981
0	8198	73.947700786005	0.007064997981
0	8203	73.969131423759	0.007064997981
0	8208	73.977916162963	0.007064997981
0	8213	74.18825191205	0.007064997981
0	8219	74.250263758937	0.007064997981
0	8225	74.327991542352	0.007064284993
0	8230	74.366571148224	0.007064284993
0	8235	74.378298832392	0.007064284993
0	8241	74.446097746509	0.007064284993
0	8252	74.608784630433	0.007064284993
0	8255	74.615848915426	0.011843619281
0	8258	74.622913200419	0.017246021957
0	8263	74.678759359133	0.007064284993
0	8268	74.7000378106	0.007064284993
0	8273	74.850086813385	0.007064284993
0	8279	75.108857009191	0.007063572149
0	8284	75.152909338067	0.007063572149
0	8289	75.19384950392	0.007063572149
0	8294	75.201399306416	0.007063572149
0	8299	75.244135768014	0.007063572149
0	8304	75.37283795009	0.007063572149
0	8310	75.491976160928	0.007063572149
0	8315	75.532538878123	0.007063572149
0	8320	75.59775641424	0.007063572149
0	8325	75.614002512288	0.007063572149
0	8330	75.654420243503	0.007063572149
0	8335	75.703081878356	0.007063572149
0	8340	75.807083341806	0.007063572149
0	8348	75.904995196161	0.007063572149
0	8353	75.91205876831	0.01074911364
0	8356	75.919122340459	0.01208147787
0	8361	75.984551715096	0.007064997981
0	8391	76.507075710098	0.488578255556
0	8394	76.514152135492	0.463599928843
0	8397	76.521228560886	0.420592539687
0	8400	76.52830498628	0.420025652634
0	8405	76.535381411674	0.296838025157
0	8408	76.542457837068	0.269530058849
0	8411	76.549534977903	0.27466039225
0	8414	76.556612118738	0.187966626766
0	8419	76.563689259573	0.159637624724
0	8422	76.570766400408	0.103793385804
0	8425	76.577843541243	0.044915518322
0	8428	76.584921397664	0.023233509134
0	8433	76.622661760055	0.007078572151
0	8440	76.688846273304	0.007080004046
0	8445	76.787663372744	0.00708143652
0	8451	76.801778893187	0.007082152975
0	8458	76.855198746935	0.007082869574
0	8461	76.862282333254	0.008113013921
0	8468	76.911186917309	0.007084303208
0	8471	76.918271220517	0.011226328406
0	8476	76.96119790769	0.007085020243
0	8481	76.972737276913	0.007085737423
0	8486	76.981734754806	0.007085737423
0	8494	77.131461918897	0.007088607595
0	8499	77.227905084246	0.00709076175
0	8506	77.296427544322	0.007092198582
0	8511	77.33269705925	0.007092917216
0	8519	77.420285380408	0.007095073991
0	8522	77.427380454399	0.013111031502
0	8528	77.494766463149	0.007110930516
0	8534	77.580664140535	0.007139214686
0	8539	77.590773195901	0.007142857143
0	8544	77.649117381398	0.007162590811
0	8549	77.697034413658	0.007178750897
0	8554	77.7506133328	0.007197203372
0	8561	77.818219065862	0.007220216606
0	8564	77.825442262643	0.011785898293
0	8570	77.864911931441	0.007236638065
0	8575	77.926047748141	0.007257646449
0	8580	77.946808256407	0.007265179035
0	8585	77.967440601445	0.007271971743
0	8590	78.004151313758	0.007284837132
0	8596	78.088409515712	0.007314524556
0	8601	78.170279083059	0.007343684431
0	8606	78.178765585059	0.007346767422
0	8611	78.197814024877	0.007353713625
0	8616	78.218252017075	0.007360672976
0	8624	78.260405155973	0.007376185458
0	8627	78.267783673945	0.009313839642
0	8634	78.313456090601	0.007394886964
0	8639	78.320854103706	0.013866566211
0	8642	78.328254463152	0.011756736798
0	8647	78.343449607548	0.007405840034
0	8652	78.356755539654	0.007410544146
0	8658	78.416872902205	0.007432575918
0	8663	78.499997202767	0.007462686567
0	8668	78.527224898659	0.007473043664
0	8673	78.597966445463	0.007499464324
0	8678	78.615659921783	0.007505897491
0	8683	78.623301668209	0.007508312775
0	8688	78.760994897283	0.007560211686
0	8693	78.805239208417	0.007577397705
0	8698	78.870123251127	0.007602085143
0	8703	78.892262278922	0.007610350076
0	8710	79.070444200083	0.007678806494
0	8715	79.080699938149	0.007683020525
0	8720	79.098751306361	0.007689772602
0	8725	79.165530393216	0.007716049383
0	8730	79.176319744699	0.007720304401
0	8736	79.285190847371	0.007763114118
0	8741	79.457921662835	0.00783260602
0	8748	79.491131754744	0.007846653963
0	8751	79.498981048308	0.011556733072
0	8757	79.520132770826	0.007858105074
0	8762	79.597135176332	0.007889990983
0	8767	79.608654877017	0.007894440059
0	8773	79.755856674099	0.007955449483
0	8780	79.859073917216	0.007996344528
0	8785	79.922398623591	0.008016491067
0	8790	79.949506937279	0.008024762123
0	8796	79.992238594504	0.008038585209
0	8829	80.507202387077	0.500842608077
0	8832	80.514404774154	0.485026210489
0	8835	80.521607161231	0.484111904779
0	8838	80.528809548308	0.473799163593
0	8841	80.536011935385	0.422634877034
0	8844	80.543214322462	0.426364612546
0	8847	80.550416709539	0.391419988582
0	8850	80.557619096616	0.374811294361
0	8853	80.564821483693	0.34969276044
0	8856	80.57202387077	0.321944587739
0	8859	80.579226257847	0.294131680113
0	8862	80.586428644924	0.287029505868
0	8867	80.593631032001	0.180647265045
0	8870	80.600833419078	0.013157081565
0	8875	80.619866158067	0.007202387077
0	8880	80.946559449023	0.007203128216
0	8885	81.11052113595	0.007203128216
0	8891	81.127609122092	0.007203128216
0	8896	81.181523351314	0.007203128216
0	8901	81.227369404813	0.007203128216
0	8906	81.239042751326	0.007203128216
0	8911	81.346231204834	0.007203869507
0	8916	81.419161245128	0.007203869507
0	8921	81.462979863222	0.007203869507
0	8926	81.494399457462	0.007203869507
0	8931	81.516082279676	0.007203869507
0	8936	81.540639249104	0.007203869507
0	8941	81.634137197427	0.007203869507
0	8946	81.663152503584	0.007203869507
0	8951	81.700768437579	0.007203869507
0	8956	81.731666311737	0.007203869507
0	8963	81.779955765863	0.007209805335
0	8968	81.915142517911	0.007280291212
0	8973	81.985903097288	0.007318348144
0	8979	82.016782278768	0.007334450964
0	8984	82.033795027723	0.007343684431
0	8989	82.048841955956	0.00735216889
0	8997	82.106821767503	0.007383187427
0	9003	82.215463757505	0.007442849548
0	9008	82.230970976606	0.007451564829
0	9015	82.30785449021	0.007494646681
0	9020	82.360727883045	0.007524454477
0	9025	82.405847254044	0.007549611734
0	9030	82.420682861321	0.007558578987
0	9035	82.451661554702	0.007575757576
0	9041	82.531248529035	0.00762195122
0	9046	82.590688574324	0.007656967841
0	9051	82.612033938115	0.007668711656
0	9057	82.726861525019	0.007737371504
0	9064	82.888437788358	0.007835236176
0	9069	82.900213139544	0.00784225857
0	9074	82.909739870161	0.007848413499
0	9080	82.984148563826	0.007894440059
0	9087	83.046667805836	0.007768283209
0	9092	83.093872871596	0.007811628166
0	9098	83.190504994493	0.007901569026
0	9103	83.231070215187	0.007939208348
0	9108	83.333666509354	0.008038585209
0	9113	83.432423254529	0.008135750814
0	9118	83.469161382611	0.008172796264
0	9126	83.753307963683	0.008461259519
0	9131	83.793153216903	0.008452064719
0	9136	83.840270245131	0.008439836026
0	9144	83.857688117629	0.008435767655
0	9147	83.866121852569	0.015639888571
0	9153	83.956009216605	0.008411439558
0	9160	84.007502508625	0.008399328054
0	9195	84.514870154136	0.443933429526
0	9198	84.522240126762	0.404137764203
0	9201	84.529612427973	0.375498078849
0	9204	84.536987059241	0.374535036705
0	9207	84.54436402204	0.346955511562
0	9210	84.551743317844	0.273248195505
0	9213	84.55912494813	0.154680019932
0	9216	84.566508914375	0.137350926905
0	9219	84.573895218058	0.10358701562
0	9224	84.581283860659	0.108372205391
0	9227	84.58867484366	0.110835839342
0	9230	84.596068168544	0.104870620689
0	9233	84.603463836795	0.106542060196
0	9236	84.6108618499	0.103343096259
0	9239	84.618262209346	0.037989840279
0	9244	84.679282116191	0.00741918389
0	9249	84.716603529228	0.007430997877
0	9254	84.762398870495	0.00744522442
0	9260	84.803049592772	0.007458710709
0	9266	84.829377460149	0.007466666667
0	9271	84.857749924019	0.007476236249
0	9278	84.876048202189	0.007481829842
0	9281	84.883532431848	0.01381806144
0	9286	84.897617512361	0.007489033915
0	9293	84.978931048195	0.007514761138
0	9296	84.986448230326	0.010096127851
0	9304	85.007902833262	0.007524454477
0	9308	85.015429714982	0.01371198643
0	9316	85.040451838196	0.007534983854
0	9331	85.112818024431	0.007558578987
0	9337	85.141882180833	0.007568385771
0	9345	85.209151682795	0.007589721349
0	9349	85.216744697222	0.008006299504
0	9354	85.242683541329	0.007601259637
0	9369	85.407874235967	0.007656130373
0	9372	85.415532879293	0.01476149023
0	9385	85.568777458508	0.007789895393
0	9393	85.631357579453	0.00796812749
0	9396	85.639349359337	0.015468760137
0	9408	85.761736664161	0.008118765948
0	9411	85.76985166532	0.013428164773
0	9417	85.885823431617	0.008056162965
0	9426	85.910213807294	0.008044127787
0	9430	85.918253315735	0.009918569453
0	9436	86.116543844847	0.007941910597
0	9442	86.136375456189	0.007932011331
0	9449	86.169228784467	0.007915865656
0	9454	86.184471877394	0.00790871088
0	9461	86.31238876693	0.007846653963
0	9466	86.369163249713	0.00781948168
0	9472	86.390058156767	0.007809885083
0	9479	86.424527086026	0.007793364507
0	9484	86.458704296089	0.007777777778
0	9489	86.510370252869	0.007753655295
0	9494	86.598577935437	0.007712648744
0	9504	86.71932020762	0.007656967841
0	9509	86.773033722649	0.007632755425
0	9514	86.812313966296	0.007615317668
0	9520	86.830609721778	0.007607041947
0	9525	86.842285143578	0.007602085143
0	9531	86.872770908062	0.007588075881
0	9538	86.933700966901	0.0075610283
0	9545	86.982602096117	0.007539041465
0	9550	87.007103261003	0.007528500753
0	9556	87.03270700595	0.007517182131
0	9561	87.094549784737	0.007489835224
0	9567	87.105592802571	0.00748502994
0	9572	87.115616437483	0.007481030245
0	9577	87.128339594558	0.007475437847
0	9582	87.158722830022	0.007462686567
0	9588	87.226161387861	0.007433365191
0	9593	87.237288367683	0.00742863207
0	9598	87.249097844789	0.007423904974
0	9604	87.289053565037	0.007406623638
0	9609	87.299307009842	0.0074019245
0	9619	87.453554036226	0.007337526205
0	9624	87.47047767275	0.007329842932
0	9629	87.47937523101	0.007326007326
0	9643	87.704996513361	0.007233646791
0	9648	87.723876719559	0.007226179416
0	9660	87.961801511524	0.007130487929
0	9666	87.976720517497	0.007124681934
0	9686	88.212171585112	0.209896710644
0	9689	88.219348863898	0.189888156614
0	9693	88.226529087511	0.184772625027
0	9696	88.231058416491	0.148345396257
0	9699	88.23371152133	0.121702603502
0	9702	88.238242324537	0.079869622954
0	9707	88.272819471469	0.007196463452
0	9712	88.33049495798	0.007217983089
0	9717	88.37384479496	0.007233646791
0	9722	88.394385140184	0.007241129616
0	9732	88.509855029293	0.007284079084
0	9737	88.561147117854	0.007303077726
0	9743	88.667339222684	0.007342914088
0	9748	88.69591948411	0.007353713625
0	9755	88.780096506613	0.007385524372
0	9758	88.787485149214	0.013395730322
0	9763	88.889197706414	0.007427843803
0	9768	88.94820225862	0.007450771687
0	9773	88.984179376385	0.007465074118
0	9779	89.043637569706	0.007488232777
0	9784	89.052885711868	0.007491438356
0	9789	89.071805887991	0.007499464324
0	9794	89.14742442198	0.00752931053
0	9800	89.231722890933	0.007562662057
0	9809	89.475570531373	0.007661996497
0	9814	89.490473642154	0.007667871618
0	9819	89.544775052637	0.007690617447
0	9824	89.58720299036	0.007708402158
0	9829	89.601403029141	0.007714348689
0	9834	89.627767197436	0.007725416621
0	9840	89.759462936853	0.007780371235
0	9845	89.803351793741	0.007799442897
0	9850	89.932071785975	0.007854578097
0	9856	89.980390560222	0.007875787579
0	9865	90.109309711356	0.007885546919
0	9868	90.117195258275	0.009480321972
0	9875	90.169978854363	0.007882882883
0	9878	90.177861737246	0.013664072731
0	9883	90.311359963257	0.007876673793
0	9888	90.37572866732	0.007873130132
0	9893	90.388976973686	0.007873130132
0	9898	90.40087978417	0.007872244714
0	9905	90.44366046977	0.007870474477
0	9908	90.451530059427	0.013016527639
0	9914	90.697418113741	0.007858105074
0	9919	90.79504030596	0.007853696847
0	9924	91.05871340301	0.007841380083
0	9929	91.069369066323	0.007841380083
0	9935	91.150085839433	0.007836990596
0	9941	91.251777168041	0.00783260602
0	9946	91.295988094169	0.007830853563
0	9951	91.30755413351	0.007829977629
0	9958	91.356950819106	0.007827351001
0	9961	91.364778170107	0.011731542995
0	9968	91.385778618683	0.00782647585
0	9973	91.393605094533	0.01452331153
0	9976	91.401430695427	0.009751369841
0	9981	91.488111184315	0.007822103028
0	9986	91.601517255519	0.007816862088
0	9992	91.668472539283	0.007813372028
0	9997	91.712454334412	0.007811628166
0	10002	91.829610076999	0.007805530776
0	10007	91.851832905827	0.007804660497
0	10012	91.909828804051	0.007802050825
0	10017	91.929650926494	0.007801181322
0	10022	91.943237175371	0.007800312012
0	10029	91.952701694013	0.007800312012
0	10034	91.960502006025	0.011025541621
0	10037	91.968301448922	0.008593719474
0	10066	92.507266687429	0.470409265805
0	10069	92.514533374858	0.422598278005
0	10072	92.521800062287	0.42163749842
0	10075	92.529067504147	0.412037145722
0	10078	92.536334946007	0.309666243483
0	10081	92.543602387867	0.297880671984
0	10084	92.550869829727	0.263337362849
0	10087	92.558138026176	0.177360377851
0	10090	92.565406222625	0.167204053334
0	10093	92.572674419074	0.169559684983
0	10096	92.579942615523	0.106640845245
0	10101	92.629501500908	0.007269706096
0	10106	92.704205616371	0.007271971743
0	10111	92.731014955222	0.007272727273
0	10116	92.838370687607	0.007276507277
0	10123	92.926226119737	0.007278777165
0	10126	92.933504896902	0.007505989594
0	10131	93.020120210621	0.007281805888
0	10136	93.06860701166	0.007282563462
0	10141	93.125976068224	0.007284837132
0	10148	93.152971878658	0.007285595337
0	10151	93.160257473995	0.011859440154
0	10156	93.218769839108	0.007287112222
0	10161	93.271939461714	0.007288629738
0	10166	93.302529135741	0.007290147886
0	10172	93.332110063393	0.007290907197
0	10177	93.439021738718	0.007293946025
0	10182	93.457607649606	0.007294706128
0	10187	93.587471848766	0.007298509019
0	10196	93.624054653285	0.007299270073
0	10199	93.631353923358	0.012476843911
0	10204	93.680795000807	0.007300792657
0	10209	93.689437936639	0.007301554188
0	10214	93.714162069855	0.007302315877
0	10219	93.762413490147	0.007303077726
0	10225	93.788697949624	0.007303839733
0	10230	93.803803535852	0.007310704961
0	10235	93.815938426488	0.007316053512
0	10240	93.865120442112	0.007336757153
0	10245	93.87422901349	0.007340604027
0	10250	93.903051084643	0.007353713625
0	10256	93.951815295443	0.007374631268
0	10261	93.979128465594	0.007386303683
0	10270	94.163106771753	0.007468259895
0	10273	94.170578220147	0.013724548955
0	10276	94.178052859763	0.016036633202
0	10282	94.367343090209	0.007560211686
0	10289	94.420860436462	0.007584787084
0	10292	94.428449334988	0.014562289742
0	10297	94.467270418259	0.007607041947
0	10302	94.483291877196	0.007614489285
0	10307	94.552169714839	0.00764609503
0	10312	94.562122919439	0.007651109411
0	10318	94.581352096764	0.007660319545
0	10323	94.617986323555	0.007677122176
0	10330	94.633158977502	0.007684707432
0	10333	94.640847060973	0.01535301378
0	10338	94.65010824757	0.007692307692
0	10343	94.662249393219	0.007698229407
0	10348	94.753243872321	0.007741650077
0	10353	94.782160387786	0.007755373366
0	10359	94.876672713655	0.007802050825
0	10368	95.024373801696	0.007874901564
0	10373	95.108185406091	0.007916760914
0	10378	95.16422174545	0.007944614686
0	10385	95.180558330608	0.007952738014
0	10388	95.188515588764	0.0096729113
0	10393	95.21053876084	0.00796812749
0	10398	95.29683210957	0.008012820513
0	10403	95.3139826401	0.008021083992
0	10410	95.383334735608	0.008057090239
0	10416	95.441342413681	0.008087810514
0	10421	95.487177864719	0.008112179859
0	10426	95.500585713897	0.008118765948
0	10431	95.560889721681	0.008150908244
0	10436	95.628866829493	0.008187134503
0	10442	95.72688792998	0.00824014126
0	10448	95.805669361505	0.008283043427
0	10453	95.852414886025	0.008309591643
0	10458	95.89054497587	0.008330358205
0	10464	95.922560664092	0.008323424495
0	10471	95.932134730547	0.008308605341
0	10475	95.940431518505	0.014909446308
0	10480	95.949031294521	0.008283043427
0	10507	96.507616974973	0.434976814357
0	10510	96.515239756199	0.400724185347
0	10513	96.522868352537	0.389063059999
0	10516	96.530501940323	0.330267718786
0	10519	96.538141359727	0.336785100371
0	10522	96.545785784757	0.333220024438
0	10525	96.553436057981	0.33760704248
0	10528	96.561092188354	0.29302707225
0	10531	96.568753346283	0.275976344719
0	10536	96.576420378046	0.164018043648
0	10539	96.584093292657	0.012818816243
0	10544	96.64487208647	0.007716900011
0	10549	96.660550068756	0.00772882853
0	10556	96.770280419795	0.007809885083
0	10559	96.778096409076	0.008181774337
0	10565	96.937289349922	0.007938308006
0	10571	96.974598715877	0.007967220578
0	10578	96.990654931381	0.007979936161
0	10581	96.998641240565	0.008553336275
0	10586	97.009744650899	0.007994518045
0	10591	97.053430922807	0.008029364533
0	10597	97.168963225537	0.008122534231
0	10602	97.183493835741	0.008133860098
0	10607	97.20819011756	0.008154706431
0	10614	97.253563788466	0.008191925102
0	10617	97.261762429834	0.010681003613
0	10622	97.292575796548	0.008224650452
0	10627	97.341456414138	0.008265438659
0	10632	97.383708839287	0.008300723349
0	10637	97.416292032219	0.008328375967
0	10642	97.45681628139	0.008363201912
0	10647	97.467488140881	0.008373205742
0	10652	97.606562231932	0.008495145631
0	10658	97.730594285459	0.0085731782
0	10663	97.743479770955	0.0085731782
0	10668	97.776158219305	0.0085731782
0	10673	97.834018241621	0.0085731782
0	10679	98.070535455674	0.008571078731
0	10684	98.0927847635	0.008571078731
0	10689	98.109300541265	0.008571078731
0	10696	98.118960495215	0.008571078731
0	10699	98.127531573946	0.014068020887
0	10704	98.141925082819	0.008570029383
0	10711	98.261029589705	0.008570029383
0	10714	98.269599619088	0.008944362309
0	10719	98.286790325116	0.008568980291
0	10724	98.298858242243	0.008568980291
0	10730	98.427580324511	0.008568980291
0	10735	98.466183188345	0.008567931457
0	10741	98.499325199099	0.008567931457
0	10746	98.508504108958	0.008567931457
0	10751	98.567605339409	0.008567931457
0	10758	98.744637578218	0.008565834557
0	10761	98.753203412775	0.010953381063
0	10768	98.858041737659	0.008565834557
0	10773	98.873409189255	0.008565834557
0	10778	98.896154209273	0.008564786492
0	10783	98.952951681411	0.008564786492
0	10788	98.963461735971	0.008564786492
0	10795	99.115577516844	0.008563738684
0	10800	99.133930050953	0.008563738684
0	10806	99.219669574489	0.008562691131
0	10812	99.287993850123	0.008562691131
0	10818	99.40543769063	0.008561643836
0	10823	99.418707927943	0.008561643836
0	10828	99.49322106189	0.008560596796
0	10833	99.554948779985	0.008560596796
0	10838	99.733765141607	0.008559550012
0	10843	99.744788677659	0.008559550012
0	10848	99.758383642059	0.008559550012
0	10858	99.838285871674	0.008558503485
0	10861	99.846844375159	0.010590121059
0	10866	99.855402878644	0.017357545429
0	10869	99.863961382129	0.012159967027
0	10874	99.903311570961	0.008558503485
0	10879	99.946695302403	0.008557457213
0	10884	99.961257765544	0.008557457213
0	10893	99.984414979885	0.008557457213
0	10896	99.992972437098	0.013248943075
0	10900	100.001529894311	0.020016471519
0	10934	100.508738214772	0.432811254309
0	10937	100.515947277594	0.433361243577
0	10940	100.523157082929	0.433404352755
0	10943	100.530367630931	0.424107294546
0	10946	100.537578921752	0.369220681898
0	10949	100.544790212573	0.356001786765
0	10952	100.552002246367	0.357813794054
0	10955	100.559215023286	0.345922953631
0	10958	100.566428543484	0.299753010677
0	10961	100.573642807114	0.265288084344
0	10965	100.580857070744	0.147610819823
0	10970	100.588072077959	0.101552342574
0	10975	100.595287828913	0.1053996971
0	10978	100.602504323758	0.019459445941
0	10981	100.609721562649	0.015412375933
0	10986	100.625420762623	0.007217983089
0	10991	100.699357104864	0.00722468779
0	10996	100.838396094436	0.007236638065
0	11001	100.876805214124	0.007239631813
0	11006	100.900795375982	0.00724187875
0	11028	101.140789315516	0.007262164125
0	11034	101.16831715409	0.007264425073
0	11039	101.190926299413	0.007266687429
0	11046	101.217672667307	0.007268951194
0	11051	101.246585872745	0.007271216371
0	11056	101.318928470716	0.007277263749
0	11062	101.353679242824	0.007280291212
0	11071	101.420615958614	0.0072863537
0	11074	101.427903070836	0.007455284212
0	11079	101.455176141282	0.007289388733
0	11084	101.475069129363	0.007290907197
0	11089	101.496046815825	0.007292426294
0	11096	101.532781484393	0.007296226808
0	11099	101.540077711201	0.010289465543
0	11104	101.558653379816	0.007298509019
0	11109	101.573292474241	0.007299270073
0	11119	101.703282632072	0.007310704961
0	11122	101.710594100633	0.010695669176
0	11128	101.721629611654	0.00731223232
0	11133	101.741849091048	0.007313760318
0	11140	101.777649265184	0.007316818229
0	11145	101.788149291317	0.007318348144
0	11152	101.874044779309	0.007325240686
0	11160	101.925944978448	0.007329842932
0	11169	101.992776638043	0.007335988262
0	11179	102.061356574129	0.007342143906
0	11185	102.084523588166	0.007343684431
0	11190	102.118048281408	0.007346767422
0	11195	102.165339556556	0.007350624803
0	11200	102.198283617389	0.007353713625
0	11209	102.262016977559	0.007359125315
0	11215	102.283141675903	0.00736144705
0	11221	102.304371712248	0.007362995687
0	11233	102.464253759569	0.007376962799
0	11236	102.471631499873	0.008403549723
0	11247	102.7214113766	0.007400359446
0	11252	102.754065992149	0.007402707276
0	11260	102.805474866172	0.007407407407
0	11265	102.841965961146	0.007410544146
0	11270	102.935582904057	0.00741918389
0	11275	102.955735859344	0.007420756917
0	11282	102.979290420905	0.007423117709
0	11287	103.128025863467	0.007436523956
0	11292	103.172346391794	0.00744047619
0	11299	103.25418188635	0.007447600809
0	11304	103.277234890914	0.007449978714
0	11313	103.369509189085	0.007457916045
0	11321	103.518353881307	0.007471448394
0	11326	103.573094983225	0.007476236249
0	11331	103.619892158427	0.007481030245
0	11337	103.654663488473	0.007484229659
0	11344	103.766941778438	0.007493844342
0	11350	103.774998727946	0.007494646681
0	11356	103.823122061241	0.007499464324
0	11363	103.840237062505	0.007501071582
0	11366	103.847738937974	0.01057397868
0	11371	103.867547711401	0.00750348376
0	11379	103.885980197903	0.007505092742
0	11382	103.893486095394	0.013804892927
0	11387	103.932151252533	0.007509118215
0	11392	103.94795272211	0.007510729614
0	11399	104.071438438835	0.007382408775
0	11408	104.203750263525	0.007365319865
0	11414	104.25720794161	0.007358351729
0	11421	104.295046890368	0.007353713625
0	11428	104.316916564803	0.007350624803
0	11432	104.324266417806	0.011892818199
0	11440	104.373344794206	0.007343684431
0	11450	104.518607394817	0.007324474207
0	11455	104.568666739835	0.007318348144
0	11460	104.632251922906	0.00730994152
0	11466	104.811110065994	0.007287112222
0	11471	104.820722781238	0.0072863537
0	11480	104.867455610026	0.007280291212
0	11483	104.874735144136	0.009329283269
0	11486	104.882013164514	0.016201968921
0	11491	104.985922461563	0.007265179035
0	11496	105.20341394119	0.00723738627
0	11501	105.279899138223	0.007228418009
0	11506	105.287772694489	0.007226925459
0	11511	105.303746934922	0.007225433526
0	11518	105.326140674512	0.007222451506
0	11521	105.333362380898	0.007323073358
0	11528	105.50036835716	0.007200905257
0	11533	105.518213035442	0.007198683669
0	11538	105.573996621923	0.007191288268
0	11543	105.58281840286	0.007190549563
0	11548	105.640159279824	0.007183170857
0	11553	105.694150205979	0.007176542957
0	11559	105.722598391543	0.007172866072
0	11564	105.805695528223	0.007162590811
0	11570	105.831292083001	0.007159660428
0	11575	105.893538696469	0.007173601148
0	11580	105.911605630678	0.007178014766
0	11585	105.9188578804	0.007180223613
0	11593	105.990492206703	0.007197943445
0	11596	105.997691630749	0.01147575277
0	11601	106.016060322269	0.007203869507
0	11608	106.048504826969	0.007212033794
0	11613	106.055719090599	0.007803660789
0	11618	106.062934841553	0.011997915495
0	11621	106.070152824642	0.007862579147
0	11626	106.11199345499	0.007228418009
0	11633	106.119763724652	0.007229911175
0	11636	106.126995876734	0.010602452464
0	11641	106.237627203489	0.007259904584
0	11646	106.30655427148	0.007277263749
0	11651	106.3221517349	0.007281048471
0	11656	106.372988393883	0.007293946025
0	11661	106.386138141988	0.007297748123
0	11666	106.400529123862	0.007301554188
0	11673	106.45376386815	0.007314524556
0	11676	106.461080686379	0.009796181464
0	11681	106.476494512608	0.007320644217
0	11686	106.485355910889	0.00732294173
0	11691	106.566815639659	0.007343684431
0	11697	106.609471712448	0.00735525901
0	11702	106.667542025902	0.007369972626
0	11707	106.675252413654	0.007372301211
0	11712	106.719779206761	0.007383966245
0	11717	106.737804070136	0.007388642601
0	11724	106.770164816612	0.007397231322
0	11727	106.777563611665	0.008967998659
0	11732	106.799618288186	0.007405056596
0	11737	106.840174092154	0.007415254237
0	11742	106.86926006099	0.007423117709
0	11747	106.933433490664	0.00744047619
0	11752	106.994828883596	0.007456327226
0	11759	107.034120660002	0.007466666667
0	11762	107.041589716767	0.011894261952
0	11767	107.10362653568	0.007485830392
0	11772	107.116795793635	0.007489033915
0	11778	107.193037275241	0.007533362032
0	11783	107.253242914975	0.00760786871
0	11788	107.304459381671	0.007672073652
0	11793	107.366234150386	0.007751079615
0	11799	107.414483146124	0.007814244251
0	11804	107.457001595199	0.007871359496
0	11810	107.53613111494	0.007978117164
0	11816	107.551308460479	0.007999085819
0	11822	107.632670052594	0.008113120074
0	11827	107.645463743634	0.008131025671
0	11832	107.667075895776	0.008162313433
0	11837	107.705249852417	0.008217891524
0	11845	107.799323269385	0.008322434907
0	11850	107.814612941425	0.008308605341
0	11855	107.942737708782	0.00818905007
0	11881	108.507365319865	0.50556896034
0	11884	108.514732189998	0.508943618405
0	11887	108.522099835509	0.443326031995
0	11890	108.529469032267	0.358246029533
0	11893	108.536839780924	0.302081327609
0	11898	108.544212082135	0.308236972187
0	11901	108.551585936554	0.266015384788
0	11904	108.558961344836	0.237466386621
0	11907	108.566337530294	0.132925504782
0	11910	108.573715270598	0.030597528283
0	11915	108.590715532497	0.007380851961
0	11920	108.621471737299	0.007387083157
0	11925	108.638042718082	0.007390202703
0	11930	108.662031043094	0.007394886964
0	11935	108.675609160993	0.007398013105
0	11942	108.732460339765	0.007408975445
0	11947	108.739870883911	0.009546527136
0	11950	108.747282212656	0.011907803735
0	11955	108.790878862255	0.00741997032
0	11960	108.910575613347	0.007443641004
0	11967	108.983040778032	0.007457916045
0	11973	109.032399188006	0.007467463196
0	11978	109.079522724183	0.007477034822
0	11985	109.146807976795	0.007490636704
0	11988	109.154299415151	0.007880450788
0	11993	109.171681591046	0.007495449192
0	11999	109.23208093118	0.00750348376
0	12004	109.287300015325	0.007508312775
0	12009	109.354497470248	0.007513954487
0	12014	109.431246995996	0.007520412548
0	12020	109.454263757651	0.007522837184
0	12025	109.471560767686	0.007524454477
0	12030	109.511193118179	0.00752769115
0	12037	109.54451774629	0.007530930608
0	12042	109.552048676898	0.011050141524
0	12045	109.559580417806	0.008382666001
0	12050	109.60437102932	0.007535795026
0	12057	109.615511133401	0.007536606374
0	12060	109.623048551297	0.014132977642
0	12066	109.689791342872	0.007543103448
0	12071	109.711190320761	0.00754554274
0	12076	109.749301500037	0.007548797584
0	12081	109.83208476636	0.007556131261
0	12086	109.887067012794	0.0075610283
0	12091	109.936618769127	0.007565114017
0	12096	109.945572576615	0.00756593169
0	12101	109.969066412139	0.007568385771
0	12106	110.012426347934	0.007571660357
0	12112	110.13499290184	0.007583143755
0	12117	110.198475013286	0.007588898526
0	12124	110.247809397675	0.007593014427
0	12129	110.26567270428	0.007594662038
0	12134	110.39841574374	0.007606215365
0	12140	110.541171312742	0.007619462284
0	12147	110.57477255963	0.007622781226
0	12150	110.582395340856	0.009881144097
0	12157	110.633243867972	0.007627765065
0	12160	110.64087246431	0.010342564045
0	12165	110.689632947985	0.007632755425
0	12172	110.737788468487	0.007636919049
0	12175	110.745426220806	0.012615133311
[...]
22	20624	189.354621825013	1.1025554550012
22	20717	190.457177280014	2.7893276961769
22	21057	193.246504976191	1.0053572322919
22	21171	194.251862208483	1.4932405541057
22	21323	195.745102762589	0.24827686282158
22	21339	195.993379625411	0.26400598695972
22	21357	196.257385612371	0.73406865153355
22	21450	196.991454263905	1.4173629211203
22	21594	198.408817185025	2.5987327941833
22	21945	201.007549979208	1.0557662366293
22	22058	202.063316215837	2.9213802743401
22	22332	204.984696490177	3.2918042673179
22	22673	208.276500757495	0.81094833704175
22	22760	209.087449094537	0.94666793283401
22	22875	210.034117027371	0.78610117143795
22	22976	210.820218198809	3.5361712936471
22	23350	214.356389492456	0.91421254758662
22	23454	215.270602040043	3.2946017768874
22	23887	218.56520381693	5.479572141602
22	24418	224.044775958532	4.7146445325027
22	24866	228.759420491035	1.1274467385491
22	25017	229.886867229584	1.3272825725455
22	25189	231.214149802129	1.2724876846482
22	25283	232.486637486777	0.18374058241671
22	25315	232.670378069194	4.2941835109229
22	25707	236.964561580117	5.3310987189267
22	26292	242.295660299044	2.103860541419
22	26512	244.399520840463	0.38360159500024
22	26580	244.783122435463	1.3431671725462
22	26768	246.126289608009	4.5668129971133
22	27282	250.693102605122	0.29072407100468
22	27330	250.983826676127	1.9683402106192
22	27519	252.952166886746	0.011111425950285
22	27520	252.963278312696	0.33623618195578
22	27558	253.299514494652	5.1587904734854
22	28097	258.458304968137	2.5076215027911
22	28347	260.965926470928	0.11063627367891
22	28348	261.076562744607	0.66731855873921
22	28467	261.743881303346	3.3040782502388
22	28768	265.047959553585	1.3729194774139
22	28920	266.420879030999	2.1183458971398
22	29075	268.539224928139	1.9564421446252
22	29337	270.495667072764	3.9217908546219
22	29712	274.417457927386	1.2914059949674
22	29840	275.708863922353	2.0556862804049
22	30059	277.764550202758	6.5419896066009
22	30614	284.306539809359	6.7834258758661
22	31361	291.089965685225	0.63130113932264
22	31455	291.721266824548	1.2462693513005
22	31606	292.967536175848	1.2148404752877
22	31761	294.182376651136	4.0638202529899
22	32102	298.246196904126	2.2274450380315
22	32311	300.473641942158	0.68849222663664
22	32402	301.162134168795	3.0743659516839
22	32700	304.236500120479	2.3790262417419
22	32967	306.615526362221	3.2811735826701
22	33300	309.896699944891	5.9470831524455
22	34031	315.843783097336	0.80341881899697
22	34100	316.647201916333	2.0086967185764
22	34266	318.655898634909	1.0399763727244
22	34401	319.695875007633	1.4082485550015
22	34533	321.104123562634	1.0018204326852
22	34606	322.105943995319	4.8324335683625
22	35121	326.938377563682	0.20457941708776
22	35140	327.14295698077	0.87941246944494
22	35215	328.022369450215	1.4961226652421
22	35332	329.518492115457	5.7322007108925
22	35953	335.250692826349	6.4802254558933
22	36663	341.730918282242	0.60561427787572
22	36758	342.336532560118	0.45046549483309
22	36787	342.786998054951	0.64682794870154
22	36836	343.433826003653	1.3629921527541
22	37016	344.796818156407	1.2332935197214
22	37119	346.030111676128	7.519408693365
22	38032	353.549520369493	0.060531405372927
22	38033	353.610051774866	0.091796423374468
22	38043	353.70184819824	2.2700353952953
22	38315	355.971883593535	0.48161730214203
22	38339	356.453500895677	1.8849436173338
22	38579	358.338444513011	0.16960846955916
22	38599	358.50805298257	2.0069230308747
22	38738	360.514976013445	0.028240176144182
22	38752	360.543216189589	0.77850334516752
22	38867	361.321719534757	0.26244881966323
22	38896	361.58416835442	5.9424367538547
22	39494	367.526605108275	3.6853459402986
22	39906	371.211951048574	0.83441640377501
22	39982	372.046367452349	0.8459122850834
22	40057	372.892279737432	1.0039875571828
22	40171	373.896267294615	2.5388191882291
22	40493	376.435086482844	9.0649531522795
22	41413	385.500039635123	3.4345862667725
22	41793	388.934625901896	0.25102437796207
22	41840	389.185650279858	3.3139209627878
22	42291	392.499571242646	3.7184189777995
22	42633	396.217990220445	2.5937164251074
22	42924	398.811706645552	0.30696087498188
22	42947	399.118667520534	0.029256972948429
22	42948	399.147924493482	0.40296111169807
22	42994	399.55088560518	1.4211186758806
23	1778	15.12502430315	3.2440018659352
23	2075	18.369026169085	7.9765924022226
23	2974	26.345618571308	0.89585319318953
23	3076	27.241471764498	0.072309626507027
23	3090	27.313781391005	1.580895435866
23	3214	28.894676826871	2.0638637544963
23	3422	30.958540581367	5.6036017497158
23	4055	36.562142331083	0.89158966672778
23	4157	37.453731997811	1.1833767103257
23	4296	38.637108708137	0.041204307810238
23	4299	38.678313015947	1.3314491181248
23	4461	40.009762134072	1.0599612264752
23	4550	41.069723360547	0.42262209730432
23	4616	41.492345457851	8.7957080799726
23	5602	50.288053537824	2.4183246993013
23	5876	52.706378237125	1.1793894972336
23	5972	53.885767734359	3.7175941367448
23	6367	57.603361871104	0.4346823965782
23	6406	58.038044267682	3.3244702587006
23	6758	61.362514526383	2.6837996855105
23	7075	64.046314211893	2.1126624442332
23	7290	66.158976656126	4.4088783594179
23	7817	70.567855015544	1.3731198868317
23	7961	71.940974902376	0.23121458974463
23	7983	72.172189492121	2.4322026626255
23	8249	74.604392154746	2.8942687968106
23	8531	77.498660951557	11.774546758832
23	9804	89.273207710389	5.2994719570389
23	10315	94.572679667428	0.33623411548279
23	10364	94.908913782911	0.00076594572858362
23	10365	94.90967972864	0.4766817900434
23	10413	95.386361518683	0.35140490403875
23	10445	95.737766422722	2.688392037495
23	10729	98.426158460217	0.95535684304821
23	10815	99.381515303265	0.71476715320989
23	10909	100.096282456475	3.206775209352
23	11308	103.303057665827	4.2897499596854
23	11819	107.592807625512	1.5946321875408
23	11996	109.187439813053	5.5791582812541
23	12527	114.766598094307	0.79929359230601
23	12615	115.565891686613	0.86211847038062
23	12699	116.428010156994	0.062465711690851
23	12702	116.490475868685	0.29685003619134
23	12752	116.787325904876	2.2107508492975
23	12980	118.998076754174	0.05582893816022
23	12981	119.053905692334	3.4666869828623
23	13301	122.520592675196	6.5073524165281
23	13953	129.027945091724	0.64271048772126
23	13997	129.670655579445	1.2684983925535
23	14187	130.939153971998	0.29440084061285
23	14244	131.233554812611	4.4127139680197
23	14655	135.646268780631	1.4968666611923
23	14854	137.143135441823	1.3257039128125
23	14991	138.468839354636	1.3320543914562
23	15108	139.800893746092	0.43772502163216
23	15138	140.238618767724	2.8929606868975
23	15492	143.131579454622	3.7152040485617
23	15916	146.846783503184	5.5705711160729
23	16558	152.417354619257	1.4506940256252
23	16720	153.868048644882	4.9309921814225
23	17278	158.799040826305	3.3045137762917
23	17655	162.103554602597	1.1721931830966
23	17750	163.275747785694	0.46523241289995
23	17827	163.740980198594	7.1323340007602
23	18635	170.873314199354	1.2765265417564
23	18780	172.14984074111	3.3974656043834
23	19159	175.547306345493	4.2092771744952
23	19671	179.756583519988	0.02645434652426
23	19675	179.783037866512	4.3749278072674
23	20127	184.157965673779	1.9671009377177
23	20338	186.125066611497	0.34429777992487
23	20358	186.469364391422	0.19151711822937
23	20378	186.660881509651	0.23503476566736
23	20414	186.895916275318	1.0438315300337
23	20498	187.939747805352	0.073376704048374
23	20503	188.0131245094	2.1735705945954
23	20691	190.186695103995	0.19117615677656
23	20700	190.377871260772	0.040180537147621
23	20710	190.41805179792	0.88576572147362
23	20836	191.303817519394	0.047727516133813
23	20847	191.351545035528	0.54861233767733
23	20915	191.900157373205	3.0404190943712
23	21218	194.940576467576	3.0225173430189
23	21559	197.963093810595	1.5007025762031
23	21746	199.463796386798	0.30371359936291
23	21811	199.767509986161	2.7190857698666
23	22081	202.486595756028	4.3964384922616
23	22507	206.88303424829	2.809304897986
23	22840	209.692339146276	2.9090546508661
23	23193	212.601393797142	0.17442975795491
23	23218	212.775823555097	2.8148783152164
23	23502	215.590701870313	0.60003842409179
23	23542	216.190740294405	0.2166487835383
23	23554	216.407389077943	2.523228245891
23	23919	218.930617323834	2.6630100533066
23	24213	221.593627377141	8.6950155525621
23	25063	230.288642929703	1.8021465294408
23	25272	232.090789459144	1.283204600475
23	25392	233.373994059619	0.36547537856081
23	25421	233.73946943818	3.0193076031874
23	25690	236.758777041367	0.17469375185475
23	25706	236.933470793222	6.9058319830185
23	26460	243.83930277624	5.7539366192969
23	27173	249.593239395537	0.8379685066207
23	27254	250.431207902158	1.9345276691802
23	27446	252.365735571338	0.22523391465314
23	27481	252.590969485991	0.34005765597023
23	27518	252.931027141961	0.25012468040941
23	27537	253.18115182237	5.3052303262254
23	28103	258.486382148595	0.63056729042854
23	28147	259.116949439024	0.78800400264212
23	28240	259.904953441666	0.94906956592581
23	28325	260.854023007592	0.29175152473203
23	28350	261.145774532324	1.5261780909865
23	28570	262.67195262331	3.4933139588418
23	28906	266.165266582152	1.5610423943284
23	29011	267.72630897648	0.81188735726888
23	29074	268.538196333749	0.25414566140444
23	29107	268.792341995153	1.0220081401425
23	29238	269.814350135295	1.0752563155957
23	29381	270.889606450891	0.95564541289144
23	29472	271.845251863782	0.70831417823706
23	29531	272.553566042019	1.1727735422427
23	29669	273.726339584262	0.46799179704789
23	29711	274.19433138131	2.8942875406593
23	29975	277.088618921969	0.79035457664345
23	30065	277.878973498612	1.8366211225483
23	30228	279.71559462116	2.2992748198578
23	30413	282.014869441018	9.2315466706315
23	31382	291.24641611165	4.7618804814197
23	31929	296.00829659307	2.0042418340784
23	32079	298.012538427148	0.098182648269298
23	32090	298.110721075417	3.2850552490563
23	32420	301.395776324473	0.6711306167673
23	32479	302.06690694124	1.1104450183391
23	32579	303.177351959579	0.38667188732515
23	32615	303.564023846904	2.225075020459
23	32868	305.789098867363	0.077394983432374
23	32873	305.866493850795	1.1403907126888
23	32995	307.006884563484	0.9794864275599
23	33106	307.986370991044	1.9653017637554
23	33312	309.951672754799	1.4468603030537
23	33521	311.398533057853	5.8673189207838
23	34138	317.265851978637	0.25595716502508
23	34176	317.521809143662	2.4356455407068
23	34419	319.957454684369	0.63172098035906
23	34489	320.589175664728	2.4234788968815
23	34706	323.01265456161	2.2359785752173
23	34933	325.248633136827	1.1113462332029
23	35047	326.35997937003	0.906451403101
23	35151	327.266430773131	2.7354731407156
23	35395	330.001903913847	1.5302970661345
23	35561	331.532200979981	4.4815589223637
23	36006	336.013759902345	0.52194737142954
23	36052	336.535707273775	0.34953678242646
23	36102	336.885244056201	1.1395892323498
23	36221	338.024833288551	0.12443251165288
23	36227	338.149265800204	2.2625842384815
23	36450	340.411850038685	1.7086746593688
23	36711	342.120524698054	1.5179957536511
23	36869	343.638520451705	1.6168715033016
23	37045	345.255391955007	1.7998845965348
23	37347	347.055276551542	0.13893589567595
23	37356	347.194212447218	2.4023047917775
23	37608	349.596517238995	3.4081934734156
23	37974	353.004710712411	5.9846209694168
23	38632	358.989331681828	0.34860194761168
23	38664	359.33793362944	8.2500402657873
23	39497	367.587973895227	3.0053958888674
23	39841	370.593369784094	0.14765482409272
23	39847	370.741024608187	1.5388057911198
23	39994	372.279830399307	2.4657448961034
23	40254	374.74557529541	1.5287122253464
23	40453	376.274287520756	1.6549330901934
23	40651	377.929220610949	1.6085047700529
23	40827	379.537725381002	2.0825902311171
23	41024	381.620315612119	0.42000340210488
23	41080	382.040319014224	0.68208494767707
23	41163	382.722403961901	0.44528607536205
23	41215	383.167690037263	7.0293363930429
23	41997	390.197026430306	0.57393387488542
23	42039	390.770960305191	0.11533174252275
23	42053	390.886292047714	0.44672316966523
23	42098	391.333015217379	9.9577836925731
24	2335	20.647858671329	5.4568991849188
24	2957	26.104757856248	0.19787952841112
24	2973	26.302637384659	2.3054997982742
24	3183	28.608137182933	0.90976590327193
24	3281	29.517903086205	2.0370770910192
24	3520	31.554980177224	0.17789201203214
24	3538	31.732872189256	0.2368744525085
24	3548	31.969746641765	3.7101010655279
24	3994	35.679847707293	0.071580817556199
24	3999	35.751428524849	0.92887866367473
24	4062	36.680307188524	2.3919983659341
24	4338	39.072305554458	1.7001571472499
24	4538	40.772462701708	0.11094528982954
24	4539	40.883407991538	2.7568551288227
24	4850	43.640263120361	5.0885634657929
24	5458	48.728826586154	0.2740495478778
24	5470	49.002876134032	0.26094187085901
24	5502	49.263818004891	1.8593111724955
24	5688	51.123129177386	0.60501262878742
24	5784	51.728141806173	2.9162801204132
24	6066	54.644421926586	0.44674839146361
24	6090	55.09117031805	1.4826264295237
24	6254	56.573796747574	2.4183742591037
24	6519	58.992171006678	4.2252784105373
24	6985	63.217449417215	1.7393798365383
24	7189	64.956829253753	2.6726177508559
24	7449	67.629447004609	0.20033458914051
24	7480	67.82978159375	1.0848187130412
24	7602	68.914600306791	0.46583009360669
24	7658	69.380430400398	6.4992445918405
24	8343	75.879674992239	1.5621670510911
24	8525	77.44184204333	2.3891860929328
24	8776	79.831028136263	1.9132545551034
24	8959	81.744282691366	0.87634480636874
24	9054	82.620627497735	0.14786579387558
24	9060	82.768493291611	1.2656502750647
24	9163	84.034143566676	4.0787645415459
24	9682	88.112908108222	0.36834611787822
24	9728	88.4812542261	2.051456721092
24	9911	90.532710947192	4.8180575010654
24	10407	95.350768448257	0.62676088837121
24	10483	95.977529336628	0.83062732473613
24	10562	96.808156661364	1.6791351885469
24	10738	98.487291849911	1.6935870262512
24	10915	100.180878876162	0.17973952738297
24	10926	100.360618403545	0.21906785247489
24	10964	100.57968625602	0.53749465614633
24	11024	101.117180912166	0.039660052668343
24	11031	101.156840964834	1.153108004839
24	11224	102.309948969673	3.5177386646863
24	11569	105.827687634359	1.3332328823078
24	11775	107.160920516667	0.61607614627273
24	11842	107.77699666294	1.2290708493529
24	11970	109.006067512293	0.42933784421729
24	12017	109.43540535651	1.1029343327258
24	12139	110.538339689236	1.1090117781319
24	12264	111.647351467368	1.9760811849671
24	12415	113.623432652335	6.5021987367866
24	13076	120.125631389122	2.5057491071361
24	13307	122.631380496258	5.9952425568429
24	13909	128.626623053101	0.22088057862983
24	13925	128.847503631731	0.85503499185712
24	14012	129.702538623588	1.493717570072
24	14243	131.19625619366	2.6108848487417
24	14477	133.807141042402	2.5565934742186
24	14739	136.363734516621	0.70984535661444
24	14853	137.073579873235	0.20096396288311
24	14870	137.274543836118	5.8338137192671
24	15491	143.108357555385	0.3413004269635
24	15529	143.449657982348	0.95308234657476
24	15608	144.402740328923	1.4945214219545
24	15795	145.897261750877	1.333632271819
24	15973	147.230894022696	3.5748386963351
24	16377	150.805732719031	5.806352158474
24	17050	156.612084877505	11.374497544095
24	18298	167.9865824216	1.6644558189512
24	18508	169.651038240551	0.41917208365401
24	18546	170.070210324205	1.3597157188063
24	18711	171.429926043011	3.4333988157239
24	19089	174.863324858735	0.39987118268576
24	19120	175.263196041421	1.1807071705451
24	19231	176.443903211966	0.70084931861749
24	19370	177.144752530583	0.044351960729891
24	19371	177.189104491313	0.22272942022815
24	19399	177.411833911541	0.36318711163341
24	19448	177.775021023174	0.56560451348599
24	19529	178.34062553666	0.17030584315704
24	19538	178.510931379817	0.31185598806487
24	19566	178.822787367882	2.281589342193
24	19787	181.104376710075	0.47531396490052
24	19825	181.579690674976	0.75645828547786
24	19911	182.336148960454	1.7351958182666
24	20123	184.071344778721	1.4336094502279
24	20274	185.504954228949	2.7959728205887
24	20517	188.300927049538	7.2758966088355
24	21308	195.576823658374	2.2328283143858
24	21541	197.80965197276	1.4348754879885
24	21720	199.244527460749	5.9294787882835
24	22345	205.174006249033	1.0719863937769
24	22443	206.24599264281	1.1444754995888
24	22575	207.390468142399	6.2561778439981
24	23298	213.646645986397	0.48506512734163
24	23324	214.131711113739	1.1616439934667
24	23462	215.293355107206	0.93171384802077
24	23545	216.225068955227	0.91014415870778
24	23676	217.135213113935	0.6409676810617
24	23780	217.776180794997	10.338487092828
24	24800	228.114667887825	2.8778610357436
24	25147	230.992528923569	2.9882237926113
24	25453	233.98075271618	0.029504153334422
24	25459	234.010256869514	7.97226229001
24	26258	241.982519159524	0.25923506499794
24	26286	242.241754224522	6.1474316940719
24	27088	248.389185918594	0.87504301587767
24	27157	249.264228934472	2.3007991042342
24	27391	251.565028038706	0.072521183637433
24	27410	251.637549222343	1.2179818223853
24	27512	252.855531044728	2.0620211220243
24	27759	254.917552166752	1.5257607089771
24	27895	256.443312875729	3.1568258911335
24	28215	259.600138766862	0.0061108071411756
24	28216	259.606249574003	0.68286938424542
24	28258	260.289118958248	1.7513464882102
24	28493	262.040465446458	5.7042760503974
24	29012	267.744741496855	0.74650185097548
24	29054	268.49124334783	1.5202347056316
24	29265	270.011478053462	4.9305485225461
24	29761	274.942026576008	2.9925404939077
24	30066	277.934567069916	0.48027529541116
24	30126	278.414842365327	0.80165578515596
24	30205	279.216498150483	1.1524855143925
24	30256	280.368983664875	2.7195489801478
24	30526	283.088532645023	0.052904441015377
24	30535	283.141437086038	0.037062667151875
24	30541	283.17849975319	5.3927769249996
24	31123	288.57127667819	3.4296806078443
24	31490	292.000957286034	4.3192461179147
24	31938	296.320203403949	1.3889008469937
24	32068	297.709104250943	3.6397115445651
24	32414	301.348815795508	0.55671898879122
24	32463	301.905534784299	0.25310669291341
24	32485	302.158641477212	0.47473415360444
24	32518	302.633375630816	0.054566126312502
24	32520	302.687941757129	0.22978736404241
24	32539	302.917729121171	3.8470244652525
24	32977	306.764753586423	1.1446799636247
24	33090	307.909433550048	0.13495573817898
24	33113	308.044389288227	1.5017824430251
24	33263	309.546171731252	4.0250136407853
24	33815	313.571185372037	0.84018977552258
24	33895	314.41137514756	3.5268462098555
24	34223	317.938221357416	0.85481403977227
24	34284	318.793035397188	1.497324102881
24	34445	320.290359500069	0.29554965128729
24	34488	320.585909151356	1.1659675307575
24	34580	321.751876682113	2.4952939625778
24	34797	324.247170644691	0.48920757668666
24	34874	324.736378221378	2.659567507635
24	35167	327.395945729013	4.2104479077963
24	35572	331.606393636809	6.1481986032739
24	36185	337.754592240083	0.47987284524747
24	36234	338.23446508533	5.343359810287
24	36853	343.577824895617	3.0801192453118
24	37272	346.657944140929	2.2822168859973
24	37527	348.940161026926	2.400881281658
24	37778	351.341042308584	1.689597563691
24	37975	353.030639872275	2.1357512384346
24	38216	355.16639111071	6.131135015074
24	38866	361.297526125784	1.7737819255092
24	39066	363.071308051293	1.599707154636
24	39253	364.671015205929	2.8057411531009
24	39489	367.47675635903	0.083323260726238
24	39495	367.560079619756	0.0089125139361545
24	39496	367.568992133692	0.19335001364693
24	39504	367.762342147339	1.1060792258544
24	39625	368.868421373193	0.97557514666721
24	39731	369.84399651986	0.15336209047552
24	39750	369.997358610336	4.5133600536908
24	40237	374.510718664027	2.0607311646736
24	40509	376.571449828701	0.88085118898372
24	40614	377.452301017685	1.2139556857941
24	40720	378.666256703479	5.8464641915589
24	41297	384.512720895038	1.7351686732991
24	41480	386.247889568337	0.94992200859793
24	41562	387.197811576935	2.6731717401724
24	41957	389.870983317107	0.14763134744772
24	41975	390.018614664555	0.66729972818942
24	42028	390.685914392744	3.0277720913155
24	42394	393.71368648406	3.6452216678965
24	42751	397.358908151956	0.20102969861434
24	42778	397.55993785057	0.30657492127886
24	42806	397.866512771849	2.519296255872

