version 2
run Exponential-capacity-9-20210217-10:20:40-1044
attr configname Exponential-capacity
attr datetime 20210217-10:20:40
attr experiment Exponential-capacity
attr inifile aerocom.ini
attr iterationvars "$0=35, $1=1.5"
attr iterationvarsf 35,1.5-
attr measurement "$0=35, $1=1.5"
attr network Aerocom
attr processid 1044
attr repetition 0
attr replication #0
attr resultdir results
attr runnumber 9
attr seedset 0
param **.t 3s
param **.k 35ms
param **.X 0.5s
param **.m 1.5s
param **.tDistribution "\"exponential\""
param **.operationMode 0
param **.s "70 byte"
param **.dimPoolMax 10000
param **.dimPoolMin 8000
param **.nDL 10
param **.nA 1
param **.DLMaxCapacity 0
param **.trasmitting false

vector 0 Aerocom.aircraft[0].packetGenerator arrivalTime:vector ETV
attr "" ""
attr source computeArrivalTime
vector 1 Aerocom.aircraft[0].linkSelector waitingTime:vector ETV
attr "" ""
attr source computeWaitingTime
vector 2 Aerocom.aircraft[0].linkSelector queueLength:vector ETV
attr "" ""
attr source computeQueueLength
vector 3 Aerocom.aircraft[0].dataLink[1] actualCapacity:vector ETV
attr "" ""
attr source computeActualCapacity
vector 4 Aerocom.aircraft[0].linkSelector serviceTime:vector ETV
attr "" ""
attr source computeServiceTime
vector 5 Aerocom.aircraft[0].linkSelector responseTime:vector ETV
attr "" ""
attr source computeResponseTime
vector 6 Aerocom.aircraft[0].dataLink[4] tDistribution:vector ETV
attr "" ""
attr source computeTDistribution
vector 7 Aerocom.aircraft[0].dataLink[6] tDistribution:vector ETV
attr "" ""
attr source computeTDistribution
vector 8 Aerocom.aircraft[0].dataLink[1] tDistribution:vector ETV
attr "" ""
attr source computeTDistribution
vector 9 Aerocom.aircraft[0].dataLink[0] actualCapacity:vector ETV
attr "" ""
attr source computeActualCapacity
vector 10 Aerocom.aircraft[0].dataLink[2] actualCapacity:vector ETV
attr "" ""
attr source computeActualCapacity
vector 11 Aerocom.aircraft[0].dataLink[3] actualCapacity:vector ETV
attr "" ""
attr source computeActualCapacity
vector 12 Aerocom.aircraft[0].dataLink[4] actualCapacity:vector ETV
attr "" ""
attr source computeActualCapacity
vector 13 Aerocom.aircraft[0].dataLink[5] actualCapacity:vector ETV
attr "" ""
attr source computeActualCapacity
vector 14 Aerocom.aircraft[0].dataLink[6] actualCapacity:vector ETV
attr "" ""
attr source computeActualCapacity
vector 15 Aerocom.aircraft[0].dataLink[7] actualCapacity:vector ETV
attr "" ""
attr source computeActualCapacity
vector 16 Aerocom.aircraft[0].dataLink[8] actualCapacity:vector ETV
attr "" ""
attr source computeActualCapacity
vector 17 Aerocom.aircraft[0].dataLink[9] actualCapacity:vector ETV
attr "" ""
attr source computeActualCapacity
vector 18 Aerocom.aircraft[0].dataLink[5] tDistribution:vector ETV
attr "" ""
attr source computeTDistribution
vector 19 Aerocom.aircraft[0].dataLink[8] tDistribution:vector ETV
attr "" ""
attr source computeTDistribution
vector 20 Aerocom.aircraft[0].dataLink[0] tDistribution:vector ETV
attr "" ""
attr source computeTDistribution
vector 21 Aerocom.aircraft[0].dataLink[2] tDistribution:vector ETV
attr "" ""
attr source computeTDistribution
vector 22 Aerocom.aircraft[0].dataLink[7] tDistribution:vector ETV
attr "" ""
attr source computeTDistribution
vector 23 Aerocom.aircraft[0].dataLink[9] tDistribution:vector ETV
attr "" ""
attr source computeTDistribution
vector 24 Aerocom.aircraft[0].dataLink[3] tDistribution:vector ETV
attr "" ""
attr source computeTDistribution
0	1602	10.089882227233	0.077872013003
0	1607	10.167754240236	0.010554806963
0	1612	10.178309047199	0.057431415227
0	1618	10.235740462426	0.026952690084
0	1623	10.26269315251	0.042595682337
0	1629	10.305288834847	0.020792572441
0	1634	10.326081407288	0.003696442527
0	1636	10.329777849815	0.003670864246
0	1638	10.333448714061	0.088174874553
0	1650	10.421623588614	0.015202097958
0	1655	10.436825686572	0.043841263372
0	1660	10.480666949944	0.02217119162
0	1666	10.502838141564	0.236788668198
0	1670	10.739626809762	0.064390647478
0	1672	10.80401745724	0.005665453035
0	1674	10.809682910275	0.082256205141
0	1676	10.891939115416	0.070906808599
0	1678	10.962845924015	0.001339901951
0	1680	10.964185825966	0.00620639513
0	1682	10.970392221096	0.024847127453
0	1684	10.995239348549	0.033458824837
0	1696	11.028698173386	0.006388851066
0	1701	11.035087024452	0.004626429837
0	1706	11.039713454289	0.052843820946
0	1729	11.092557275235	0.065937511031
0	1735	11.158494786266	0.070069527343
0	1740	11.228564313609	0.057635168546
0	1745	11.286199482155	0.018550100735
0	1750	11.30474958289	0.029465833661
0	1755	11.334215416551	0.005277685357
0	1757	11.339493101908	0.018300451053
0	1765	11.357793552961	0.001182537494
0	1767	11.358976090455	0.002508638451
0	1770	11.361484728906	0.141744639358
0	1781	11.503229368264	0.04184034982
0	1786	11.545069718084	0.016354539824
0	1791	11.561424257908	0.021150467515
0	1796	11.582574725423	0.019069999485
0	1801	11.601644724908	0.044811697133
0	1806	11.646456422041	0.001816939326
0	1808	11.648273361367	0.070447045767
0	1817	11.718720407134	0.015921914568
0	1822	11.734642321702	0.129848620717
0	1828	11.864490942419	0.00058687181
0	1830	11.865077814229	0.067780203312
0	1838	11.932858017541	0.009181525821
0	1843	11.942039543362	0.000412413117
0	1845	11.942451956479	0.05067279287
0	1854	11.993124749349	0.015618848718
0	1860	12.008743598067	0.100961411324
0	1863	12.109705009391	0.045825442741
0	1865	12.155530452132	0.048520197321
0	1867	12.204050649453	0.006590324133
0	1869	12.210640973586	0.014511438993
0	1871	12.225152412579	0.0257645885
0	1873	12.250917001079	0.023536118089
0	1875	12.274453119168	0.001955451851
0	1877	12.276408571019	0.014489262294
0	1879	12.290897833313	0.007809872284
0	1881	12.298707705597	0.006924032761
0	1883	12.305631738358	0.000654341465
0	1885	12.306286079823	0.006563163292
0	1887	12.312849243115	0.055244445274
0	1890	12.368093688389	0.021790907039
0	1892	12.389884595428	0.00887269968
0	1894	12.398757295108	0.072661087115
0	1896	12.471418382223	0.014827998547
0	1898	12.48624638077	0.100959050094
0	1935	12.587205430864	0.092127660189
0	1964	12.679333091053	0.03279985512
0	1969	12.712132946173	0.042657888117
0	1974	12.75479083429	0.031778740956
0	1979	12.786569575246	0.001132488163
0	1981	12.787702063409	0.053579092919
0	1989	12.841281156328	0.006298506954
0	1991	12.847579663282	0.024261991934
0	1999	12.871841655216	0.034001875533
0	2004	12.905843530749	0.001808901703
0	2006	12.907652432452	0.030132327284
0	2014	12.937784759736	0.042033981729
0	2019	12.979818741465	0.009508382462
0	2024	12.989327123927	0.17076965108
0	2052	13.160096775007	0.095247188957
0	2060	13.255343963964	0.010883873174
0	2066	13.266227837138	0.033314039764
0	2072	13.299541876902	0.039780877334
0	2078	13.339322754236	0.02684778791
0	2085	13.366170542146	0.069901018862
0	2093	13.436071561008	0.031198250192
0	2099	13.4672698112	0.048638697232
0	2107	13.515908508432	0.045842487998
0	2109	13.56175099643	0.116827701685
0	2115	13.678578698115	0.013086027357
0	2123	13.691664725472	0.028279301869
0	2128	13.719944027341	0.017775279294
0	2133	13.737719306635	0.00835635055
0	2138	13.746075657185	0.00824336007
0	2143	13.754319017255	0.008805951459
0	2149	13.763124968714	0.007211121697
0	2151	13.770336090411	0.008640074408
0	2160	13.778976164819	0.101117645716
0	2168	13.880093810535	0.02950425714
0	2174	13.909598067675	0.047087160163
0	2180	13.956685227838	0.021058764528
0	2186	13.977743992366	0.023598559937
0	2192	14.001342552303	0.123006753819
0	2197	14.124349306122	0.009030446738
0	2202	14.13337975286	0.0399398266
0	2207	14.17331957946	0.010272767817
0	2212	14.183592347277	0.00312040015
0	2214	14.186712747427	0.002092333702
0	2216	14.188805081129	0.002032532674
0	2218	14.190837613803	0.019946414786
0	2229	14.210784028589	0.023418980329
0	2237	14.234203008918	0.013078442804
0	2242	14.247281451722	0.074503453309
0	2247	14.321784905031	0.041715033628
0	2252	14.363499938659	0.131134311484
0	2258	14.494634250143	0.016604570162
0	2263	14.511238820305	0.033650385005
0	2268	14.54488920531	0.006928870737
0	2270	14.551818076047	0.027369150231
0	2278	14.579187226278	0.000874592366
0	2280	14.580061818644	0.067492604791
0	2288	14.647554423435	0.002436618488
0	2290	14.649991041923	0.047667610351
0	2299	14.697658652274	0.039813847694
0	2305	14.737472499968	0.022793075617
0	2310	14.760265575585	0.021160342642
0	2315	14.781425918227	0.039562444107
0	2320	14.820988362334	0.026919193038
0	2325	14.847907555372	0.032692111641
0	2330	14.880599667013	0.079444400552
0	2335	14.960044067565	0.043897114453
0	2341	15.003941182018	0.162387838423
0	2344	15.166329020441	0.022187550679
0	2347	15.18851657112	0.008557185772
0	2349	15.197073756892	0.021309151981
0	2351	15.218382908873	0.038076655177
0	2353	15.25645956405	0.082912135979
0	2355	15.339371700029	0.010696171564
0	2357	15.350067871593	0.005165861151
0	2359	15.355233732744	0.000730352651
0	2361	15.355964085395	0.009112299404
0	2363	15.365076384799	0.049713420945
0	2365	15.414789805744	0.074674715062
0	2367	15.489464520806	0.013499069292
0	2371	15.502963590098	0.08217453165
0	2407	15.585138121748	0.016927343562
0	2418	15.60206546531	0.036324752642
0	2426	15.638390217952	0.031062567497
0	2431	15.669452785449	0.013740055987
0	2436	15.683192841436	0.062235016789
0	2442	15.745427858225	0.025667868561
0	2447	15.771095726786	0.034702650251
0	2452	15.805798377037	1.937316e-006
0	2454	15.805800314353	0.072128743431
0	2462	15.877929057784	0.013081715284
0	2467	15.891010773068	0.011185112921
0	2472	15.902195885989	0.019395979017
0	2477	15.921591865006	0.055990180464
0	2482	15.97758204547	0.075801728831
0	2488	16.053383774301	0.007187171906
0	2490	16.060570946207	0.039867017774
0	2498	16.100437963981	0.106861463436
0	2503	16.207299427417	0.021316561445
0	2508	16.228615988862	0.04070896492
0	2513	16.269324953782	0.023117607791
0	2518	16.292442561573	0.008495147279
0	2523	16.300937708852	0.054413202823
0	2528	16.355350911675	0.10305680971
0	2534	16.458407721385	0.009122404528
0	2539	16.467530125913	0.045937779754
0	2545	16.513467905667	0.074296132888
0	2547	16.587764038555	0.010253301047
0	2549	16.598017339602	0.013175027303
0	2551	16.611192366905	0.00839732318
0	2553	16.619589690085	0.11049834395
0	2555	16.730088034035	0.025557968283
0	2558	16.755646002318	0.022336601196
0	2560	16.777982603514	0.000909921082
0	2562	16.778892524596	0.043517277228
0	2564	16.822409801824	0.008138375643
0	2566	16.830548177467	0.005840612443
0	2568	16.83638878991	0.019349342973
0	2570	16.855738132883	0.045884032886
0	2572	16.901622165769	0.016403676659
0	2574	16.918025842428	0.03637219728
0	2576	16.954398039708	0.021799025842
0	2578	16.97619706555	0.008467187567
0	2580	16.984664253117	0.011382560629
0	2582	16.996046813746	0.007222529776
0	2585	17.003269343522	0.030932497961
0	2599	17.034201841483	0.057682666061
0	2625	17.091884507544	0.069791372045
0	2657	17.161675879589	0.048113798383
0	2662	17.209789677972	0.004376140647
0	2664	17.214165818619	0.039321117484
0	2672	17.253486936103	0.025498334496
0	2677	17.278985270599	0.011346968972
0	2682	17.290332239571	0.004957471218
0	2684	17.295289710789	0.006729150429
0	2689	17.302018861218	0.044163443572
0	2698	17.34618230479	0.042664977081
0	2703	17.388847281871	0.017649797664
0	2708	17.406497079535	0.021771292168
0	2713	17.428268371703	0.029168238423
0	2718	17.457436610126	0.064234219103
0	2723	17.521670829229	0.007086056729
0	2725	17.528756885958	0.008023551382
0	2733	17.53678043734	0.005476651963
0	2735	17.542257089303	0.006309600485
0	2740	17.548566689788	0.02343392068
0	2748	17.572000610468	0.004666921815
0	2750	17.576667532283	0.015380938667
0	2758	17.59204847095	0.044814852389
0	2763	17.636863323339	0.098722258195
0	2768	17.735585581534	0.001082420205
0	2770	17.736668001739	0.050734417175
0	2779	17.787402418914	0.048102005505
0	2784	17.835504424419	0.048333708348
0	2789	17.883838132767	0.003400868743
0	2791	17.88723900151	0.081917218623
0	2799	17.969156220133	0.008581933242
0	2804	17.977738153375	0.003048800414
0	2806	17.980786953789	0.048416076315
0	2815	18.029203030104	0.028118711693
0	2817	18.057321741797	0.04604691904
0	2820	18.103368660837	0.030737527755
0	2822	18.134106188592	0.001634071028
0	2824	18.13574025962	0.114397374029
0	2826	18.250137633649	0.008212954724
0	2828	18.258350588373	0.01209318543
0	2830	18.270443773803	0.01183541502
0	2832	18.282279188823	0.009643477796
0	2834	18.291922666619	0.039582146772
0	2836	18.331504813391	0.003699051094
0	2838	18.335203864485	0.002278950268
0	2840	18.337482814753	0.000579813305
0	2842	18.338062628058	0.028389935778
0	2844	18.366452563836	0.092839548043
0	2846	18.459292111879	0.000324905853
0	2848	18.459617017732	0.038794341397
0	2851	18.498411359129	0.062649636157
0	2879	18.561060995286	0.053824005007
0	2905	18.614885000293	0.145458988345
0	2919	18.760343988638	0.011581845841
0	2924	18.771925834479	0.042549166568
0	2930	18.814475001047	0.030900819073
0	2935	18.84537582012	0.007015476828
0	2937	18.852391296948	0.002313220374
0	2942	18.854704517322	0.025138626804
0	2950	18.879843144126	0.023268271234
0	2955	18.90311141536	0.030399800601
0	2960	18.933511215961	0.132790832408
0	2965	19.066302048369	0.05421540877
0	2970	19.120517457139	0.073204480042
0	2976	19.193721937181	0.032641414934
0	2982	19.226363352115	0.014445545335
0	2987	19.24080889745	0.008624553777
0	2992	19.249433451227	0.114062234201
0	2997	19.363495685428	0.021254775102
0	3002	19.38475046053	0.009225198949
0	3007	19.393975659479	0.073881107103
0	3012	19.467856766582	0.104377023642
0	3018	19.572233790224	0.023723070072
0	3020	19.595956860296	0.099282406768
0	3023	19.695239267064	0.044003294845
0	3025	19.739242561909	0.056191056707
0	3028	19.795433618616	0.023304487032
0	3030	19.818738105648	0.034841227518
0	3032	19.853579333166	0.043150816206
0	3034	19.896730149372	0.072581651209
0	3036	19.969311800581	0.024130208825
0	3038	19.993442009406	0.012136365633
0	3041	20.005578375039	0.065150107504
0	3071	20.070728482543	0.066153559433
0	3082	20.136882041976	0.007563367581
0	3087	20.144445409557	0.033670417431
0	3092	20.178115826988	0.051948486893
0	3097	20.230064313881	0.000466383569
0	3099	20.23053069745	0.128088006577
0	3107	20.358618704027	0.014928753421
0	3112	20.373547457448	0.069396211661
0	3117	20.442943669109	0.005611693307
0	3119	20.448555362416	0.053062412544
0	3127	20.50161777496	0.140278237921
0	3132	20.641896012881	0.147065079919
0	3137	20.7889610928	0.022777906983
0	3142	20.811738999783	0.049023649394
0	3147	20.860762649177	0.024078021746
0	3152	20.884840670923	0.000141971246
0	3154	20.884982642169	0.035706548078
0	3163	20.920689190247	0.010989926432
0	3168	20.931679116679	0.016092696122
0	3173	20.947771812801	0.018496352991
0	3178	20.966268165792	0.005152876306
0	3180	20.971421042098	0.01956526845
0	3188	20.990986310548	0.060432168291
0	3194	21.051418478839	0.012375880134
0	3196	21.063794358973	0.007368665087
0	3198	21.07116302406	0.017945012492
0	3200	21.089108036552	0.02506158613
0	3202	21.114169622682	0.004500308305
0	3204	21.118669930987	0.008890398242
0	3206	21.127560329229	0.138167164365
0	3208	21.265727493594	0.00360389273
0	3210	21.269331386324	0.018237758738
0	3212	21.287569145062	0.069366161939
0	3215	21.356935307001	0.029474770599
0	3218	21.3864100776	0.126312935174
0	3226	21.512723012774	0.014734765432
0	3234	21.527457778206	0.113398703842
0	3269	21.640856482048	0.054435302612
0	3274	21.69529178466	0.082963565321
0	3279	21.778255349981	0.018548655275
0	3284	21.796804005256	0.052060041402
0	3289	21.848864046658	0.015580226879
0	3294	21.864444273537	0.014181400882
0	3299	21.878625674419	0.017849679185
0	3304	21.896475353604	0.002960282212
0	3306	21.899435635816	0.012575286679
0	3314	21.912010922495	0.018303867878
0	3319	21.930314790373	0.052242125747
0	3324	21.98255691612	0.009249466245
0	3329	21.991806382365	0.091230013081
0	3334	22.083036395446	0.004974392899
0	3336	22.088010788345	0.013772584389
0	3344	22.101783372734	0.001921758039
0	3346	22.103705130773	0.106920092265
0	3354	22.210625223038	0.045260175058
0	3359	22.255885398096	0.000491630693
0	3361	22.256377028789	0.000402263757
0	3363	22.256779292546	0.026684828948
0	3374	22.283464121494	0.05152714553
0	3379	22.334991267024	0.012713477662
0	3384	22.347704744686	0.005562661288
0	3386	22.353267405974	0.075053491258
0	3395	22.428320897232	0.002900179552
0	3397	22.431221076784	0.010097944862
0	3402	22.441319021646	0.003285609155
0	3407	22.444604630801	0.039598256866
0	3415	22.484202887667	0.039021059767
0	3421	22.523223947434	0.058203802324
0	3423	22.581427749758	0.009853340786
0	3425	22.591281090544	0.019806308957
0	3427	22.611087399501	0.019098020017
0	3429	22.630185419518	0.048820418194
0	3431	22.679005837712	0.028525641581
0	3433	22.707531479293	0.061936693812
0	3435	22.769468173105	0.068952014796
0	3437	22.838420187901	0.016676750391
0	3439	22.855096938292	0.045445597246
0	3441	22.900542535538	0.003553692938
0	3443	22.904096228476	0.011030601005
0	3445	22.915126829481	0.010356565564
0	3447	22.925483395045	0.004933875955
0	3449	22.930417271	0.031371522176
0	3451	22.961788793176	0.001993828636
0	3453	22.963782621812	0.022651114642
0	3455	22.986433736454	0.012563646143
0	3457	22.998997382597	0.02342560052
0	3469	23.022422983117	0.010639004573
0	3474	23.03306198769	0.021470368136
0	3485	23.054532355826	0.021317255936
0	3496	23.075849611762	0.026025411712
0	3510	23.101875023474	0.040240948571
0	3527	23.142115972045	0.020419831986
0	3538	23.162535804031	0.041632368797
0	3552	23.204168172828	0.067019479017
0	3558	23.271187651845	0.011669116843
0	3563	23.282856768688	0.019885966931
0	3568	23.302742735619	0.016727129563
0	3573	23.319469865182	0.061380012576
0	3578	23.380849877758	0.006994943827
0	3580	23.387844821585	0.024920282297
0	3588	23.412765103882	0.054381092571
0	3593	23.467146196453	0.003161803543
0	3595	23.470307999996	0.002048476463
0	3597	23.472356476459	0.037762441797
0	3608	23.510118918256	0.041790467971
0	3613	23.551909386227	0.008099734018
0	3618	23.560009120245	0.052787533107
0	3623	23.612796653352	0.065769145197
0	3629	23.678565798549	0.05258444778
0	3634	23.731150246329	0.040029171721
0	3639	23.77117941805	0.01051137781
0	3644	23.78169079586	0.006876166006
0	3646	23.788566961866	0.016383725863
0	3654	23.804950687729	0.002534668854
0	3656	23.807485356583	0.031001622611
0	3664	23.838486979194	0.000340739327
0	3666	23.838827718521	0.011150434676
0	3671	23.849978153197	0.07791293963
0	3679	23.927891092827	0.016218650964
0	3684	23.944109743791	0.005013855748
0	3686	23.949123599539	0.007681385631
0	3691	23.95680498517	0.052866156043
0	3700	24.009671141213	0.021557174932
0	3702	24.031228316145	0.090735701307
0	3704	24.121964017452	0.001597331732
0	3706	24.123561349184	0.043956271952
0	3708	24.167517621136	0.056294624718
0	3710	24.223812245854	0.023623284078
0	3712	24.247435529932	0.002802759958
0	3714	24.25023828989	0.022187624427
0	3716	24.272425914317	0.02560408687
0	3718	24.298030001187	0.075008489515
0	3721	24.373038490702	0.012825795214
0	3723	24.385864285916	0.02345811568
0	3725	24.409322401596	0.030158362213
0	3727	24.439480763809	0.018739152288
0	3729	24.458219916097	0.112168309036
0	3759	24.570388225133	0.006695361606
0	3764	24.577083586739	0.036303578294
0	3781	24.613387165033	0.022571797191
0	3794	24.635958962224	0.001260099041
0	3796	24.637219061265	0.053579694663
0	3804	24.690798755928	0.019698882064
0	3809	24.710497637992	0.028451442641
0	3814	24.738949080633	0.024968449898
0	3819	24.763917530531	0.006096830613
0	3821	24.770014361144	0.026888866965
0	3829	24.796903228109	0.005434995493
0	3831	24.802338223602	0.040032838269
0	3839	24.842371061871	0.036690118673
0	3844	24.879061180544	0.011380980467
0	3849	24.890442161011	0.027119483283
0	3854	24.917561644294	0.004828363118
0	3856	24.922390007412	0.013792015018
0	3864	24.93618202243	0.01745423165
0	3869	24.95363625408	0.005565420588
0	3871	24.959201674668	0.109649032134
0	3879	25.068850706802	0.00609695508
0	3881	25.074947661882	0.007251481379
0	3886	25.082199143261	0.00485053875
0	3891	25.087049682011	0.082013397553
0	3899	25.169063079564	0.03027283383
0	3904	25.199335913394	0.027469295686
0	3909	25.22680520908	0.003387911531
0	3911	25.230193120611	0.021366899575
0	3919	25.251560020186	0.084490575068
0	3924	25.336050595254	0.074809759165
0	3930	25.410860354419	0.003031594806
0	3932	25.413891949225	0.021476147341
0	3940	25.435368096566	0.056396619969
0	3945	25.491764716535	0.045078669128
0	3951	25.536843385663	0.073382269573
0	3954	25.610225655236	0.01782208704
0	3956	25.628047742276	0.003434183292
0	3958	25.631481925568	0.082035437428
0	3960	25.713517362996	0.019448061961
0	3962	25.732965424957	0.040994229323
0	3964	25.77395965428	0.022434074084
0	3966	25.796393728364	0.042094982434
0	3968	25.838488710798	0.030378949371
0	3970	25.868867660169	0.013897833251
0	3972	25.88276549342	0.044087440972
0	3974	25.926852934392	0.049482416534
0	3976	25.976335350926	0.000960473515
0	3978	25.977295824441	0.035376920708
0	3986	26.012672745149	0.046008273433
0	4009	26.058681018582	0.00960622327
0	4014	26.068287241852	0.050979607405
0	4037	26.119266849257	0.006124826688
0	4042	26.125391675945	0.000343505274
0	4044	26.125735181219	0.055704464298
0	4055	26.181439645517	0.012900402886
0	4060	26.194340048403	0.111938924187
0	4065	26.30627897259	0.009278258549
0	4070	26.315557231139	0.02144609057
0	4075	26.337003321709	0.024500897264
0	4080	26.361504218973	0.031290049094
0	4085	26.392794268067	0.107557632797
0	4090	26.500351900864	0.068249191915
0	4095	26.568601092779	0.028560649739
0	4100	26.597161742518	0.021387014645
0	4105	26.618548757163	0.003589316255
0	4107	26.622138073418	0.106187990034
0	4115	26.728326063452	0.034020381187
0	4120	26.762346444639	0.030010228591
0	4125	26.79235667323	0.06957788092
0	4130	26.86193455415	0.060167425913
0	4135	26.922101980063	0.006003851958
0	4137	26.928105832021	0.083831292629
0	4146	27.01193712465	0.170922464662
0	4148	27.182859589312	0.059158223417
0	4151	27.242017812729	0.003109133393
0	4153	27.245126946122	0.006077979712
0	4155	27.251204925834	0.003472753427
0	4157	27.254677679261	0.034694782702
0	4159	27.289372461963	0.035141791086
0	4161	27.324514253049	0.017787680892
0	4163	27.342301933941	0.104362288006
0	4165	27.446664221947	0.002266799248
0	4167	27.448931021195	0.096621155949
0	4188	27.545552177144	0.019309626441
0	4199	27.564861803585	0.020757855906
0	4211	27.585619659491	0.010476493385
0	4216	27.596096152876	0.045529309961
0	4224	27.641625462837	0.066175520405
0	4230	27.707800983242	0.047450147985
0	4235	27.755251131227	0.001185514933
0	4237	27.75643664616	0.012834680383
0	4242	27.769271326543	0.111781665544
0	4250	27.881052992087	0.004465075083
0	4252	27.88551806717	0.015367694496
0	4260	27.900885761666	0.020536908234
0	4265	27.9214226699	0.015440418376
0	4270	27.936863088276	0.017402325022
0	4275	27.954265413298	0.000576214939
0	4277	27.954841628237	0.026563767099
0	4286	27.981405395336	0.00716982935
0	4291	27.988575224686	0.065332416456
0	4296	28.053907641142	0.017952444714
0	4301	28.071860085856	0.026896190209
0	4306	28.098756276065	0.092721589178
0	4312	28.191477865243	0.039909760692
0	4317	28.231387625935	0.003672646156
0	4319	28.235060272091	0.032882569505
0	4327	28.267942841596	0.101707186128
0	4332	28.369650027724	0.003628479282
0	4334	28.373278507006	0.071270296555
0	4342	28.444548803561	0.003378944766
0	4344	28.447927748327	0.021190182357
0	4352	28.469117930684	0.002015752089
0	4354	28.471133682773	0.013844796014
0	4362	28.484978478787	0.003167761455
0	4364	28.488146240242	0.009272722817
0	4369	28.497418963059	0.009475353676
0	4378	28.506894316735	0.033359288839
0	4380	28.540253605574	0.064033975455
0	4382	28.604287581029	0.001177187232
0	4384	28.605464768261	0.025862200698
0	4386	28.631326968959	0.000550519332
0	4388	28.631877488291	0.025187571419
0	4390	28.65706505971	0.019600293067
0	4392	28.676665352777	0.036726975807
0	4394	28.713392328584	0.002467568193
0	4396	28.715859896777	0.027529568216
0	4400	28.743389464993	0.010159569529
0	4402	28.753549034522	0.001155139477
0	4404	28.754704173999	0.008748278583
0	4406	28.763452452582	0.030375165446
0	4408	28.793827618028	0.010218112511
0	4410	28.804045730539	0.051604777867
0	4413	28.855650508406	0.004916650093
0	4415	28.860567158499	0.016518883072
0	4417	28.877086041571	0.000423823577
0	4419	28.877509865148	0.023637455456
0	4421	28.901147320604	0.004295025256
0	4423	28.90544234586	0.139914721685
0	4442	29.045357067545	0.03372574437
0	4459	29.079082811915	0.009820157416
0	4464	29.088902969331	0.128084674146
0	4508	29.216987643477	0.016412246455
0	4513	29.233399889932	0.162409799858
0	4518	29.39580968979	0.001635721561
0	4520	29.397445411351	0.018411077852
0	4528	29.415856489203	0.012990660228
0	4533	29.428847149431	0.006225686525
0	4535	29.435072835956	0.062332713621
0	4543	29.497405549577	0.035637615258
0	4551	29.533043164835	0.057581419948
0	4564	29.590624584783	0.023588020548
0	4573	29.614212605331	0.035760142159
0	4583	29.64997274749	0.159173834815
0	4595	29.809146582305	0.016065977462
0	4600	29.825212559767	0.002363695491
0	4602	29.827576255258	0.013127168009
0	4610	29.840703423267	0.053512860475
0	4616	29.894216283742	0.056653137325
0	4626	29.950869421067	0.011908302686
0	4631	29.962777723753	0.002556808
0	4633	29.965334531753	0.009670681752
0	4638	29.975005213505	0.040273190753
0	4648	30.015278404258	0.038017115891
0	4654	30.053295520149	0.016772444307
0	4659	30.070067964456	0.009885634919
0	4664	30.079953599375	0.035172665817
0	4670	30.115126265192	0.038366739635
0	4676	30.153493004827	0.091547432635
0	4682	30.245040437462	0.025493215056
0	4687	30.270533652518	0.067330849973
0	4694	30.337864502491	0.019313074257
0	4701	30.357177576748	0.024097986082
0	4706	30.38127556283	0.02831428933
0	4712	30.40958985216	0.019541437624
0	4717	30.429131289784	0.011842114154
0	4722	30.440973403938	0.060519187319
0	4732	30.501492591257	0.042914627428
0	4737	30.544407218685	0.046909658669
0	4743	30.591316877354	0.018756457837
0	4748	30.610073335191	0.020743009628
0	4753	30.630816344819	0.015649896591
0	4758	30.64646624141	0.121472577819
0	4764	30.767938819229	0.061743058727
0	4769	30.829681877956	0.015793357947
0	4774	30.845475235903	0.090643915092
0	4779	30.936119150995	0.017735312486
0	4784	30.953854463481	0.001648474487
0	4786	30.955502937968	0.046970690941
0	4794	31.002473628909	0.009267379567
0	4799	31.011741008476	0.020866016199
0	4804	31.032607024675	0.014997766146
0	4809	31.047604790821	0.096920056899
0	4814	31.14452484772	0.059052640107
0	4819	31.203577487827	0.010408073477
0	4824	31.213985561304	0.148155552872
0	4830	31.362141114176	0.016830737851
0	4835	31.378971852027	0.121549949707
0	4841	31.500521801734	0.041807148023
0	4843	31.542328949757	0.082366716883
0	4845	31.62469566664	0.079579750834
0	4847	31.704275417474	0.01231185849
0	4849	31.716587275964	0.004516347611
0	4851	31.721103623575	0.169040208679
0	4854	31.890143832254	0.009676545079
0	4856	31.899820377333	0.010041818338
0	4858	31.909862195671	0.009068928956
0	4860	31.918931124627	0.00391805894
0	4862	31.922849183567	0.023533401571
0	4864	31.946382585138	0.105523889527
0	4888	32.051906474665	0.077742496412
0	4908	32.129648971077	0.009303579216
0	4913	32.138952550293	0.01551670386
0	4918	32.154469254153	0.04096525055
0	4923	32.195434504703	0.017028169892
0	4928	32.212462674595	0.00210449292
0	4930	32.214567167515	0.086997087952
0	4938	32.301564255467	0.045918707838
0	4943	32.347482963305	0.004229098869
0	4945	32.351712062174	0.074714583809
0	4953	32.426426645983	0.034905462346
0	4958	32.461332108329	0.011131909082
0	4963	32.472464017411	0.004987603098
0	4965	32.477451620509	0.016678053734
0	4973	32.494129674243	0.016407849207
0	4978	32.51053752345	0.016410735447
0	4983	32.526948258897	0.013725645137
0	4988	32.540673904034	0.048351067795
0	4993	32.589024971829	0.039892839233
0	4998	32.628917811062	0.009504452709
0	5003	32.638422263771	0.055557503039
0	5009	32.69397976681	0.006599765349
0	5011	32.700579532159	0.024536592826
0	5019	32.725116124985	0.020879247091
0	5024	32.745995372076	0.012296244854
0	5029	32.75829161693	0.012707759406
0	5034	32.770999376336	0.075992905847
0	5039	32.846992282183	0.063963419374
0	5044	32.910955701557	0.015178269938
0	5049	32.926133971495	0.009501448825
0	5054	32.93563542032	0.046931560361
0	5059	32.982566980681	0.024427814209
0	5065	33.00699479489	0.028367260151
0	5067	33.035362055041	0.100009887174
0	5070	33.135371942215	0.007876487285
0	5072	33.1432484295	0.0351790477
0	5074	33.1784274772	0.027832777046
0	5076	33.206260254246	0.070685457613
0	5078	33.276945711859	0.025662886854
0	5080	33.302608598713	0.098591910549
0	5082	33.401200509262	0.015011914252
0	5084	33.416212423514	0.048627547743
0	5086	33.464839971257	0.00087248335
0	5088	33.465712454607	0.042089507065
0	5095	33.507801961672	0.005639990259
0	5097	33.513441951931	0.120433041665
0	5138	33.633874993596	0.004948758946
0	5140	33.638823752542	0.181479529806
0	5148	33.820303282348	0.043075159786
0	5153	33.863378442134	0.021040412623
0	5158	33.884418854757	0.043213795662
0	5163	33.927632650419	0.00257272321
0	5165	33.930205373629	0.033113560944
0	5173	33.963318934573	0.012125166462
0	5178	33.975444101035	0.03900603811
0	5183	34.014450139145	0.005785255431
0	5185	34.020235394576	0.020766569889
0	5193	34.041001964465	0.018914094416
0	5198	34.059916058881	0.041684350869
0	5203	34.10160040975	0.00492608044
0	5205	34.10652649019	0.016636888437
0	5213	34.123163378627	0.03243235101
0	5218	34.155595729637	0.003688864547
0	5220	34.159284594184	0.016890132531
0	5228	34.176174726715	0.11288606293
0	5233	34.289060789645	0.079011687676
0	5238	34.368072477321	0.002631713321
0	5240	34.370704190642	0.120246818737
0	5248	34.490951009379	0.000682125253
0	5250	34.491633134632	0.027706318311
0	5259	34.519339452943	0.136181853164
0	5262	34.655521306107	0.0112469106
0	5264	34.666768216707	0.00562555142
0	5266	34.672393768127	0.031396855494
0	5268	34.703790623621	0.010477355103
0	5270	34.714267978724	0.079474853759
0	5272	34.793742832483	0.008496090308
0	5274	34.802238922791	0.018273895654
0	5276	34.820512818445	0.030355220659
0	5278	34.850868039104	0.028109787017
0	5280	34.878977826121	0.130179290881
0	5284	35.009157117002	0.011094208296
0	5292	35.020251325298	0.011159436694
0	5297	35.031410761992	0.021272466744
0	5308	35.052683228736	0.122817224285
0	5338	35.175500453021	0.017978996464
0	5343	35.193479449485	0.000903981555
0	5345	35.19438343104	0.009994912218
0	5350	35.204378343258	0.07663763501
0	5358	35.281015978268	0.024673226248
0	5363	35.305689204516	0.043158105453
0	5369	35.348847309969	0.013006551419
0	5374	35.361853861388	0.011389585101
0	5379	35.373243446489	0.016340252025
0	5384	35.389583698514	0.078837250452
0	5389	35.468420948966	0.026053239149
0	5395	35.494474188115	0.000940821683
0	5397	35.495415009798	0.048603704585
0	5411	35.544018714383	0.034388491995
0	5421	35.578407206378	0.014200422035
0	5428	35.592607628413	0.013992834537
0	5435	35.60660046295	0.090268959578
0	5442	35.696869422528	0.119522371585
0	5452	35.816391794113	0.06939844031
0	5460	35.885790234423	0.006461555552
0	5462	35.892251789975	0.001747046085
0	5467	35.89399883606	0.08111341219
0	5476	35.97511224825	0.010239271042
0	5482	35.985351519292	0.014013353601
0	5487	35.999364872893	0.020679232714
0	5495	36.020044105607	0.077011526216
0	5502	36.097055631823	0.003868055681
0	5505	36.100923687504	0.025142804232
0	5514	36.126066491736	0.014995436008
0	5520	36.141061927744	0.025012196558
0	5525	36.166074124302	0.047160708829
0	5531	36.213234833131	0.017118794372
0	5536	36.230353627503	0.039936516699
0	5541	36.270290144202	0.026432413622
0	5546	36.296722557824	0.034085750702
0	5552	36.330808308526	0.101329116596
0	5561	36.432137425122	0.043389432822
0	5566	36.475526857944	0.078177394788
0	5575	36.553704252732	0.008026101007
0	5580	36.561730353739	0.039566001941
0	5585	36.60129635568	0.014633208063
0	5592	36.615929563743	0.035663361338
0	5599	36.651592925081	0.039471615175
0	5605	36.691064540256	0.027820549262
0	5611	36.718885089518	0.073986738513
0	5619	36.792871828031	0.011143755562
0	5624	36.804015583593	0.027459484392
0	5630	36.831475067985	0.005616943758
0	5633	36.837092011743	0.011629121825
0	5642	36.848721133568	0.067901687346
0	5647	36.916622820914	0.001074562055
0	5649	36.917697382969	0.035280473917
0	5658	36.952977856886	0.043366277758
0	5665	36.996344134644	0.012465802355
0	5670	37.008809936999	0.000277037128
0	5672	37.009086974127	0.021580758098
0	5680	37.030667732225	0.016320395925
0	5685	37.04698812815	0.000869162271
0	5687	37.047857290421	0.026465818673
0	5697	37.074323109094	0.02858074411
0	5702	37.102903853204	0.089336677274
0	5710	37.192240530478	0.015683078893
0	5716	37.207923609371	0.003281438566
0	5718	37.211205047937	0.024450335213
0	5727	37.23565538315	0.01822726027
0	5732	37.25388264342	0.005837851534
0	5734	37.259720494954	0.000861477542
0	5736	37.260581972496	0.019399396569
0	5747	37.279981369065	0.014681776321
0	5752	37.294663145386	0.082820159235
0	5762	37.377483304621	0.034071539028
0	5768	37.411554843649	0.000299180653
0	5770	37.411854024302	0.011452363346
0	5775	37.423306387648	0.121428784357
0	5793	37.544735172005	0.008239205328
0	5798	37.552974377333	0.041092454788
0	5806	37.594066832121	0.004303689841
0	5808	37.598370521962	0.00366492957
0	5813	37.602035451532	0.030125014763
0	5822	37.632160466295	0.011976114207
0	5827	37.644136580502	0.04159152061
0	5832	37.685728101112	0.027108087578
0	5839	37.71283618869	0.039011385105
0	5847	37.751847573795	0.045076158369
0	5856	37.796923732164	0.104062291882
0	5863	37.900986024046	0.017235448173
0	5868	37.918221472219	9.474061e-005
0	5870	37.918316212829	0.009015470322
0	5879	37.927331683151	0.036464556269
0	5886	37.96379623942	0.021234934324
0	5891	37.985031173744	0.032104512892
0	5897	38.017135686636	0.125247560404
0	5902	38.14238324704	0.031098504931
0	5907	38.173481751971	0.06281355899
0	5912	38.236295310961	0.115172709059
0	5917	38.35146802002	0.086192549429
0	5922	38.437660569449	0.000595546831
0	5924	38.43825611628	0.038516398567
0	5932	38.476772514847	0.041731052098
0	5937	38.518503566945	0.020335302941
0	5942	38.538838869886	0.058809884003
0	5947	38.597648753889	0.040441615506
0	5952	38.638090369395	0.024953476769
0	5957	38.663043846164	0.036603885248
0	5962	38.699647731412	0.014224450336
0	5967	38.713872181748	0.001033613391
0	5969	38.714905795139	0.054762979274
0	5977	38.769668774413	0.088196104285
0	5982	38.857864878698	0.003580562335
0	5984	38.861445441033	0.027365954809
0	5992	38.888811395842	0.020421106031
0	5997	38.909232501873	0.16542383189
0	6003	39.074656333763	0.025685448846
0	6005	39.100341782609	0.016906855849
0	6007	39.117248638458	0.041440970772
0	6009	39.15868960923	0.057517363232
0	6012	39.216206972462	0.003334956901
0	6014	39.219541929363	0.0216318332
0	6016	39.241173762563	0.009046073705
0	6018	39.250219836268	0.06137068414
0	6020	39.311590520408	0.018485039675
0	6022	39.330075560083	0.027111480772
0	6024	39.357187040855	0.034170220804
0	6026	39.391357261659	0.076394986125
0	6028	39.467752247784	0.07630071565
0	6049	39.544052963434	0.07424040599
0	6075	39.618293369424	0.033757491662
0	6081	39.652050861086	0.013928193813
0	6086	39.665979054899	0.005013704632
0	6088	39.670992759531	0.018137974684
0	6096	39.689130734215	0.137951053962
0	6102	39.827081788177	0.027533909041
0	6107	39.854615697218	0.071891836935
0	6112	39.926507534153	0.034021713897
0	6117	39.96052924805	0.024451124843
0	6122	39.984980372893	0.016694921283
0	6127	40.001675294176	0.089443120083
0	6132	40.091118414259	0.02734090765
0	6137	40.118459321909	0.027283726009
0	6142	40.145743047918	0.004510752611
0	6144	40.150253800529	0.089877642005
0	6152	40.240131442534	0.039956543323
0	6157	40.280087985857	0.061997366176
0	6162	40.342085352033	0.011845439649
0	6167	40.353930791682	0.120785354528
0	6173	40.47471614621	0.001537453194
0	6175	40.476253599404	0.088305611147
0	6184	40.564559210551	0.004319331503
0	6186	40.568878542054	0.00128446746
0	6188	40.570163009514	0.003938548123
0	6190	40.574101557637	0.006723345165
0	6192	40.580824902802	0.0133178832
0	6194	40.594142786002	0.017250756893
0	6196	40.611393542895	0.009907535255
0	6198	40.62130107815	0.106383605655
0	6201	40.727684683805	0.028956407326
0	6203	40.756641091131	0.012485068844
0	6205	40.769126159975	0.082888261855
0	6208	40.85201442183	0.006121859103
0	6210	40.858136280933	0.030371430003
0	6212	40.888507710936	0.07609815175
0	6214	40.964605862686	0.031890103282
0	6216	40.996495965968	0.020695597495
0	6225	41.017191563463	0.00951530435
0	6230	41.026706867813	0.083461537013
0	6268	41.110168404826	0.030436537629
0	6283	41.140604942455	0.006111972877
0	6285	41.146716915332	0.005518521849
0	6290	41.152235437181	0.037873565957
0	6298	41.190109003138	0.014312113524
0	6303	41.204421116662	0.020310135579
0	6308	41.224731252241	0.034378336454
0	6313	41.259109588695	0.002784955428
0	6315	41.261894544123	0.015691525731
0	6323	41.277586069854	0.041728828473
0	6328	41.319314898327	0.084666798796
0	6334	41.403981697123	0.009947691023
0	6339	41.413929388146	0.073772312544
0	6344	41.48770170069	0.001414755218
0	6346	41.489116455908	0.019930263985
0	6354	41.509046719893	0.002163565203
0	6356	41.511210285096	0.025515235248
0	6364	41.536725520344	0.002205820549
0	6366	41.538931340893	0.022530368205
0	6374	41.561461709098	0.083407389562
0	6379	41.64486909866	0.007132488377
0	6381	41.652001587037	0.047131955099
0	6389	41.699133542136	0.019967709583
0	6394	41.719101251719	0.079918791205
0	6399	41.799020042924	0.007269615017
0	6404	41.806289657941	0.039078150075
0	6409	41.845367808016	0.043959845957
0	6414	41.889327653973	0.026346937821
0	6419	41.915674591794	0.0259088267
0	6424	41.941583418494	0.012706650404
0	6429	41.954290068898	0.013527296372
0	6434	41.96781736527	0.216856854155
0	6440	42.184674219425	0.000108652488
0	6442	42.184782871913	0.015739967878
0	6444	42.200522839791	0.031834974671
0	6447	42.232357814462	0.022263620903
0	6449	42.254621435365	0.036651728942
0	6452	42.291273164307	0.016632330357
0	6454	42.307905494664	0.000182109648
0	6456	42.308087604312	0.136102565297
0	6458	42.444190169609	0.122989258803
0	6488	42.567179428412	0.006718526568
0	6490	42.57389795498	0.038158595526
0	6498	42.612056550506	0.013911767797
0	6503	42.625968318303	0.01214251091
0	6509	42.638110829213	0.039918356624
0	6515	42.678029185837	0.007825967042
0	6520	42.685855152879	0.002285275848
0	6522	42.688140428727	0.090988563587
0	6530	42.779128992314	0.032710314572
0	6535	42.811839306886	0.012949271291
0	6540	42.824788578177	0.022729375438
0	6545	42.847517953615	0.018067120923
0	6550	42.865585074538	0.011692627907
0	6555	42.877277702445	0.035089684291
0	6560	42.912367386736	0.009532292922
0	6565	42.921899679658	0.077462953104
0	6570	42.999362632762	0.025291078314
0	6575	43.024653711076	0.019834568595
0	6580	43.044488279671	0.016056295593
0	6585	43.060544575264	0.092194598858
0	6590	43.152739174122	0.02134167605
0	6595	43.174080850172	0.03138400428
0	6600	43.205464854452	0.014409520226
0	6605	43.219874374678	0.019783934846
0	6611	43.239658309524	0.123310296943
0	6616	43.362968606467	0.031444082825
0	6621	43.394412689292	0.005012814502
0	6623	43.399425503794	0.015320880964
0	6631	43.414746384758	0.003563547469
0	6633	43.418309932227	0.037452887137
0	6641	43.455762819364	0.014723368534
0	6646	43.470486187898	0.036975434796
0	6652	43.507461622694	0.031293706084
0	6654	43.538755328778	0.060353715991
0	6656	43.599109044769	0.03767366608
0	6658	43.636782710849	0.01804066425
0	6660	43.654823375099	0.017719238848
0	6662	43.672542613947	0.001340107922
0	6664	43.673882721869	0.253171395848
0	6666	43.927054117717	0.146140526148
0	6693	44.073194643865	0.015179481464
0	6700	44.088374125329	0.020806310584
0	6705	44.109180435913	0.044730074521
0	6711	44.153910510434	0.097116411755
0	6716	44.251026922189	0.035523563543
0	6721	44.286550485732	0.039020339892
0	6726	44.325570825624	0.058692715655
0	6731	44.384263541279	0.010856864314
0	6736	44.395120405593	0.130870196731
0	6741	44.525990602324	0.029059122637
0	6746	44.555049724961	0.077189028133
0	6752	44.632238753094	0.110074914345
0	6757	44.742313667439	0.050620765025
0	6762	44.792934432464	0.004216039372
0	6764	44.797150471836	0.041935298575
0	6772	44.839085770411	0.011121926948
0	6777	44.850207697359	0.014305117898
0	6782	44.864512815257	0.002996727794
0	6784	44.867509543051	0.005592992315
0	6789	44.873102535366	0.050726265432
0	6797	44.923828800798	0.00226392618
0	6799	44.926092726978	0.000767458324
0	6801	44.926860185302	0.009692977886
0	6807	44.936553163188	0.005167115913
0	6812	44.941720279101	0.019814534309
0	6820	44.96153481341	0.010568425122
0	6825	44.972103238532	0.025834785989
0	6833	44.997938024521	0.071700410481
0	6839	45.069638435002	0.051911069281
0	6841	45.121549504283	0.006920611878
0	6843	45.128470116161	0.11157594603
0	6845	45.240046062191	0.019876069259
0	6847	45.25992213145	0.004367758229
0	6849	45.264289889679	0.013762605045
0	6851	45.278052494724	0.003961066634
0	6853	45.282013561358	0.030647357933
0	6856	45.312660919291	0.031179883066
0	6858	45.343840802357	0.096467457712
0	6861	45.440308260069	0.047881890748
0	6863	45.488190150817	0.09892833897
0	6899	45.587118489787	0.065970261497
0	6908	45.653088751284	0.001887793475
0	6910	45.654976544759	0.096118815458
0	6918	45.751095360217	0.031740208756
0	6923	45.782835568973	0.143497700243
0	6929	45.926333269216	0.077832398551
0	6935	46.004165667767	0.017867330695
0	6942	46.022032998462	0.053142920194
0	6954	46.075175918656	0.016750179987
0	6961	46.091926098643	0.008318305489
0	6968	46.100244404132	0.005598047467
0	6970	46.105842451599	0.050685114338
0	6978	46.156527565937	0.040424108675
0	6985	46.196951674612	0.007334757
0	6990	46.204286431612	0.037426587043
0	6995	46.241713018655	0.080159002697
0	7003	46.321872021352	0.069333435364
0	7008	46.391205456716	0.000313998557
0	7010	46.391519455273	0.003581146785
0	7012	46.395100602058	0.003309835778
0	7014	46.398410437836	0.024104879538
0	7028	46.422515317374	0.033790252989
0	7034	46.456305570363	0.030452796863
0	7039	46.486758367226	0.016869272335
0	7045	46.503627639561	0.009677068944
0	7048	46.513304708505	0.00355420697
0	7050	46.516858915475	0.006480461872
0	7055	46.523339377347	0.146834401704
0	7073	46.670173779051	0.068709315134
0	7081	46.738883094185	0.079413918032
0	7087	46.818297012217	0.002111130832
0	7089	46.820408143049	0.011068298704
0	7095	46.831476441753	0.022261766489
0	7103	46.853738208242	0.022432039812
0	7108	46.876170248054	0.004308865922
0	7110	46.880479113976	0.02287086409
0	7119	46.903349978066	0.02137639612
0	7127	46.924726374186	0.024852462098
0	7133	46.949578836284	0.136854926938
0	7141	47.086433763222	0.119669777594
0	7147	47.206103540816	0.019289828191
0	7152	47.225393369007	0.003686004672
0	7154	47.229079373679	0.068102460437
0	7162	47.297181834116	0.001416028448
0	7164	47.298597862564	0.004367563283
0	7167	47.302965425847	0.023137793029
0	7178	47.326103218876	0.011074958692
0	7183	47.337178177568	0.021453854404
0	7188	47.358632031972	0.018100842447
0	7193	47.376732874419	0.009387808265
0	7198	47.386120682684	0.017867940158
0	7203	47.403988622842	0.002123600506
0	7205	47.406112223348	0.038950233406
0	7213	47.445062456754	0.004627405994
0	7215	47.449689862748	0.014794142582
0	7223	47.46448400533	0.068012019471
0	7228	47.532496024801	0.043783203123
0	7233	47.576279227924	0.017859498922
0	7238	47.594138726846	0.035678831582
0	7243	47.629817558428	0.016810213483
0	7248	47.646627771911	0.017829997858
0	7253	47.664457769769	0.000777652821
0	7255	47.66523542259	0.01978240722
0	7263	47.68501782981	0.016436281124
0	7268	47.701454110934	0.033365007593
0	7273	47.734819118527	0.03792418659
0	7278	47.772743305117	0.002541562034
0	7280	47.775284867151	0.034362471696
0	7288	47.809647338847	0.060489078054
0	7293	47.870136416901	0.085865704453
0	7298	47.956002121354	0.037087573012
0	7303	47.993089694366	0.038994015776
0	7310	48.032083710142	0.045355723577
0	7312	48.077439433719	0.013708958896
0	7314	48.091148392615	0.026945167753
0	7316	48.118093560368	0.013304166097
0	7318	48.131397726465	0.004097451376
0	7320	48.135495177841	0.062707901756
0	7323	48.198203079597	0.018173880371
0	7325	48.216376959968	0.052333089135
0	7327	48.268710049103	0.018193768071
0	7329	48.286903817174	0.011553734292
0	7331	48.298457551466	0.013551911353
0	7333	48.312009462819	0.043802813493
0	7335	48.355812276312	0.001064279782
0	7337	48.356876556094	0.028860010311
0	7339	48.385736566405	0.046779894606
0	7341	48.432516461011	0.017859070263
0	7343	48.450375531274	0.004070208337
0	7345	48.454445739611	0.026489901103
0	7347	48.480935640714	0.03262653592
0	7353	48.513562176634	0.003118008512
0	7358	48.516680185146	0.0425164498
0	7378	48.559196634946	0.038347745459
0	7395	48.597544380405	0.035254544094
0	7412	48.632798924499	0.001052897844
0	7414	48.633851822343	0.111918056509
0	7437	48.745769878852	0.077028590603
0	7443	48.822798469455	0.003816115227
0	7445	48.826614584682	0.040112731227
0	7453	48.866727315909	0.070653231597
0	7459	48.937380547506	0.077675343262
0	7466	49.015055890768	0.00103686633
0	7468	49.016092757098	4.2290566e-005
0	7470	49.016135047664	0.02679386788
0	7484	49.042928915544	0.096883502019
0	7503	49.139812417563	0.018127320577
0	7511	49.15793973814	0.111210071751
0	7521	49.269149809891	0.025995331239
0	7526	49.29514514113	0.055692079217
0	7533	49.350837220347	0.015900065197
0	7539	49.366737285544	0.169315560717
0	7551	49.536052846261	0.007399741124
0	7556	49.543452587385	0.015359896196
0	7562	49.558812483581	0.000675783682
0	7564	49.559488267263	0.066014028739
0	7572	49.625502296002	0.025554270709
0	7578	49.651056566711	0.051541450189
0	7584	49.7025980169	0.064753122695
0	7589	49.767351139595	0.044619800839
0	7597	49.811970940434	0.016350362926
0	7602	49.82832130336	0.035123353576
0	7608	49.863444656936	0.008824888675
0	7613	49.872269545611	0.012854385862
0	7619	49.885123931473	0.002938601401
0	7621	49.888062532874	0.026972087128
0	7629	49.915034620002	0.003120987879
0	7631	49.918155607881	0.011234918026
0	7639	49.929390525907	0.008758864814
0	7644	49.938149390721	0.000305476371
0	7646	49.938454867092	0.003688164922
0	7648	49.942143032014	0.000884139263
0	7650	49.943027171277	0.010777857845
0	7658	49.953805029122	0.005453671514
0	7660	49.959258700636	0.002395360638
0	7665	49.961654061274	0.025236834155
0	7676	49.986890895429	0.002374955732
0	7681	49.989265851161	0.008815617464
0	7686	49.998081468625	0.067895161586
0	7696	50.065976630211	0.016142902216
0	7701	50.082119532427	0.006190824714
0	7703	50.088310357141	0.001983935841
0	7708	50.090294292982	0.028709064741
0	7716	50.119003357723	0.084746782626
0	7721	50.203750140349	0.051968492592
0	7727	50.255718632941	0.075684172995
0	7732	50.331402805936	0.02133457133
0	7737	50.352737377266	0.079650199408
0	7742	50.432387576674	0.005827156787
0	7744	50.438214733461	0.014131351749
0	7752	50.45234608521	0.007792359821
0	7757	50.460138445031	0.043680638095
0	7762	50.503819083126	0.019857884188
0	7767	50.523676967314	0.0194869784
0	7772	50.543163945714	0.026294533078
0	7778	50.569458478792	0.012568348899
0	7783	50.582026827691	0.015047277096
0	7788	50.597074104787	0.002555439034
0	7790	50.599629543821	0.053230656767
0	7798	50.652860200588	0.01917693532
0	7803	50.672037135908	0.048663626453
0	7808	50.720700762361	0.017204087556
0	7813	50.737904849917	0.091707055191
0	7819	50.829611905108	0.006118770001
0	7821	50.835730675109	0.001028298155
0	7826	50.836758973264	0.015088563953
0	7834	50.851847537217	0.079114015658
0	7839	50.930961552875	0.003517693331
0	7841	50.934479246206	0.017448071617
0	7849	50.951927317823	0.071705829775
0	7855	51.023633147598	0.073737724406
0	7857	51.097370872004	0.038548862741
0	7859	51.135919734745	0.041080120476
0	7861	51.176999855221	0.007492876813
0	7863	51.184492732034	0.1529499913
0	7866	51.337442723334	0.087575529389
0	7868	51.425018252723	0.049844585547
0	7870	51.47486283827	0.030335937473
0	7873	51.505198775743	0.015869469642
0	7882	51.521068245385	0.021301677392
0	7893	51.542369922777	0.024334652335
0	7907	51.566704575112	0.03598718614
0	7918	51.602691761252	0.016528006203
0	7923	51.619219767455	0.010257222423
0	7928	51.629476989878	0.015889700636
0	7934	51.645366690514	0.0280318039
0	7939	51.673398494414	0.010581484832
0	7944	51.683979979246	0.004950823675
0	7946	51.688930802921	0.023979202728
0	7954	51.712910005649	0.007832607025
0	7959	51.720742612674	0.040071025731
0	7964	51.760813638405	0.025258056169
0	7970	51.786071694574	0.011368588163
0	7975	51.797440282737	0.003590274096
0	7977	51.801030556833	0.026009747901
0	7985	51.827040304734	0.066834425648
0	7990	51.893874730382	0.004370130024
0	7992	51.898244860406	0.017619914041
0	8000	51.915864774447	0.006095922739
0	8002	51.921960697186	0.009287948522
0	8007	51.931248645708	0.001677801985
0	8012	51.932926447693	0.030818145341
0	8021	51.963744593034	0.123593449017
0	8028	52.087338042051	0.048080174264
0	8033	52.135418216315	0.000135373812
0	8035	52.135553590127	0.032865651123
0	8043	52.16841924125	0.006885224102
0	8045	52.175304465352	0.030280217062
0	8053	52.205584682414	0.033214522137
0	8058	52.238799204551	0.006525737197
0	8060	52.245324941748	0.002970499386
0	8065	52.248295441134	0.04058305881
0	8073	52.288878499944	0.074766787421
0	8078	52.363645287365	0.131728827774
0	8083	52.495374115139	0.044506350081
0	8090	52.53988046522	0.032830284046
0	8092	52.572710749266	0.118752575012
0	8094	52.691463324278	0.013932135175
0	8096	52.705395459453	0.02479876264
0	8098	52.730194222093	0.056804650597
0	8100	52.78699887269	0.012503812834
0	8102	52.799502685524	0.063353885401
0	8104	52.862856570925	0.027908946654
0	8106	52.890765517579	0.018781772904
0	8108	52.909547290483	0.093485874073
0	8110	53.003033164556	0.018801430798
0	8119	53.021834595354	0.025744486423
0	8130	53.047579081777	0.096549646302
0	8156	53.144128728079	0.010881222209
0	8161	53.155009950288	0.044827871307
0	8166	53.199837821595	0.073458645
0	8172	53.273296466595	0.001170916569
0	8174	53.274467383164	0.016278001031
0	8182	53.290745384195	0.019426110386
0	8187	53.310171494581	4.8450941e-005
0	8189	53.310219945522	0.003450982507
0	8191	53.313670928029	0.00996100644
0	8196	53.323631934469	0.134467070621
0	8207	53.45809900509	0.013407382348
0	8212	53.471506387438	0.029965815509
0	8217	53.501472202947	0.068509643728
0	8231	53.569981846675	0.036117224602
0	8240	53.606099071277	0.021469632314
0	8245	53.627568703591	0.015864956478
0	8250	53.643433660069	0.020581533409
0	8257	53.664015193478	0.038561667106
0	8262	53.702576860584	0.014336950603
0	8268	53.716913811187	0.029689338344
0	8273	53.746603149531	0.074407569948
0	8282	53.821010719479	0.052158718034
0	8290	53.873169437513	0.101531816441
0	8296	53.974701253954	0.080626240682
0	8306	54.055327494636	0.168514429991
0	8317	54.223841924627	0.018131016999
0	8323	54.241972941626	0.016547774065
0	8329	54.258520715691	0.078998049957
0	8335	54.337518765648	0.118500931602
0	8341	54.45601969725	0.002355393852
0	8343	54.458375091102	0.054937342411
0	8353	54.513312433513	0.040484475139
0	8358	54.553796908652	0.039411847919
0	8363	54.593208756571	0.009196439348
0	8368	54.602405195919	0.009831190442
0	8373	54.612236386361	0.027092521494
0	8378	54.639328907855	0.008537538445
0	8383	54.6478664463	0.051903577753
0	8388	54.699770024053	0.006355272618
0	8390	54.706125296671	0.048045340204
0	8398	54.754170636875	0.089627787017
0	8404	54.843798423892	0.044733020286
0	8409	54.888531444178	0.012188702196
0	8414	54.900720146374	0.023082598002
0	8419	54.923802744376	0.021121757735
0	8424	54.944924502111	0.007549494445
0	8429	54.952473996556	0.023839734733
0	8434	54.976313731289	0.008054401885
0	8439	54.984368133174	0.052704790008
0	8444	55.037072923182	0.026835388374
0	8449	55.063908311556	0.065079230035
0	8454	55.128987541591	0.02015730405
0	8459	55.149144845641	0.005241082289
0	8461	55.15438592793	0.129096519142
0	8470	55.283482447072	0.019484593243
0	8475	55.302967040315	0.012524843531
0	8480	55.315491883846	0.064770497631
0	8485	55.380262381477	0.002879189791
0	8487	55.383141571268	0.059637606155
0	8496	55.442779177423	0.04542427992
0	8501	55.488203457343	0.003781612341
0	8503	55.491985069684	0.129709672306
0	8512	55.62169474199	0.005951998108
0	8514	55.627646740098	0.053328459812
0	8517	55.68097519991	0.012694189767
0	8519	55.693669389677	0.009931253589
0	8521	55.703600643266	0.002742243038
0	8523	55.706342886304	0.001303613231
0	8525	55.707646499535	0.019347976673
0	8527	55.726994476208	0.018285023517
0	8529	55.745279499725	0.003985123006
0	8531	55.749264622731	0.073559275443
0	8534	55.822823898174	0.029394172548
0	8536	55.852218070722	0.019796802236
0	8538	55.872014872958	0.009908564015
0	8540	55.881923436973	0.011696839524
0	8542	55.893620276497	0.031759452198
0	8544	55.925379728695	0.095830815335
0	8553	56.02121054403	0.004375894209
0	8558	56.025586438239	0.051785129947
0	8581	56.077371568186	0.130370603093
0	8610	56.207742171279	0.033044943822
0	8615	56.240787115101	0.094378719887
0	8620	56.335165834988	9.3823042e-005
0	8622	56.33525965803	0.017403626444
0	8631	56.352663284474	0.093834828141
0	8636	56.446498112615	0.009705763513
0	8641	56.456203876128	0.039212567896
0	8646	56.495416444024	0.010087460877
0	8651	56.505503904901	0.008897163195
0	8657	56.514401068096	0.0231165863
0	8665	56.537517654396	0.000877260564
0	8667	56.53839491496	0.001428507512
0	8670	56.539823422472	0.000262372056
0	8672	56.540085794528	0.035729134667
0	8690	56.575814929195	0.091798893266
0	8705	56.667613822461	0.018366615543
0	8710	56.685980438004	0.041349188951
0	8716	56.727329626955	0.016585155265
0	8721	56.74391478222	0.042744806192
0	8727	56.786659588412	0.058008808223
0	8733	56.844668396635	0.031727544703
0	8740	56.876395941338	0.043209385442
0	8746	56.91960532678	0.026968806227
0	8751	56.946574133007	0.108023899861
0	8766	57.054598032868	0.021281106902
0	8771	57.07587913977	0.015181816633
0	8777	57.091060956403	0.032087085509
0	8782	57.123148041912	0.079740840998
0	8789	57.20288888291	0.03715436607
0	8795	57.24004324898	0.051433666055
0	8801	57.291476915035	0.016340526211
0	8807	57.307817441246	0.015479491615
0	8812	57.323296932861	0.038616385595
0	8818	57.361913318456	0.034019173758
0	8824	57.395932492214	0.021365174006
0	8829	57.41729766622	0.011916736704
0	8835	57.429214402924	0.003111647871
0	8837	57.432326050795	0.072612833384
0	8847	57.504938884179	0.009292326493
0	8852	57.514231210672	0.004174270449
0	8854	57.518405481121	0.002970580333
0	8856	57.521376061454	0.008358299581
0	8864	57.529734361035	0.013602174818
0	8869	57.543336535853	0.007075492769
0	8874	57.550412028622	0.033075629671
0	8882	57.583487658293	0.018055860288
0	8887	57.601543518581	0.016039609707
0	8892	57.617583128288	0.047859200165
0	8897	57.665442328453	0.045340983237
0	8902	57.71078331169	0.026196248222
0	8907	57.736979559912	0.03966858911
0	8912	57.776648149022	0.023407953946
0	8917	57.800056102968	0.005470242488
0	8919	57.805526345456	1.9114199e-005
0	8921	57.805545459655	0.006439088027
0	8926	57.811984547682	0.01939294507
0	8937	57.831377492752	0.002331179803
0	8939	57.833708672555	0.002298211481
0	8941	57.836006884036	0.010744208389
0	8949	57.846751092425	0.008172979711
0	8954	57.854924072136	0.014989031008
0	8963	57.869913103144	0.094292018974
0	8969	57.964205122118	0.003233563156
0	8971	57.967438685274	0.008490263561
0	8976	57.975928948835	0.03226577404
0	8984	58.008194722875	0.068400807009
0	8989	58.076595529884	0.04385773329
0	8994	58.120453263174	0.056840365533
0	8999	58.177293628707	0.005986813666
0	9001	58.183280442373	0.006066813243
0	9006	58.189347255616	0.014656577329
0	9014	58.204003832945	0.032573574482
0	9019	58.236577407427	0.045471976635
0	9024	58.282049384062	0.004302052585
0	9026	58.286351436647	0.038101566057
0	9034	58.324453002704	0.045553973796
0	9039	58.3700069765	0.067455657404
0	9044	58.437462633904	0.035511936399
0	9049	58.472974570303	0.02830765442
0	9055	58.501282224723	0.058484530132
0	9057	58.559766754855	0.000913288774
0	9059	58.560680043629	0.022846026719
0	9061	58.583526070348	0.00206601685
0	9063	58.585592087198	0.086222312021
0	9067	58.671814399219	0.002920680615
0	9069	58.674735079834	0.001771287326
0	9071	58.67650636716	0.025480800905
0	9073	58.701987168065	0.01212984532
0	9075	58.714117013385	0.049242569085
0	9077	58.76335958247	0.043940773502
0	9079	58.807300355972	0.001148194415
0	9081	58.808448550387	0.018951537278
0	9083	58.827400087665	0.021352477695
0	9085	58.84875256536	0.006646211511
0	9087	58.855398776871	0.060963490751
0	9089	58.916362267622	0.003969165277
0	9091	58.920331432899	0.038655638174
0	9093	58.958987071073	0.059504337524
0	9102	59.018491408597	0.027631680819
0	9113	59.046123089416	0.022428912502
0	9124	59.068552001918	0.031104640966
0	9136	59.099656642884	0.074881713304
0	9165	59.174538356188	0.079379663679
0	9179	59.253918019867	0.046255653716
0	9184	59.300173673583	0.029954722751
0	9189	59.330128396334	0.018450907639
0	9194	59.348579303973	0.019175404289
0	9199	59.367754708262	0.016366842704
0	9204	59.384121550966	0.042485119707
0	9209	59.426606670673	0.025372320271
0	9214	59.451978990944	0.015467661611
0	9219	59.467446652555	0.076956785138
0	9224	59.544403437693	0.126302925593
0	9229	59.670706363286	0.046783136356
0	9234	59.717489499642	0.072033191218
0	9239	59.78952269086	0.000180820014
0	9241	59.789703510874	0.005963207554
0	9243	59.795666718428	0.041464015273
0	9254	59.837130733701	0.040334385678
0	9259	59.877465119379	0.088185655563
0	9264	59.965650774942	0.00121326459
0	9266	59.966864039532	0.043380650557
0	9275	60.010244690089	0.075761951149
0	9277	60.086006641238	0.006818213378
0	9279	60.092824854616	0.065218509433
0	9281	60.158043364049	0.02312502827
0	9283	60.181168392319	0.024976390364
0	9285	60.206144782683	0.005291664926
0	9287	60.211436447609	0.004781310089
0	9289	60.216217757698	0.015565145923
0	9291	60.231782903621	0.034001378375
0	9294	60.265784281996	0.096826805882
0	9296	60.362611087878	0.009574770179
0	9298	60.372185858057	0.089877295192
0	9301	60.462063153249	0.03488132477
0	9303	60.496944478019	0.011635817255
0	9309	60.508580295274	0.041416883318
0	9326	60.549997178592	0.014523480395
0	9334	60.564520658987	0.003931713823
0	9339	60.56845237281	0.032088806305
0	9353	60.600541179115	0.022682462589
0	9368	60.623223641704	0.115576438336
0	9379	60.73880008004	0.030831766605
0	9384	60.769631846645	0.005597746135
0	9386	60.77522959278	0.010238482552
0	9394	60.785468075332	0.010393147057
0	9399	60.795861222389	0.007854252124
0	9404	60.803715474513	0.072378681031
0	9409	60.876094155544	0.035549943557
0	9414	60.911644099101	0.023697159932
0	9419	60.935341259033	0.050057677189
0	9424	60.985398936222	0.080228736905
0	9430	61.065627673127	0.015571446414
0	9435	61.081199119541	0.007182098642
0	9437	61.088381218183	0.043192800936
0	9445	61.131574019119	0.026625081064
0	9451	61.158199100183	0.030982589563
0	9456	61.189181689746	0.013822385223
0	9462	61.203004074969	0.058050768542
0	9467	61.261054843511	0.013320681476
0	9472	61.274375524987	0.007988631812
0	9477	61.282364156799	0.020726118139
0	9482	61.303090274938	0.055705373958
0	9487	61.358795648896	0.019863640434
0	9492	61.37865928933	0.01084307471
0	9497	61.38950236404	0.015475256018
0	9502	61.404977620058	0.012396951493
0	9507	61.417374571551	0.086266604775
0	9514	61.503641176326	0.133859937975
0	9517	61.637501114301	0.046053498112
0	9519	61.683554612413	0.001648704312
0	9521	61.685203316725	0.045510119971
0	9523	61.730713436696	0.007364591613
0	9525	61.738078028309	0.01198289445
0	9527	61.750060922759	0.025752766445
0	9529	61.775813689204	0.030172156955
0	9531	61.805985846159	0.016505850216
0	9533	61.822491696375	0.052864168654
0	9535	61.875355865029	0.009702120348
0	9537	61.885057985377	0.055567025065
0	9539	61.940625010442	0.040381731718
0	9541	61.98100674216	0.014784120729
0	9543	61.995790862889	0.038722357274
0	9559	62.034513220163	0.051571722183
0	9582	62.086084942346	0.11609735822
0	9602	62.202182300566	0.046599152266
0	9607	62.248781452832	0.073803361866
0	9612	62.322584814698	0.005340165185
0	9614	62.327924979883	0.208818249491
0	9623	62.536743229374	0.070332801585
0	9628	62.607076030959	0.015778343372
0	9633	62.622854374331	0.02037633686
0	9638	62.643230711191	0.001620132707
0	9640	62.644850843898	0.023321580661
0	9648	62.668172424559	0.013771883894
0	9653	62.681944308453	0.020820668956
0	9658	62.702764977409	0.024044847257
0	9663	62.726809824666	0.029364064903
0	9668	62.756173889569	0.006614248085
0	9671	62.762788137654	0.033973301175
0	9679	62.796761438829	0.003112002682
0	9681	62.799873441511	0.024132952267
0	9689	62.824006393778	0.02109838178
0	9694	62.845104775558	0.070553611252
0	9700	62.91565838681	0.094432906503
0	9706	63.010091293313	0.034585202861
0	9708	63.044676496174	0.050413706175
0	9710	63.095090202349	0.017962293343
0	9712	63.113052495692	0.013062690492
0	9715	63.126115186184	0.018866382799
0	9717	63.144981568983	0.076816846707
0	9719	63.22179841569	0.058280415458
0	9721	63.280078831148	0.041822484668
0	9724	63.321901315816	0.014980180266
0	9726	63.336881496082	0.021783930852
0	9728	63.358665426934	0.008314794003
0	9730	63.366980220937	0.010757854546
0	9732	63.377738075483	0.002142680124
0	9734	63.379880755607	0.029992308552
0	9736	63.409873064159	0.07306915921
0	9738	63.482942223369	0.007587650901
0	9740	63.49052987427	0.087770281734
0	9776	63.578300156004	0.047313773012
0	9796	63.625613929016	0.00447894807
0	9801	63.630092877086	0.096721675421
0	9809	63.726814552507	0.014251201319
0	9814	63.741065753826	0.03768305271
0	9820	63.778748806536	0.006748804608
0	9822	63.785497611144	0.045183694696
0	9831	63.83068130584	0.00431141803
0	9833	63.83499272387	0.006289887074
0	9838	63.841282610944	0.080543867811
0	9846	63.921826478755	0.048272537276
0	9851	63.970099016031	0.002049559691
0	9853	63.972148575722	0.024075617002
0	9861	63.996224192724	0.137781214544
0	9866	64.134005407268	0.003200352681
0	9868	64.137205759949	0.003549867419
0	9870	64.140755627368	0.017097125024
0	9881	64.157852752392	0.069692547417
0	9886	64.227545299809	0.045755198475
0	9891	64.273300498284	0.029255714864
0	9896	64.302556213148	0.030213699049
0	9901	64.332769912197	0.016055736947
0	9906	64.348825649144	0.01280421937
0	9911	64.361629868514	0.014667478125
0	9916	64.376297346639	0.157055444393
0	9922	64.533352791032	0.049566771817
0	9924	64.582919562849	0.029868674018
0	9926	64.612788236867	0.013219979694
0	9928	64.626008216561	0.101482452879
0	9930	64.72749066944	0.037483426623
0	9933	64.764974096063	0.028716364877
0	9935	64.79369046094	0.025494489139
0	9937	64.819184950079	0.029107503345
0	9939	64.848292453424	0.023223258973
0	9941	64.871515712397	0.001838413163
0	9943	64.87335412556	0.080999621451
0	9945	64.954353747011	0.003846597132
0	9947	64.958200344143	0.028310929102
0	9949	64.986511273245	0.033356869916
0	9958	65.019868143161	0.061378240607
0	9988	65.081246383768	0.04603908724
0	10005	65.127285471008	0.045257517826
0	10010	65.172542988834	0.009791488084
0	10015	65.182334476918	0.001376208748
0	10017	65.183710685666	0.116324674424
0	10025	65.30003536009	0.051915156941
0	10030	65.351950517031	0.047314639991
0	10035	65.399265157022	0.008555991241
0	10040	65.407821148263	0.009513823165
0	10045	65.417334971428	0.081710587772
0	10050	65.4990455592	0.036190203796
0	10055	65.535235762996	0.001535543728
0	10057	65.536771306724	0.014530123807
0	10065	65.551301430531	0.014177563021
0	10070	65.565478993552	0.045501610321
0	10075	65.610980603873	0.003677234152
0	10077	65.614657838025	0.030747342167
0	10085	65.645405180192	0.022591791986
0	10091	65.667996972178	0.049464443535
0	10096	65.717461415713	0.060022308644
0	10101	65.777483724357	0.010137249427
0	10106	65.787620973784	0.012393108003
0	10111	65.800014081787	0.094240995368
0	10117	65.894255077155	0.005726679473
0	10119	65.899981756628	0.173671146071
0	10129	66.073652902699	0.014030667478
0	10131	66.087683570177	0.006291743086
0	10133	66.093975313263	0.058847753834
0	10135	66.152823067097	0.02517538703
0	10137	66.177998454127	0.005294430577
0	10139	66.183292884704	0.069693977197
0	10142	66.252986861901	0.009028083025
0	10144	66.262014944926	0.014953666571
0	10146	66.276968611497	0.002496795225
0	10148	66.279465406722	0.009726956638
0	10150	66.28919236336	0.042811640919
0	10152	66.332004004279	0.045965022437
0	10155	66.377969026716	0.017601934584
0	10157	66.3955709613	0.13282613168
0	10169	66.52839709298	0.01302986241
0	10177	66.54142695539	0.024523486476
0	10191	66.565950441866	0.044382517335
0	10211	66.610332959201	0.017440108602
0	10219	66.627773067803	0.014330375943
0	10227	66.642103443746	0.01741144921
0	10232	66.659514892956	0.045538942325
0	10237	66.705053835281	0.05538192276
0	10242	66.760435758041	0.059096723981
0	10247	66.819532482022	0.042853406259
0	10252	66.862385888281	0.008591431875
0	10257	66.870977320156	0.013442505009
0	10262	66.884419825165	0.127494839081
0	10267	67.011914664246	0.128539585483
0	10272	67.140454249729	0.006200754382
0	10274	67.146655004111	0.077761152087
0	10282	67.224416156198	0.012028638475
0	10287	67.236444794673	0.042247490632
0	10292	67.278692285305	0.006937046219
0	10294	67.285629331524	0.020342255609
0	10302	67.305971587133	0.014836231911
0	10307	67.320807819044	0.008130687745
0	10312	67.328938506789	0.022891524688
0	10317	67.351830031477	0.0382731782
0	10322	67.390103209677	0.025847938796
0	10327	67.415951148473	0.049069193145
0	10332	67.465020341618	0.067250887759
0	10338	67.532271229377	0.032428791869
0	10340	67.564700021246	0.07707939559
0	10343	67.641779416836	0.023954662955
0	10345	67.665734079791	0.00870080835
0	10347	67.674434888141	0.004396362227
0	10349	67.678831250368	0.034133016485
0	10351	67.712964266853	0.053755270302
0	10353	67.766719537155	0.004137566826
0	10355	67.770857103981	0.023676445795
0	10357	67.794533549776	0.021499809752
0	10359	67.816033359528	0.067372754318
0	10362	67.883406113846	0.013618502044
0	10364	67.89702461589	0.005068564707
0	10366	67.902093180597	0.013318539853
0	10368	67.91541172045	0.117423753278
0	10383	68.032835473728	0.023061799139
0	10394	68.055897272867	0.023649581052
0	10408	68.079546853919	0.045804330591
0	10429	68.12535118451	0.00262854098
0	10431	68.12797972549	0.002509227632
0	10436	68.130488953122	0.011503172018
0	10441	68.14199212514	0.07396893995
0	10454	68.21596106509	0.081505406051
0	10459	68.297466471141	0.046456304037
0	10464	68.343922775178	0.014227239865
0	10469	68.358150015043	0.006796684257
0	10471	68.3649466993	0.12282076132
0	10479	68.48776746062	0.097983296896
0	10484	68.585750757516	0.020552187995
0	10489	68.606302945511	0.024704819829
0	10494	68.63100776534	0.016007526901
0	10499	68.647015292241	0.299635639076
0	10505	68.946650931317	0.05458429486
0	10511	69.001235226177	0.007690331093
0	10513	69.00892555727	0.022031026547
0	10515	69.030956583817	0.026793216585
0	10517	69.057749800402	0.002750097943
0	10519	69.060499898345	0.011999390405
0	10521	69.07249928875	0.061780662285
0	10523	69.134279951035	0.012692925456
0	10525	69.146972876491	0.054699804404
0	10527	69.201672680895	0.031296999658
0	10529	69.232969680553	0.025325711883
0	10531	69.258295392436	0.089160793781
0	10533	69.347456186217	0.000340567708
0	10535	69.347796753925	0.057263840921
0	10537	69.405060594846	0.005130852739
0	10539	69.410191447585	0.045049973703
0	10541	69.455241421288	0.043566672758
0	10543	69.498808094046	0.028668659019
0	10555	69.527476753065	0.031279216211
0	10572	69.558755969276	0.089420827641
0	10607	69.648176796917	0.042144240604
0	10612	69.690321037521	0.02372949326
0	10617	69.714050530781	0.015671189617
0	10622	69.729721720398	0.072454981836
0	10627	69.802176702234	0.034739919125
0	10632	69.836916621359	0.062847992859
0	10637	69.899764614218	0.01997179653
0	10642	69.919736410748	0.008420615971
0	10647	69.928157026719	0.018693359579
0	10652	69.946850386298	0.05162564101
0	10657	69.998476027308	0.018766971655
0	10662	70.017242998963	0.00042860436
0	10664	70.017671603323	0.001140322875
0	10666	70.018811926198	0.013644128628
0	10674	70.032456054826	0.002202706865
0	10676	70.034658761691	0.009128110468
0	10681	70.043786872159	0.066240696517
0	10692	70.110027568676	0.024743885742
0	10697	70.134771454418	0.041620882608
0	10702	70.176392337026	0.046726507951
0	10707	70.223118844977	0.00916648567
0	10712	70.232285330647	0.003597371121
0	10714	70.235882701768	0.004399741107
0	10719	70.240282442875	0.025320610002
0	10727	70.265603052877	0.001454674158
0	10729	70.267057727035	0.097555102144
0	10738	70.364612829179	0.022867721352
0	10743	70.387480550531	0.009086300289
0	10748	70.39656685082	0.031032824711
0	10753	70.427599675531	0.039568901054
0	10758	70.467168576585	0.079882269775
0	10764	70.54705084636	0.031452678414
0	10766	70.578503524774	0.088519600399
0	10769	70.667023125173	0.000354013647
0	10771	70.66737713882	0.0159632118
0	10773	70.68334035062	0.022607618375
0	10775	70.705947968995	0.093496363465
0	10777	70.79944433246	0.043177514716
0	10779	70.842621847176	0.027621025802
0	10781	70.870242872978	0.001574008378
0	10783	70.871816881356	0.029873608462
0	10785	70.901690489818	0.074069934681
0	10787	70.975760424499	0.006887596314
0	10789	70.982648020813	0.025694858572
0	10795	71.008342879385	0.004309952742
0	10797	71.012652832127	0.001089932671
0	10799	71.013742764798	0.009807401734
0	10807	71.023550166532	0.00889475695
0	10812	71.032444923482	0.004645166045
0	10817	71.037090089527	0.107523102408
0	10861	71.144613191935	0.008844163192
0	10866	71.153457355127	0.03055636681
0	10871	71.184013721937	0.027164311217
0	10876	71.211178033154	0.003979430995
0	10878	71.215157464149	0.070941043498
0	10887	71.286098507647	0.011866323968
0	10892	71.297964831615	0.055463999739
0	10897	71.353428831354	0.021353510577
0	10902	71.374782341931	0.001151194443
0	10904	71.375933536374	0.000741042115
0	10906	71.376674578489	0.041971149362
0	10917	71.418645727851	0.018563113271
0	10922	71.437208841122	0.001677267098
0	10924	71.43888610822	0.023529926408
0	10932	71.462416034628	0.217960125879
0	10938	71.680376160507	0.00977507657
0	10943	71.690151237077	0.053655224202
0	10948	71.743806461279	0.031089943576
0	10953	71.774896404855	0.009210631381
0	10958	71.784107036236	0.048976884685
0	10964	71.833083920921	0.023574627666
0	10969	71.856658548587	0.009413968492
0	10974	71.866072517079	0.047704066609
0	10979	71.913776583688	0.033911514101
0	10984	71.947688097789	0.064098054304
0	10990	72.011786152093	0.035721086963
0	10992	72.047507239056	0.009095868323
0	10994	72.056603107379	0.103843471448
0	10996	72.160446578827	0.005033397418
0	10998	72.165479976245	0.052721293179
0	11001	72.218201269424	0.093616578785
0	11003	72.311817848209	0.066015208941
0	11005	72.37783305715	0.038884067123
0	11007	72.416717124273	0.023595888031
0	11009	72.440313012304	0.073142086069
0	11015	72.513455098373	0.007174824092
0	11020	72.520629922465	0.009256259667
0	11028	72.529886182132	0.191671159799
0	11057	72.721557341931	0.004821776524
0	11059	72.726379118455	0.004848264474
0	11064	72.731227382929	0.015094916625
0	11072	72.746322299554	0.022317110174
0	11077	72.768639409728	0.010195096919
0	11082	72.778834506647	0.002468282761
0	11084	72.781302789408	0.002643776132
0	11086	72.78394656554	0.100791032347
0	11097	72.884737597887	0.036195993357
0	11102	72.920933591244	0.1172592787
0	11108	73.038192869944	0.010125476486
0	11113	73.04831834643	0.044477514178
0	11118	73.092795860608	0.020938582537
0	11123	73.113734443145	0.015077016958
0	11128	73.128811460103	0.01190348541
0	11133	73.140714945513	0.010273984117
0	11138	73.15098892963	0.088926020301
0	11143	73.239914949931	0.010790414294
0	11148	73.250705364225	0.020937608117
0	11153	73.271642972342	0.004765480068
0	11155	73.27640845241	0.074167448348
0	11163	73.350575900758	0.026115074895
0	11168	73.376690975653	0.001575506829
0	11170	73.378266482482	0.005352838286
0	11172	73.383619320768	0.026860537306
0	11183	73.410479858074	0.013330315403
0	11188	73.423810173477	0.021098486653
0	11193	73.44490866013	0.034488658559
0	11199	73.479397318689	0.013814492973
0	11204	73.493211811662	0.045509685531
0	11210	73.538721497193	0.01249309727
0	11212	73.551214594463	0.000860025102
0	11214	73.552074619565	0.010861221515
0	11216	73.56293584108	0.019681284874
0	11218	73.582617125954	0.007789447294
0	11220	73.590406573248	0.036956881476
0	11222	73.627363454724	0.023748184197
0	11224	73.651111638921	0.067164909864
0	11226	73.718276548785	0.014816564212
0	11228	73.733093112997	0.022574154319
0	11231	73.755667267316	0.014048099633
0	11233	73.769715366949	0.121815099713
0	11235	73.891530466662	0.002397523862
0	11237	73.893927990524	0.010806101878
0	11239	73.904734092402	0.000488672389
0	11241	73.905222764791	0.00047602716
0	11243	73.905698791951	0.084928394569
0	11245	73.99062718652	0.023140938944
0	11251	74.013768125464	0.018690816925
0	11262	74.032458942389	0.010355352252
0	11270	74.042814294641	0.039558429362
0	11287	74.082372724003	0.060748395733
0	11317	74.143121119736	0.021077290292
0	11328	74.164198410028	0.00927402475
0	11333	74.173472434778	0.007837933616
0	11338	74.181310368394	0.013019160295
0	11345	74.194329528689	0.092812671889
0	11350	74.287142200578	0.054827843181
0	11356	74.341970043759	0.004580202752
0	11358	74.346550246511	0.043951910163
0	11366	74.390502156674	0.022980112487
0	11371	74.413482269161	0.028579646588
0	11376	74.442061915749	0.003367402296
0	11378	74.445429318045	0.042721135515
0	11386	74.48815045356	0.009114877432
0	11391	74.497265330992	0.01898328928
0	11398	74.516248620272	0.040477526815
0	11408	74.556726147087	0.000186346944
0	11411	74.556912494031	0.026159653643
0	11422	74.583072147674	0.000399703029
0	11424	74.583471850703	0.027952009065
0	11436	74.611423859768	0.025054625656
0	11445	74.636478485424	0.062482494115
0	11457	74.698960979539	0.003043781219
0	11460	74.702004760758	0.002194625029
0	11462	74.704199385787	0.00183491066
0	11467	74.706034296447	0.082321955978
0	11478	74.788356252425	0.117854740927
0	11487	74.906210993352	0.036866746474
0	11493	74.943077739826	0.068565494217
0	11503	75.011643234043	0.035846117265
0	11510	75.047489351308	0.005771736458
0	11512	75.053261087766	0.001073585649
0	11514	75.054334673415	2.3255268e-005
0	11516	75.054357928683	0.084306345924
0	11536	75.138664274607	0.099456033455
0	11547	75.238120308062	0.000993333207
0	11549	75.239113641269	0.011416327913
0	11554	75.250529969182	0.007179094143
0	11559	75.257709063325	0.007198419199
0	11564	75.264907482524	0.079187878133
0	11574	75.344095360657	0.041162090453
0	11579	75.38525745111	0.004742773967
0	11581	75.390000225077	0.004035598835
0	11586	75.394035823912	0.01776173574
0	11594	75.411797559652	0.010759285256
0	11600	75.422556844908	0.049956247763
0	11606	75.472513092671	0.129243580242
0	11613	75.601756672913	0.028969563762
0	11618	75.630726236675	0.035705602148
0	11624	75.666431838823	0.045888691228
0	11629	75.712320530051	0.025738378483
0	11634	75.738058908534	0.007498432263
0	11639	75.745557340797	0.017757692963
0	11644	75.76331503376	0.018589113169
0	11649	75.781904146929	0.052130377954
0	11654	75.834034524883	0.024147500013
0	11660	75.858182024896	0.005317790051
0	11662	75.863499814947	0.00977256134
0	11670	75.873272376287	0.119753786116
0	11677	75.993026162403	0.216096897553
0	11682	76.209123059956	0.069095834161
0	11687	76.278218894117	0.038921711022
0	11692	76.317140605139	0.033650298706
0	11697	76.350790903845	0.07532929364
0	11703	76.426120197485	0.001534885508
0	11705	76.427655082993	0.017471011368
0	11713	76.445126094361	0.042239015745
0	11719	76.487365110106	0.090584678323
0	11725	76.577949788429	0.085579229459
0	11727	76.663529017888	0.010144870246
0	11730	76.673673888134	0.026024267056
0	11732	76.69969815519	0.006014307418
0	11735	76.705712462608	0.015305634961
0	11737	76.721018097569	0.054103217312
0	11739	76.775121314881	0.004485200506
0	11741	76.779606515387	0.126438709012
0	11743	76.906045224399	0.049213273097
0	11745	76.955258497496	0.002241523132
0	11747	76.957500020628	0.075705461967
0	11763	77.033205482595	0.003687722233
0	11768	77.036893204828	0.003697409644
0	11770	77.040590614472	0.013390155592
0	11778	77.053980770064	0.049801299152
0	11802	77.103782069216	0.026125556538
0	11810	77.129907625754	0.00060226926
0	11812	77.130509895014	0.042640947166
0	11820	77.17315084218	0.119451964194
0	11826	77.292602806374	0.108969093816
0	11833	77.40157190019	0.033413193387
0	11838	77.434985093577	0.004387560193
0	11840	77.43937265377	0.028137989871
0	11848	77.467510643641	0.015419102306
0	11853	77.482929745947	0.01228169851
0	11858	77.495211444457	0.010837162902
0	11863	77.506048607359	0.092721717335
0	11869	77.598770324694	0.057653260106
0	11875	77.6564235848	0.010819119157
0	11880	77.667242703957	0.006250966507
0	11882	77.673493670464	0.061638974027
0	11891	77.735132644491	0.073299360664
0	11896	77.808432005155	0.14724418171
0	11901	77.955676186865	0.052007888923
0	11907	78.007684075788	0.053539060213
0	11909	78.061223136001	0.075341098687
0	11911	78.136564234688	0.025615346383
0	11913	78.162179581071	0.121771796927
0	11916	78.283951377998	0.002392542423
0	11918	78.286343920421	0.02982040171
0	11920	78.316164322131	0.022380504769
0	11923	78.3385448269	0.021463768253
0	11925	78.360008595153	0.020184813428
0	11927	78.380193408581	0.023227668633
0	11929	78.403421077214	0.007932565145
0	11931	78.411353642359	0.079054220846
0	11933	78.490407863205	0.019282619109
0	11939	78.509690482314	0.00819199662
0	11944	78.517882478934	0.015497647272
0	11952	78.533380126206	0.016469756667
0	11960	78.549849882873	0.00625621687
0	11962	78.556106099743	0.035868113572
0	11979	78.591974213315	0.02037963659
0	11987	78.612353849905	0.04406136018
0	12007	78.656415210085	0.010671359801
0	12012	78.667086569886	0.002030820091
0	12014	78.669117389977	0.025839629512
0	12025	78.694957019489	0.133830395078
0	12032	78.828787414567	0.001252757045
0	12034	78.830040171612	0.014092643764
0	12042	78.844132815376	0.08284239156
0	12048	78.926975206936	0.008076314294
0	12053	78.93505152123	0.059318049859
0	12058	78.994369571089	0.012844120726
0	12063	79.007213691815	0.028149117424
0	12068	79.035362809239	0.146462760866
0	12074	79.181825570105	0.066823767148
0	12080	79.248649337253	0.038652608391
0	12085	79.287301945644	0.114821706268
0	12090	79.402123651912	0.009849200703
0	12095	79.411972852615	0.004099229367
0	12097	79.416072081982	0.007858007923
0	12102	79.423930089905	0.034877602916
0	12110	79.458807692821	0.002724687197
0	12112	79.461532380018	0.217406503174
0	12121	79.678938883192	0.015796255495
0	12123	79.694735138687	0.154477928647
0	12125	79.849213067334	0.060755442329
0	12128	79.909968509663	0.032362152192
0	12130	79.942330661855	0.011275962839
0	12132	79.953606624694	0.004794642704
0	12134	79.958401267398	0.016087505982
0	12136	79.97448877338	0.030629605495
0	12139	80.005118378875	0.050159220367
0	12162	80.055277599242	7.2336805e-005
0	12164	80.055349936047	0.041669347887
0	12178	80.097019283934	0.007762427727
0	12183	80.104781711661	0.018611807612
0	12188	80.123393519273	0.109422902542
0	12194	80.232816421815	0.00628280436
0	12196	80.239099226175	0.014039737235
0	12205	80.25313896341	0.078476112999
0	12210	80.331615076409	0.035601625246
0	12215	80.367216701655	0.029953396209
0	12221	80.397170097864	0.011539448198
0	12226	80.408709546062	0.010386137503
0	12231	80.419095683565	0.103358225072
0	12236	80.522453908637	0.009457773483
0	12241	80.53191168212	0.045640332255
0	12246	80.577552014375	0.020821715868
0	12251	80.598373730243	0.013998496414
0	12256	80.612372226657	0.018062965399
0	12261	80.630435192056	0.054917479655
0	12267	80.685352671711	0.002497866372
0	12269	80.687850538083	0.004006615529
0	12271	80.691857153612	0.100352212545
0	12282	80.792209366157	0.017433678559
0	12287	80.809643044716	0.054118674525
0	12292	80.863761719241	0.008750849995
0	12297	80.872512569236	0.024019350513
0	12302	80.896531919749	0.040290171745
0	12307	80.936822091494	0.013855289789
0	12312	80.950677381283	0.003782880755
0	12314	80.954460262038	0.007008853422
0	12319	80.96146911546	0.017705832577
0	12327	80.979174948037	0.006365419973
0	12329	80.98554036801	0.011335159757
0	12337	80.996875527767	0.009627880982
0	12343	81.006503408749	0.024706996085
0	12346	81.031210404834	0.008719861331
0	12348	81.039930266165	0.015071892713
0	12350	81.055002158878	0.043289479208
[...]
21	28427	190.098393415664	4.4068659490538
21	29077	194.505259364718	0.98663025837274
21	29177	195.491889623091	4.4661431570037
21	29978	199.958032780095	2.2217815092785
21	30269	202.179814289373	3.1909639217887
21	30677	205.370778211162	6.9758605017895
21	31745	212.346638712951	0.31098129837197
21	31780	212.657620011323	7.0254177062207
21	32854	219.683037717544	0.30307877653036
21	32926	219.986116494074	0.53086832904459
21	33002	220.516984823119	0.80191826174657
21	33123	221.318903084866	1.0679738269862
21	33252	222.386876911852	4.621707039762
21	33980	227.008583951614	0.056808935722111
21	34011	227.065392887336	0.1093228705379
21	34053	227.174715757874	1.2520511781996
21	34244	228.426766936074	1.838349475002
21	34582	230.265116411076	2.1489325487024
21	34858	232.414048959778	1.9882756571201
21	35170	234.402324616898	0.59816509434225
21	35279	235.00048971124	1.1477304003919
21	35422	236.148220111632	7.2082079621631
21	36371	243.356428073795	9.9266505759847
21	38020	253.28307864978	0.13739984187845
21	38052	253.420478491658	2.3715456631246
21	38445	255.792024154783	1.3785123477652
21	38656	257.170536502548	2.4910810131701
21	39074	259.661617515718	1.2361988432705
21	39262	260.897816358988	1.7080632369898
21	39512	262.605879595978	4.8589041905876
21	40275	267.464783786566	3.1805859436672
21	40714	270.645369730233	9.0658441176437
21	42232	279.711213847877	3.7832006859551
21	42807	283.494414533832	2.688575249453
21	43206	286.182989783285	2.9895682007513
21	43627	289.172557984036	2.1036708038978
21	43979	291.276228787934	0.68400129634766
21	44103	291.960230084282	7.6942945797673
21	45358	299.654524664049	0.65827737038759
21	45424	300.312802034437	0.22522252202023
21	45460	300.538024556457	5.6145069908601
21	46362	306.152531547317	5.0222124473151
21	47197	311.174743994632	1.0294079046215
21	47403	312.204151899253	1.5195563816163
21	47691	313.723708280869	2.4014336588241
21	48033	316.125141939693	0.070138628219987
21	48034	316.195280567913	0.66229776739992
21	48118	316.857578335313	1.8456268677224
21	48433	318.703205203035	2.4469187343929
21	48835	321.150123937428	0.940896399422
21	48996	322.09102033685	6.2484538519318
21	49998	328.339474188782	1.5921570156928
21	50209	329.931631204475	3.6077880801025
21	50764	333.539419284578	10.154275731826
21	52500	343.693695016404	3.291200027072
21	52956	346.984895043476	1.1300566545734
21	53118	348.114951698049	3.0881994350532
21	53564	351.203151133102	1.0771264163634
21	53799	352.280277549465	4.964005833416
21	54496	357.244283382881	2.5935700301847
21	54852	359.837853413066	2.9348273964876
21	55248	362.772680809554	0.45043595099635
21	55293	363.22311676055	0.6628849668934
21	55420	363.886001727443	0.49965452261994
21	55513	364.385656250063	2.899856074574
21	55995	367.285512324637	0.36187572482602
21	56038	367.647388049463	3.7857964792885
21	56581	371.433184528751	1.2623071025507
21	56732	372.695491631302	1.7926049763685
21	57013	374.488096607671	2.6702586017472
21	57357	377.158355209418	2.3991615954015
21	57710	379.557516804819	0.0061931119847609
21	57711	379.563709916804	0.33410179210719
21	57738	379.897811708911	10.339762547261
21	59329	390.237574256172	5.1984441166045
21	60076	395.436018372776	5.8653783732536
22	1889	12.313726549034	3.1862583372779
22	2369	15.499984886312	0.48249557913301
22	2484	15.982480465445	10.018987674326
22	3981	26.001468139771	2.1716798347672
22	4311	28.173147974538	1.6944612178096
22	4615	29.867609192348	10.578273787286
22	6172	40.445882979634	0.90228066555986
22	6333	41.348163645194	5.3516756987192
22	7078	46.699839343913	1.4707337582
22	7322	48.170573102113	1.6079474280271
22	7595	49.77852053014	10.825848372382
22	9358	60.604368902522	4.1442533517777
22	9932	64.7486222543	0.91867287064434
22	10090	65.667295124944	7.3572769111096
22	11107	73.024572036054	1.1628103702879
22	11340	74.187382406342	0.97486119405509
22	11542	75.162243600397	0.35156775325492
22	11612	75.513811353652	0.96086066612019
22	11718	76.474672019772	1.0494057342004
22	11868	77.524077753972	0.72592570725655
22	11915	78.250003461229	0.95994590661269
22	12079	79.209949367842	0.9665632727378
22	12193	80.17651264058	0.47069961539469
22	12266	80.647212255975	0.79235858753533
22	12377	81.43957084351	0.52912139772893
22	12472	81.968692241239	0.52830247781598
22	12594	82.496994719055	5.4331507610799
22	13412	87.930145480135	2.6731995972103
22	13707	90.603345077345	1.6989573923134
22	13984	92.302302469658	2.6541887103624
22	14269	94.95649118002	6.1937141206312
22	15265	101.150205300651	1.2098342015302
22	15394	102.360039502181	6.5101318526832
22	16329	108.870171354864	1.3116681563967
22	16478	110.181839511261	0.67259112459458
22	16585	110.854430635856	2.5338239032597
22	17001	113.388254539116	5.8656955440101
22	17861	119.253950083126	7.8176161522971
22	19220	127.071566235423	3.9355672715841
22	19636	131.007133507007	8.836449034655
22	21002	139.843582541662	1.2450161362636
22	21173	141.088598677926	11.809727581967
22	23061	152.898326259893	1.9487482334808
22	23307	154.847074493374	0.73734609190123
22	23425	155.584420585275	2.8166073127921
22	23837	158.401027898067	15.865257109258
22	26113	174.266285007325	3.9169182748501
22	26683	178.183203282175	3.3087586650785
22	27204	181.491961947253	1.2346078007853
22	27370	182.726569748038	2.2913636997101
22	27653	185.017933447748	2.4416097452652
22	28077	187.459543193013	4.1464891592869
22	28642	191.6060323523	1.2409544370202
22	28819	192.84698678932	1.0331285850609
22	28949	193.880115374381	3.1390155621175
22	29459	197.019130936498	1.1198480092885
22	29623	198.138978945786	3.8392266098838
22	30255	201.97820555567	0.15986738708026
22	30266	202.13807294275	9.256225016453
22	31614	211.394297959203	0.79063712565201
22	31726	212.184935084855	3.6674596460812
22	32280	215.852394730936	0.66193960521858
22	32380	216.514334336155	3.7468263848137
22	32972	220.261160720969	5.9409930474139
22	33890	226.202153768383	0.42076862074789
22	33962	226.622922389131	6.2609716335039
22	34907	232.883894022635	3.7023224311994
22	35485	236.586216453834	2.9341756749721
22	35876	239.520392128806	1.2540401393417
22	36067	240.774432268148	3.3026825819097
22	36505	244.077114850058	2.486392409993
22	36986	246.563507260051	0.76081337169809
22	37131	247.324320631749	8.499947440247
22	38448	255.824268071996	2.2191950981115
22	38779	258.043463170108	0.59422897065781
22	38924	258.637692140766	1.5331996583927
22	39146	260.170891799159	3.2597713842356
22	39657	263.430663183395	0.51088862775603
22	39732	263.941551811151	8.4483585141455
22	40963	272.389910325296	0.50502704516982
22	41069	272.894937370466	2.6424482606555
22	41525	275.537385631122	0.83710577965915
22	41611	276.374491410781	0.61436485784592
22	41756	276.988856268627	12.065298264513
22	43612	289.05415453314	1.8665980004763
22	43952	290.920752533616	3.6876676456264
22	44490	294.608420179242	1.6050012337176
22	44724	296.21342141296	3.3172476771312
22	45347	299.530669090091	1.6917303038527
22	45588	301.222399393944	1.6531149545935
22	45823	302.875514348538	3.7070296323719
22	46417	306.58254398091	0.82553864917414
22	46539	307.408082630084	0.042004159567686
22	46540	307.450086789652	5.2598812079225
22	47506	312.709967997574	2.051148364348
22	47825	314.761116361922	3.6336194384459
22	48368	318.394735800368	4.6894102054842
22	49138	323.084146005852	0.48800823692163
22	49220	323.572154242774	0.5189371974841
22	49293	324.091091440258	0.78984548546715
22	49427	324.880936925725	1.3335297940629
22	49604	326.214466719788	6.1599541647163
22	50615	332.374420884504	0.8340631380041
22	50729	333.208484022508	6.230504218393
22	51903	339.438988240901	14.457035886657
22	54062	353.896024127558	2.923300004334
22	54473	356.819324131892	0.38895453056547
22	54495	357.208278662457	0.39939487707682
22	54534	357.607673539534	0.73313791883415
22	54606	358.340811458368	2.2638161471731
22	55002	360.604627605541	0.35990456876535
22	55038	360.964532174306	5.2479190285141
22	55790	366.21245120282	0.1621953014486
22	55801	366.374646504269	0.34937291361277
22	55889	366.724019417882	0.69283328497174
22	56011	367.416852702854	0.65577660925064
22	56088	368.072629312105	2.2920911801722
22	56450	370.364720492277	8.1085284854786
22	57534	378.473248977756	0.65017729126694
22	57660	379.123426269023	0.34829611986583
22	57703	379.471722388889	0.029300814333314
22	57705	379.501023203222	1.0321906486021
22	57863	380.533213851824	1.6222694190236
22	58137	382.155483270848	1.9598394818668
22	58352	384.115322752715	1.3537041572767
22	58576	385.469026909992	7.098919842925
22	59672	392.567946752917	0.37991568916569
22	59706	392.947862442083	1.5636143231781
22	59932	394.511476765261	2.9909686982136
22	60344	397.502445463475	1.4692925182006
22	60534	398.971737981676	2.2804519049435
23	2033	13.034736668212	4.7264103624311
23	2778	17.761147030643	6.6087639146457
23	3720	24.369910945289	0.25698387981324
23	3789	24.626894825102	8.8747559547331
23	5091	33.501650779835	1.9676799423511
23	5391	35.469330722186	2.2274338054403
23	5837	37.696764527626	2.1035407124729
23	6101	39.800305240099	2.4198470712186
23	6446	42.220152311318	7.8333183271819
23	7695	50.0534706385	1.2552480548093
23	7865	51.308718693309	9.8470108292533
23	9450	61.155729522562	4.807173226955
23	10127	65.962902749517	1.6328135283263
23	10342	67.595716277843	7.4928350381844
23	11532	75.088551316027	1.8694230725
23	11749	76.957974388527	2.1699481596215
23	12073	79.127922548148	5.5951807101777
23	12925	84.723103258326	1.0117484730514
23	13065	85.734851731377	0.78243511988207
23	13182	86.517286851259	3.6585540234924
23	13651	90.175840874751	0.66204143956655
23	13733	90.837882314318	0.0077577452830852
23	13734	90.845640059601	2.8999228454794
23	14167	93.74556290508	1.3502612947895
23	14323	95.095824199869	1.9910783529716
23	14705	97.086902552841	3.9880570459315
23	15227	101.074959598772	0.83583713604125
23	15371	101.910796734813	3.3916070707124
23	15797	105.302403805525	1.0433313731097
23	16001	106.345735178635	3.7736726930053
23	16465	110.11940787164	0.09696491704777
23	16482	110.216372788688	0.21041527946957
23	16508	110.426788068158	1.4747075637769
23	16750	111.901495631935	4.4055990210837
23	17430	116.307094653019	1.2743940420286
23	17650	117.581488695048	6.2760456231261
23	18611	123.857534318174	0.30791956203762
23	18703	124.165453880212	5.9204414490618
23	19566	130.085895329274	0.74877529783293
23	19625	130.834670627107	6.3763825927021
23	20614	137.211053219809	0.12643459812152
23	20637	137.337487817931	1.4379449256192
23	20859	138.77543274355	0.60519700537918
23	20964	139.380629748929	4.099925358454
23	21539	143.480555107383	4.6854281023522
23	22318	148.165983209735	0.24766164116079
23	22357	148.413644850896	1.684192355915
23	22587	150.097837206811	0.32190323115279
23	22621	150.419740437964	0.57929492353295
23	22772	150.999035361497	1.2297433444377
23	22920	152.228778705935	0.41380568446897
23	23015	152.642584390404	3.1744871308823
23	23476	155.817071521286	0.31833458409627
23	23496	156.135406105382	5.3731040486679
23	24194	161.50851015405	6.244783128557
23	25026	167.753293282607	0.80908334030217
23	25130	168.562376622909	3.8951614315318
23	25743	172.457538054441	3.4128834920311
23	26282	175.870421546472	0.090702695307817
23	26293	175.96112424178	1.0174956655909
23	26486	176.978619907371	10.244045539457
23	28037	187.222665446828	0.8800007974928
23	28142	188.102666244321	2.1203502308745
23	28429	190.223016475196	4.7647216285009
23	29136	194.987738103697	3.5063177475746
23	29683	198.494055851272	1.4651173942576
23	29979	199.95917324553	1.150489956651
23	30136	201.109663202181	7.9688117187596
23	31240	209.078474920941	1.0974267698376
23	31387	210.175901690779	0.095407149334544
23	31397	210.271308840114	8.6944337525099
23	32776	218.965742592624	0.74649923933879
23	32862	219.712241831963	1.8468383355019
23	33169	221.559080167465	0.93029798846885
23	33255	222.489378155934	1.0726479175845
23	33478	223.562026073518	4.3817709920057
23	34199	227.943797065524	2.940881227557
23	34676	230.884678293081	5.0220186382318
23	35355	235.906696931313	1.5434690573537
23	35570	237.450165988667	0.67559839915206
23	35711	238.125764387819	9.5472025767415
23	37174	247.672966964561	0.68651255572848
23	37261	248.359479520289	0.53893243789133
23	37340	248.89841195818	0.53530907118271
23	37368	249.433721029363	12.89104317806
23	39479	262.324764207423	0.1904147668719
23	39501	262.515178974295	2.9488033209119
23	40019	265.463982295207	8.4601758597095
23	41216	273.924158154916	2.2278402025234
23	41602	276.151998357439	1.4278871512703
23	41844	277.579885508709	0.072708087690866
23	41853	277.6525935964	19.513402438353
23	44921	297.165996034753	4.3017237421261
23	45616	301.467719776879	3.8014209672883
23	46177	305.269140744167	0.98271039958125
23	46386	306.251851143748	0.45311123977492
23	46433	306.704962383523	1.1700598858348
23	46565	307.875022269358	2.117207271648
23	46960	309.992229541006	0.32525983383521
23	47049	310.317489374841	1.1111220201725
23	47236	311.428611395014	1.1105716854345
23	47438	312.539183080449	1.9557037114527
23	47784	314.494886791902	2.3257940164798
23	48116	316.820680808382	1.2928351641891
23	48347	318.113515972571	1.6725855930733
23	48604	319.786101565644	2.9417870336787
23	49079	322.727888599323	0.081947667614225
23	49086	322.809836266937	0.9757492220558
23	49259	323.785585488993	5.9909525187844
23	50203	329.776538007777	1.8618330577714
23	50500	331.638371065548	1.7194044024024
23	50741	333.35777546795	0.70698901227447
23	50900	334.064764480224	7.6272798665052
23	52240	341.692044346729	8.270103597299
23	53379	349.962147944028	1.1343987175462
23	53553	351.096546661574	1.1748339385351
23	53795	352.271380600109	6.8689864144534
23	54724	359.140367014562	6.5587768336816
23	55746	365.699143848244	0.84779475157283
23	55834	366.546938599817	1.8862767116866
23	56154	368.433215311504	0.56608662390043
23	56212	368.999301935404	1.0487609279302
23	56389	370.048062863334	9.1509283866574
23	57676	379.198991249991	0.14734917338462
23	57692	379.346340423376	1.9086831573429
23	57966	381.255023580719	0.94253897186399
23	58143	382.197562552583	3.4010931269022
23	58585	385.598655679485	13.764848575909
23	60560	399.363504255394	2.2968674919385
24	2863	18.527692622347	1.136312442241
24	3022	19.664005064588	4.9691999851495
24	3793	24.633205049738	1.368739580575
24	3982	26.001944630313	1.5640173326607
24	4201	27.565961962974	0.082737600254544
24	4226	27.648699563229	4.1187299545198
24	4853	31.767429517749	2.7625316337105
24	5261	34.52996115146	0.5561904462513
24	5325	35.086151597711	1.0402724223642
24	5516	36.126424020075	1.3230792072979
24	5786	37.449503227373	2.185892604752
24	6080	39.635395832125	1.1726517232226
24	6207	40.808047555348	1.4676321738589
24	6451	42.275679729207	4.0039198901016
24	7001	46.279599619309	3.2559217815913
24	7550	49.5355214009	2.9895969590251
24	8089	52.525118359925	0.72482296041573
24	8171	53.249941320341	0.78170289814831
24	8305	54.031644218489	6.3409074038718
24	9300	60.372551622361	1.640075420557
24	9549	62.012627042918	0.7486085676486
24	9670	62.761235610567	7.5199347381347
24	10737	70.281170348702	6.8008974670721
24	11792	77.082067815774	0.30041601859835
24	11832	77.382483834372	4.6084497551525
24	12480	81.990933589524	0.74265444667327
24	12649	82.733588036197	4.061540111629
24	13208	86.795128147826	1.325461285887
24	13453	88.120589433713	7.2457673522617
24	14356	95.366356785975	2.1254981710325
24	14747	97.491854957008	0.61587309071447
24	14817	98.107728047722	3.6927082923893
24	15353	101.800436340111	1.9702036678518
24	15605	103.770640007963	0.50016799301304
24	15699	104.270808000976	8.795126105117
24	16913	113.065934106093	3.6346466942043
24	17501	116.700580800297	2.3242603046111
24	17796	119.024841104908	5.5418110307764
24	18750	124.566652135684	0.98909763641697
24	18955	125.555749772101	0.23148820329919
24	19025	125.7872379754	1.1828913083509
24	19219	126.970129283751	4.2441387864774
24	19716	131.214268070228	0.60739445388582
24	19803	131.821662524114	13.09960706888
24	21810	144.921269592994	3.8798340161506
24	22381	148.801103609145	3.08008989844
24	22839	151.881193507585	0.1866080830828
24	22878	152.067801590668	12.248143436004
24	24567	164.315945026672	0.056110250993108
24	24571	164.372055277665	0.22901846975062
24	24600	164.601073747416	2.9295932399941
24	25000	167.53066698741	5.2270311308637
24	25823	172.757698118274	0.30235737852638
24	25922	173.0600554968	1.9267514638326
24	26197	174.986806960633	0.40457432938258
24	26236	175.391381290016	0.86818227511691
24	26385	176.259563565133	5.6999689120054
24	27235	181.959532477138	9.6346577706683
24	28641	191.594190247806	0.69238437905666
24	28694	192.286574626863	7.616598849035
24	29974	199.903173475898	2.043111736338
24	30248	201.946285212236	0.0056532962066554
24	30249	201.951938508443	5.5188740086072
24	31018	207.47081251705	3.3683102349399
24	31503	210.83912275199	8.1574770427615
24	32782	218.996599794752	0.25627948262597
24	32803	219.252879277378	2.0168205130649
24	33117	221.269699790443	0.45164377882488
24	33180	221.721343569268	2.2954959569992
24	33505	224.016839526267	0.9254649761773
24	33695	224.942304502444	3.3053458574979
24	34235	228.247650359942	2.3260738149217
24	34657	230.573724174864	0.69656594612208
24	34697	231.270290120986	2.2832561322795
24	35028	233.553546253265	1.4577644804479
24	35280	235.011310733713	0.27848251767652
24	35317	235.28979325139	0.95403532855715
24	35428	236.243828579947	0.20836712329088
24	35464	236.452195703238	1.4680301882665
24	35670	237.920225891505	11.760705543552
24	37423	249.680931435057	2.4423447763296
24	37773	252.123276211387	2.8740211849861
24	38316	254.997297396373	4.0919656807329
24	39006	259.089263077106	1.3126989046598
24	39192	260.401961981766	0.39045562263864
24	39250	260.792417604405	1.399332737069
24	39458	262.191750341474	3.5939657937966
24	40054	265.785716135271	1.8089193890224
24	40318	267.594635524293	3.5186560109185
24	40755	271.113291535211	1.3389846896797
24	40979	272.452276224891	0.11337912623309
24	41004	272.565655351124	3.1152101174667
24	41538	275.680865468591	8.1605239234703
24	42831	283.841389392061	5.3093335860346
24	43626	289.150722978096	0.15722010785414
24	43669	289.30794308595	4.8999416861423
24	44423	294.207884772092	4.6225584725876
24	45221	298.83044324468	0.93498117546078
24	45359	299.765424420141	2.335906697984
24	45688	302.101331118125	9.6351430133372
24	47307	311.736474131462	0.13254819418527
24	47339	311.869022325647	0.21996142587365
24	47392	312.088983751521	7.1557920936216
24	48512	319.244775845143	1.9209151899983
24	48836	321.165691035141	1.0972475027147
24	49037	322.262938537856	3.933950673347
24	49603	326.196889211203	2.9415884448522
24	50107	329.138477656055	0.81650474046415
24	50210	329.954982396519	0.44716585837115
24	50251	330.40214825489	1.0864035934234
24	50484	331.488551848313	4.1059911861323
24	51171	335.594543034445	1.8276979847793
24	51480	337.422241019224	1.2453608616508
24	51738	338.667601880875	5.0781251304372
24	52503	343.745727011312	1.4517194100089
24	52668	345.197446421321	2.6324939762444
24	53077	347.829940397565	0.43489293370715
24	53132	348.264833331272	1.2200409555645
24	53357	349.484874286836	1.4368487052697
24	53526	350.921722992106	5.6781351432112
24	54434	356.599858135317	0.34827997058374
24	54490	356.948138105901	4.0980197480612
24	55054	361.046157853962	1.7534223799808
24	55254	362.799580233943	2.0866864734204
24	55625	364.886266707363	1.5555579092047
24	55804	366.441824616568	1.1764403713086
24	56033	367.618264987877	3.0747807320248
24	56471	370.693045719902	1.0766508149597
24	56617	371.769696534862	3.7101989580674
24	57160	375.479895492929	0.050122703236757
24	57162	375.530018196166	0.77612876190453
24	57234	376.306146958071	1.7502714170063
24	57501	378.056418375077	0.77213211135867
24	57634	378.828550486436	2.9182526578219
24	58066	381.746803144258	3.9558401374603
24	58591	385.702643281718	4.6291849933707
24	59346	390.331828275089	0.18522421603475
24	59391	390.517052491124	1.986050967834
24	59664	392.503103458958	1.6561412703911
24	59875	394.159244729349	0.77745542384972
24	59960	394.936700153199	3.661067350749
24	60498	398.597767503948	3.240049630835

