version 2
run Exponential-capacity-19-20210216-20:01:19-7340
attr configname Exponential-capacity
attr datetime 20210216-20:01:19
attr experiment Exponential-capacity
attr inifile aerocom.ini
attr iterationvars "$0=60, $1=2"
attr iterationvarsf 60,2-
attr measurement "$0=60, $1=2"
attr network Aerocom
attr processid 7340
attr repetition 0
attr replication #0
attr resultdir results
attr runnumber 19
attr seedset 0
param **.t 1s
param **.k 60ms
param **.X 50ms
param **.m 2s
param **.tDistribution "\"exponential\""
param **.operationMode 0
param **.s "70 byte"
param **.dimPoolMax 10000
param **.dimPoolMin 8000
param **.nDL 10
param **.nA 1
param **.DLMaxCapacity 0
param **.trasmitting false

vector 0 Aerocom.aircraft[0].dataLink[0] actualCapacity:vector ETV
attr "" ""
attr source computeActualCapacity
vector 1 Aerocom.aircraft[0].dataLink[1] actualCapacity:vector ETV
attr "" ""
attr source computeActualCapacity
vector 2 Aerocom.aircraft[0].dataLink[2] actualCapacity:vector ETV
attr "" ""
attr source computeActualCapacity
vector 3 Aerocom.aircraft[0].dataLink[3] actualCapacity:vector ETV
attr "" ""
attr source computeActualCapacity
vector 4 Aerocom.aircraft[0].dataLink[4] actualCapacity:vector ETV
attr "" ""
attr source computeActualCapacity
vector 5 Aerocom.aircraft[0].dataLink[5] actualCapacity:vector ETV
attr "" ""
attr source computeActualCapacity
vector 6 Aerocom.aircraft[0].dataLink[6] actualCapacity:vector ETV
attr "" ""
attr source computeActualCapacity
vector 7 Aerocom.aircraft[0].dataLink[7] actualCapacity:vector ETV
attr "" ""
attr source computeActualCapacity
vector 8 Aerocom.aircraft[0].dataLink[8] actualCapacity:vector ETV
attr "" ""
attr source computeActualCapacity
vector 9 Aerocom.aircraft[0].dataLink[9] actualCapacity:vector ETV
attr "" ""
attr source computeActualCapacity
vector 10 Aerocom.aircraft[0].packetGenerator arrivalTime:vector ETV
attr "" ""
attr source computeArrivalTime
vector 11 Aerocom.aircraft[0].linkSelector waitingTime:vector ETV
attr "" ""
attr source computeWaitingTime
vector 12 Aerocom.aircraft[0].linkSelector queueLength:vector ETV
attr "" ""
attr source computeQueueLength
vector 13 Aerocom.aircraft[0].linkSelector serviceTime:vector ETV
attr "" ""
attr source computeServiceTime
vector 14 Aerocom.aircraft[0].linkSelector responseTime:vector ETV
attr "" ""
attr source computeResponseTime
vector 15 Aerocom.aircraft[0].dataLink[4] tDistribution:vector ETV
attr "" ""
attr source computeTDistribution
vector 16 Aerocom.aircraft[0].dataLink[5] tDistribution:vector ETV
attr "" ""
attr source computeTDistribution
vector 17 Aerocom.aircraft[0].dataLink[0] tDistribution:vector ETV
attr "" ""
attr source computeTDistribution
vector 18 Aerocom.aircraft[0].dataLink[3] tDistribution:vector ETV
attr "" ""
attr source computeTDistribution
vector 19 Aerocom.aircraft[0].dataLink[8] tDistribution:vector ETV
attr "" ""
attr source computeTDistribution
vector 20 Aerocom.aircraft[0].dataLink[9] tDistribution:vector ETV
attr "" ""
attr source computeTDistribution
vector 21 Aerocom.aircraft[0].dataLink[6] tDistribution:vector ETV
attr "" ""
attr source computeTDistribution
vector 22 Aerocom.aircraft[0].dataLink[1] tDistribution:vector ETV
attr "" ""
attr source computeTDistribution
vector 23 Aerocom.aircraft[0].dataLink[7] tDistribution:vector ETV
attr "" ""
attr source computeTDistribution
vector 24 Aerocom.aircraft[0].dataLink[2] tDistribution:vector ETV
attr "" ""
attr source computeTDistribution
0	925	10	8687
0	1135	12	9044
0	1294	14	8842
0	1483	16	8506
0	1718	18	9523
0	1880	20	9639
0	1884	20.089234983657	9663
0	1889	20.116529694345	9666
0	1896	20.339127329859	9688
0	1900	20.346352763385	9688
0	1909	20.456328030068	9699
0	1914	20.472067788618	9701
0	1917	20.479283539572	9702
0	1926	20.559642427452	9710
0	1931	20.586417596683	9712
0	1937	20.759494301809	9729
0	1943	20.83805220365	9737
0	1949	20.921229684771	9746
0	1954	20.932527383284	9747
0	1959	20.957404135844	9749
0	1965	21.001572001843	9754
0	1971	21.041919632853	9758
0	1974	21.049093234001	9758
0	1981	21.070110571386	9760
0	1986	21.083498923872	9762
0	1991	21.09536869432	9763
0	1995	21.102538621596	9764
0	2000	21.10970781455	9764
0	2007	21.202446322943	9774
0	2012	21.239802163582	9777
0	2017	21.255012505891	9779
0	2024	21.379574369518	9791
0	2029	21.404993795599	9794
0	2034	21.578066452903	9811
0	2041	21.735999584656	9827
0	2046	21.792227907719	9832
0	2051	21.86535571592	9839
0	2057	21.919833557559	9845
0	2060	21.926943765787	9846
0	2068	22	9853
0	2073	22.05	9858
0	2074	22.057100831812	9858
0	2081	22.066014266079	9859
0	2088	22.124303195565	9853
0	2091	22.131407630762	9840
0	2098	22.179059588114	9756
0	2103	22.251117842507	9628
0	2108	22.267417926728	9600
0	2114	22.560165900008	9082
0	2121	22.723446795363	8794
0	2128	22.742104863661	8761
0	2133	22.799214646114	8660
0	2138	22.867410435829	8539
0	2144	22.913435215103	8503
0	2149	23.033265533152	8579
0	2154	23.086748247767	8612
0	2159	23.170128871594	8664
0	2164	23.248715993876	8714
0	2170	23.448992053907	8839
0	2175	23.471425243661	8853
0	2180	23.519904046865	8884
0	2185	23.550375954226	8903
0	2191	23.564701126597	8912
0	2196	23.578832601002	8921
0	2201	23.593928517789	8930
0	2206	23.606290440698	8938
0	2211	23.621101996826	8947
0	2217	23.79444653234	9056
0	2222	23.845025258865	9088
0	2228	23.925746104859	9053
0	2234	23.96184684405	9018
0	2238	24	8981
0	2421	26	8466
0	2654	28	8513
0	2872	30	8088
0	3089	32	8659
0	3238	34	9859
0	3241	34.05	9859
0	3246	34.108680256059	9859
0	3253	34.233105943845	9858
0	3259	34.274472016116	9858
0	3264	34.295277214343	9858
0	3269	34.406963112922	9857
0	3274	34.520369214808	9857
0	3279	34.533334987804	9857
0	3285	34.591055703399	9857
0	3291	34.680110252358	9856
0	3294	34.687212525085	9856
0	3302	34.900489206894	9855
0	3307	34.926081355616	9855
0	3313	35.045046289892	9855
0	3318	35.054666335561	9855
0	3324	35.145630471351	9854
0	3331	35.386107450643	9853
0	3338	35.638219016218	9852
0	3343	35.67726685676	9852
0	3349	35.761307398578	9852
0	3356	35.802584007286	9852
0	3359	35.809689163599	9852
0	3367	35.864038611842	9851
0	3372	35.882878485726	9851
0	3377	35.910465964793	9851
0	3382	35.942173998491	9851
0	3388	35.95100750073	9851
0	3393	35.984547960929	9851
0	3397	36	9851
0	3400	36.088145963714	9850
0	3405	36.10936175823	9850
0	3410	36.121993755522	9850
0	3416	36.15275663408	9850
0	3421	36.19571935316	9850
0	3426	36.203434167397	9850
0	3432	36.218674850098	9850
0	3439	36.455532846152	9849
0	3442	36.462640166692	9849
0	3449	36.49297567724	9849
0	3456	36.611889097707	9734
0	3461	36.662417275877	9648
0	3471	36.878953736176	9281
0	3476	36.904213334059	9257
0	3484	37.098611112073	9070
0	3489	37.191928773694	8981
0	3495	37.334152028531	8844
0	3500	37.365949723287	8814
0	3506	37.455195508547	8728
0	3511	37.481904468911	8702
0	3516	37.506215441852	8679
0	3521	37.536814891883	8650
0	3524	37.544907377432	8642
0	3531	37.563447295697	8624
0	3537	37.594825354916	8594
0	3542	37.684383284768	8508
0	3548	37.700239512616	8493
0	3554	37.856633820755	8342
0	3559	37.865161351439	8334
0	3565	37.888771496106	8347
0	3568	37.897157742662	8352
0	3575	38	8420
0	3816	40	8713
0	4034	42	9158
0	4246	44	8627
0	4423	46	9219
0	4601	48	9482
0	4836	50	8751
0	5007	52	8702
0	5159	54	8068
0	5345	56	8083
0	5514	58	8225
0	5694	60	8340
0	5888	62	8321
0	6152	64	8429
0	6318	66	8782
0	6488	68	9215
0	6684	70	9420
0	6689	70.05	9472
0	6690	70.057390202703	9480
0	6700	70.094584647319	9681
0	6708	70.225038621747	9696
0	6713	70.279707370231	9684
0	6719	70.315185537365	9676
0	6725	70.331497487679	9673
0	6731	70.474574408273	9641
0	6736	70.526751329923	9630
0	6741	70.537228997712	9627
0	6746	70.546689320882	9625
0	6751	70.611615433951	9611
0	6756	70.636150485706	9606
0	6761	70.670967860985	9598
0	6767	70.72990215205	9585
0	6770	70.737205229776	9583
0	6777	70.761576119753	9578
0	6784	70.833111254278	9562
0	6791	70.978254337928	9530
0	6796	70.99530752254	9527
0	6802	71.121774344044	9499
0	6805	71.129143540802	9497
0	6812	71.158365805535	9491
0	6815	71.165741213817	9489
0	6822	71.205815177737	9480
0	6825	71.213199143982	9479
0	6832	71.248220072743	9471
0	6838	71.391204169134	9440
0	6843	71.403431292067	9437
0	6848	71.484228929379	9419
0	6854	71.518459288664	9412
0	6860	71.655462930729	9358
0	6865	71.667925127902	9334
0	6871	71.734916242315	9208
0	6877	71.810275978241	9065
0	6882	71.855442157363	8980
0	6887	71.899857288848	8896
0	6892	71.921640118112	8855
0	6897	71.944829769035	8811
0	6903	72	8706
0	7081	74	9276
0	7236	76	9466
0	7242	76.087308927913	9314
0	7247	76.105920695309	9281
0	7253	76.330269603991	8889
0	7258	76.380085242797	8801
0	7267	76.512409291025	8918
0	7272	76.701109144187	9345
0	7279	76.787887598516	9532
0	7282	76.795231282947	9533
0	7291	76.867004177853	9542
0	7296	76.886070338336	9544
0	7301	76.91059339759	9547
0	7304	76.917925543814	9548
0	7311	76.925318632063	9549
0	7317	77.012277944232	9560
0	7322	77.019600119964	9560
0	7325	77.026922295696	9561
0	7330	77.03424370559	9562
0	7337	77.042949049896	9563
0	7343	77.076916822998	9568
0	7349	77.095034123207	9570
0	7354	77.13932232776	9575
0	7361	77.262237317156	9590
0	7366	77.351227721638	9601
0	7371	77.363091627714	9603
0	7379	77.55436467805	9626
0	7385	77.588437939637	9630
0	7390	77.595925525173	9631
0	7395	77.619518562392	9634
0	7398	77.626784495545	9635
0	7406	77.678847290221	9641
0	7411	77.732298518334	9648
0	7419	77.897671302983	9668
0	7424	77.979754544266	9678
0	7428	78	9681
0	7432	78.1493459825	9699
0	7437	78.262437859352	9713
0	7440	78.269644695551	9714
0	7451	78.43044918895	9734
0	7456	78.484860975388	9740
0	7464	78.730857032948	9771
0	7472	78.864284001893	9787
0	7478	78.894913711655	9791
0	7483	78.986015860559	9802
0	7488	79.014730454823	9805
0	7493	79.028990407089	9807
0	7499	79.03858705989	9808
0	7507	79.125475827327	9820
0	7513	79.194774299341	9848
0	7518	79.207348168485	9853
0	7524	79.271508031987	9879
0	7531	79.408923465181	9934
0	7537	79.527780782948	9713
0	7542	79.534987619147	9672
0	7547	79.542225005417	9632
0	7550	79.549492447277	9591
0	7557	79.581454829789	9413
0	7562	79.639380977771	9090
0	7567	79.691585772393	8798
0	7572	79.720504524967	8637
0	7577	79.737093786013	8544
0	7580	79.745286669908	8498
0	7587	79.754296075457	8448
0	7595	80	8499
0	7813	82	8569
0	7994	84	9824
0	8002	84.05	9812
0	8003	84.057134121484	9811
0	8006	84.064268970123	9809
0	8013	84.073592426656	9807
0	8018	84.239678430117	9768
0	8023	84.270753836821	9761
0	8030	84.461399674109	9716
0	8036	84.505963099091	9705
0	8041	84.601435234892	9683
0	8046	84.628692489516	9677
0	8052	84.91894773646	9608
0	8057	84.931633006959	9606
0	8062	84.957964257582	9599
0	8065	84.965256683876	9598
0	8074	85.072289650304	9572
0	8079	85.116096971519	9562
0	8084	85.204453743272	9541
0	8091	85.315459096464	9515
0	8096	85.391950183617	9497
0	8101	85.419979377205	9491
0	8107	85.480190840479	9477
0	8112	85.495319221065	9473
0	8117	85.517355311115	9468
0	8120	85.524748635999	9466
0	8127	85.568630777165	9456
0	8130	85.576033484441	9454
0	8137	85.593240901575	9450
0	8142	85.608256098399	9447
0	8147	85.615665858111	9445
0	8152	85.623077186856	9443
0	8155	85.630490085299	9441
0	8160	85.637904554105	9440
0	8165	85.645319808342	9438
0	8170	85.652736633941	9436
0	8178	85.691812963613	9466
0	8181	85.699207850577	9483
0	8188	85.710996803378	9512
0	8195	85.827388508953	9718
0	8200	85.855062055609	9715
0	8205	85.865674897976	9714
0	8208	85.872880992273	9713
0	8215	85.918291470402	9707
0	8220	86	9698
0	8224	86.063571669189	9690
0	8229	86.152660513632	9679
0	8236	86.282404810196	9664
0	8241	86.318978361047	9660
0	8248	86.455521560031	9643
0	8253	86.465510971666	9642
0	8258	86.489736146093	9639
0	8263	86.503094477215	9638
0	8269	86.577975571092	9629
0	8275	86.612017658272	9625
0	8280	86.645423906958	9621
0	8285	86.690500249378	9616
0	8290	86.712045990347	9613
0	8296	86.737841322511	9610
0	8299	86.745125401595	9609
0	8308	86.8334746296	9599
0	8313	86.866349375862	9595
0	8320	86.949772735496	9585
0	8327	86.979265457021	9581
0	8333	87.136477551634	9563
0	8338	87.146966871636	9561
0	8341	87.15428828153	9560
0	8348	87.174595778106	9558
0	8355	87.310219804949	9542
0	8358	87.317555793211	9541
0	8365	87.346161116288	9538
0	8372	87.469085395902	9523
0	8379	87.595492923455	9508
0	8384	87.661576688153	9500
0	8389	87.731999751825	9492
0	8394	87.744844683505	9490
0	8402	88	9765
0	8620	90	8459
0	8794	92	8559
0	8956	94	9895
0	8961	94.05	9894
0	8966	94.094625332896	9892
0	8971	94.115520250947	9892
0	8976	94.155090418951	9890
0	8981	94.191299146497	9889
0	8986	94.204241136974	9889
0	8992	94.24510925366	9887
0	8997	94.258916799749	9887
0	9002	94.349267868334	9884
0	9007	94.395271391262	9883
0	9015	94.506835785607	9879
0	9020	94.541391163979	9878
0	9025	94.550375876474	9878
0	9032	94.771684195003	9871
0	9037	94.805086354849	9869
0	9042	94.826557515189	9869
0	9049	94.937592653984	9865
0	9052	94.944688447192	9865
0	9061	95.044764304177	9518
0	9067	95.122634498326	8529
0	9070	95.130841791092	8612
0	9080	95.351476700577	8704
0	9085	95.361680125905	8704
0	9091	95.453100342725	8701
0	9096	95.474861810897	8700
0	9101	95.491886817049	8699
0	9106	95.499933718992	8699
0	9109	95.507980620935	8699
0	9117	95.531990530663	8698
0	9122	95.563336285264	8697
0	9125	95.571385037707	8697
0	9132	95.696269539747	8692
0	9137	95.74665954983	8691
0	9142	95.780596925091	8690
0	9147	95.79758303483	8689
0	9152	95.817634759728	8688
0	9157	95.872079534924	8686
0	9163	96	8682
0	9340	98	8667
0	9597	100	8857
0	9804	102	9251
0	9984	104	8478
0	10189	106	8274
0	10356	108	9234
0	10557	110	8340
0	10720	112	8811
0	10902	114	9024
0	11067	116	9331
0	11263	118	8555
0	11435	120	9829
0	11445	120.055083165822	9817
0	11450	120.062213653751	9816
0	11453	120.069344868095	9815
0	11458	120.076476809002	9813
0	11461	120.083610203479	9812
0	11464	120.090744324963	9810
0	11479	120.188618689184	9791
0	11485	120.231036779027	9782
0	11492	120.302386863497	9768
0	11501	120.382489448557	9752
0	11506	120.398203423992	9748
0	11509	120.405384384189	9747
0	11514	120.412566081121	9745
0	11522	120.455319519243	9737
0	11526	120.462508591853	9735
0	11537	120.625050564332	9703
0	11542	120.664252372365	9695
0	11547	120.679828887146	9692
0	11554	120.733028015222	9681
0	11561	120.80086041703	9667
0	11569	120.937801450929	9640
0	11575	120.991720328211	9629
0	11584	121.143468214609	9598
0	11587	121.150761400689	9597
0	11594	121.17144060109	9593
0	11601	121.210196518304	9585
0	11609	121.370475998529	9552
0	11615	121.444494595185	9538
0	11621	121.49184492513	9528
0	11624	121.499191692552	9526
0	11632	121.545755125427	9517
0	11643	121.672732156309	9492
0	11648	121.684539464276	9489
0	11653	121.728587793256	9480
0	11659	121.735976283671	9479
0	11662	121.741916427075	9478
0	11670	121.754657428364	9475
0	11675	121.769905583136	9472
0	11680	121.777868724927	9470
0	11693	121.96219404334	9338
0	11698	121.977355465955	9325
0	11702	122	9306
0	11884	124	8918
0	12083	126	9748
0	12087	126.066379709497	9759
0	12092	126.087796447674	9763
0	12095	126.09496637495	9764
0	12102	126.107890013302	9766
0	12107	126.1416293588	9771
0	12112	126.154982697019	9774
0	12119	126.218337350978	9784
0	12125	126.259048523887	9791
0	12131	126.374188369367	9809
0	12137	126.39958819373	9814
0	12143	126.438286743991	9820
0	12149	126.462369200504	9824
0	12161	126.671195085726	9854
0	12164	126.678298799954	9855
0	12172	126.69382987271	9808
0	12177	126.700966903705	9785
0	12180	126.708120710552	9761
0	12187	126.841075176911	9321
0	12193	126.880745357958	9190
0	12199	126.912786758401	9112
0	12206	126.930538790832	9103
0	12211	126.998353241168	9070
0	12218	127.102493348138	9019
0	12223	127.138625845781	9001
0	12228	127.154524173924	8993
0	12233	127.167960631551	8986
0	12238	127.190279192057	8975
0	12244	127.349386629582	8897
0	12251	127.443377217893	8851
0	12254	127.451285928773	8847
0	12261	127.526575125748	8810
0	12267	127.565969604297	8796
0	12272	127.614963284161	8780
0	12275	127.622935949309	8777
0	12282	127.693972206123	8753
0	12287	127.709597710292	8748
0	12292	127.742140491915	8738
0	12298	127.811530537884	8715
0	12301	127.819562666398	8712
0	12308	127.856695110319	8700
0	12311	127.86474108733	8697
0	12319	127.905298045338	8684
0	12324	127.948248832177	8669
0	12329	128	8652
0	12512	130	8734
0	12652	132	8389
0	12810	134	9180
0	13027	136	9086
0	13187	138	8922
0	13418	140	9583
0	13612	142	8483
0	13753	144	9238
0	13934	146	8542
0	14132	148	8624
0	14291	150	9391
0	14491	152	9206
0	14629	154	9235
0	14773	156	9706
0	14776	156.05	9691
0	14781	156.067405077324	9686
0	14786	156.162071947174	9657
0	14792	156.172133740091	9654
0	14797	156.193590076603	9647
0	14802	156.228470058369	9637
0	14808	156.325276392736	9607
0	14814	156.373513120315	9592
0	14819	156.421269956453	9578
0	14824	156.436786152637	9573
0	14831	156.475256586393	9562
0	14836	156.490717315855	9557
0	14841	156.558176371591	9536
0	14846	156.576808510451	9531
0	14850	156.584152965388	9528
0	14862	156.714518986772	8568
0	14866	156.722688921413	8507
0	14873	156.77088842893	8557
0	14878	156.791622133133	8579
0	14881	156.799781592277	8588
0	14889	157.044127291751	8844
0	14895	157.057892943043	8859
0	14900	157.0669245823	8868
0	14908	157.232654081206	9042
0	14914	157.256736158986	9049
0	14919	157.284754817168	9056
0	14922	157.292484499147	9058
0	14929	157.313781671628	9064
0	14935	157.337924064305	9071
0	14940	157.376016047505	9081
0	14946	157.399184593031	9087
0	14951	157.429253040327	9095
0	14958	157.605282942195	9142
0	14963	157.630057834733	9149
0	14969	157.741977320006	9179
0	14974	157.769365136848	9186
0	14979	157.798315387921	9194
0	14986	157.919116043271	9226
0	14989	157.926703296685	9228
0	14997	157.991814047938	9246
0	15001	158	9248
0	15139	160	9105
0	15314	162	9335
0	15498	164	8678
0	15739	166	8750
0	15893	168	8113
0	16123	170	8022
0	16269	172	8390
0	16444	174	8775
0	16620	176	8796
0	16845	178	8844
0	17011	180	8868
0	17216	182	8667
0	17363	184	9120
0	17543	186	9489
0	17719	188	9270
0	17870	190	9197
0	18043	192	9706
0	18046	192.072986874499	9724
0	18051	192.0988588894	9731
0	18057	192.159107751429	9746
0	18063	192.310455280906	9766
0	18068	192.319117168162	9761
0	18073	192.513410592443	9659
0	18078	192.527128136698	9651
0	18083	192.588521383864	9619
0	18088	192.617170779371	9604
0	18094	192.687180711039	9567
0	18099	192.728360282308	9545
0	18104	192.735693964864	9541
0	18107	192.743030722017	9537
0	18114	192.775536145057	9520
0	18120	192.814968691544	9499
0	18126	192.862463023989	9474
0	18131	192.901111289419	9454
0	18136	192.926051375707	9441
0	18142	192.960400993426	9423
0	18145	192.967829625496	9419
0	18152	192.98681199731	9409
0	18157	193.002408821317	9401
0	18165	193.191120688885	9301
0	18171	193.217709206295	9209
0	18176	193.283507004455	8854
0	18181	193.317777857578	8669
0	18186	193.410742919735	8167
0	18192	193.464374579054	8098
0	18197	193.507864646112	8113
0	18202	193.584757256292	8139
0	18207	193.612113531076	8149
0	18212	193.635044690958	8157
0	18217	193.662882451682	8166
0	18222	193.686817485973	8175
0	18227	193.705978863787	8181
0	18230	193.714535274984	8184
0	18238	193.754679072922	8198
0	18241	193.76321774089	8201
0	18250	193.872688348312	8239
0	18255	193.890578293995	8245
0	18258	193.899068287931	8248
0	18266	193.973858760755	8274
0	18270	194	8283
0	18425	196	9371
0	18612	198	8903
0	18859	200	8266
0	19043	202	9657
0	19047	202.147330065533	9610
0	19052	202.18339773945	9599
0	19058	202.220564104515	9587
0	19064	202.317079379962	9556
0	19067	202.324404620648	9554
0	19075	202.518009400288	9492
0	19081	202.725834767113	9425
0	19087	202.822087809864	9465
0	19092	202.8581316587	9572
0	19096	202.865444654939	9594
0	19105	202.964446241734	9446
0	19111	203.062511763723	9241
0	19116	203.131174447132	9098
0	19119	203.138868445813	9082
0	19127	203.166540730333	9024
0	19132	203.182689653517	8990
0	19139	203.4251092042	8484
0	19144	203.435079343556	8463
0	19150	203.499305521641	8329
0	19155	203.512508355328	8302
0	19161	203.597506355639	8124
0	19168	203.642593005658	8149
0	19171	203.651183016702	8159
0	19179	203.710735228294	8226
0	19184	203.767104535903	8290
0	19189	203.805233614329	8333
0	19194	203.979466531889	8530
0	19198	204	8553
0	19376	206	8628
0	19576	208	9243
0	19799	210	9214
0	19984	212	9384
0	20233	214	8675
0	20449	216	9447
0	20624	218	9596
0	20766	220	9746
0	20945	222	9506
0	21047	224	9282
0	21246	226	8220
0	21436	228	8691
0	21659	230	9662
0	21865	232	9645
0	22043	234	9487
0	22243	236	9206
0	22434	238	8537
0	22611	240	9172
0	22791	242	9256
0	22989	244	9478
0	22992	244.016670290512	9480
0	22998	244.142855935958	9496
0	23003	244.151680378569	9497
0	23008	244.163091434641	9499
0	23014	244.229897020795	9507
0	23019	244.354759402743	9523
0	23024	244.366572662646	9525
0	23027	244.373921744011	9526
0	23034	244.477529794233	9539
0	23039	244.542318156782	9547
0	23042	244.549650303006	9548
0	23050	244.578327601304	9552
0	23058	244.763599610852	9464
0	23063	244.857605756846	9387
0	23068	244.867283430429	9379
0	23074	244.943918661327	9316
0	23079	244.954057391401	9308
0	23084	244.993305420364	9276
0	23088	245.000851776552	9269
0	23095	245.059611951636	9221
0	23101	245.069350065356	9213
0	23106	245.111152049588	9179
0	23112	245.162350118312	9137
0	23117	245.262475435323	9054
0	23122	245.288963103864	9033
0	23127	245.327748536632	9001
0	23133	245.490689281735	8867
0	23139	245.535123233884	8830
0	23144	245.562496582866	8808
0	23149	245.579799168352	8793
0	23156	245.736135322224	8665
0	23161	245.791874027982	8619
0	23164	245.799995619814	8612
0	23171	245.8171451782	8598
0	23177	245.832048242239	8586
0	23183	245.883711526791	8555
0	23188	245.994679169671	8608
0	23189	246	8610
0	23478	248	9572
0	23657	250	9472
0	23812	252	8941
0	24063	254	8418
0	24264	256	8202
0	24454	258	8261
0	24630	260	8481
0	24826	262	9840
0	24835	262.230116202596	9819
0	24841	262.261980394396	9813
0	24846	262.295518212783	9806
0	24854	262.497919380158	9767
0	24861	262.62567088164	9742
0	24870	262.836258624032	9410
0	24873	262.843697518825	9391
0	24880	262.851151464092	9371
0	24883	262.858621317896	9352
0	24892	262.99520612777	8996
0	24900	263.048742992482	8901
0	24909	263.279012622188	8850
0	24914	263.301402610385	8845
0	24919	263.319197706337	8841
0	24924	263.336320913886	8838
0	24929	263.417382083423	8820
0	24934	263.436920520138	8815
0	24939	263.448495923113	8813
0	24944	263.471494919771	8808
0	24949	263.509810555026	8799
0	24954	263.588137163212	8782
0	24959	263.644205147232	8769
0	24964	263.694731266197	8758
0	24969	263.706608218678	8756
0	24975	263.799972276814	8735
0	24981	263.847508453686	8724
0	24988	263.953895285824	8701
0	24992	264	8691
0	25154	266	9407
0	25318	268	9591
0	25511	270	9776
0	25717	272	8401
0	25864	274	9147
0	26018	276	8839
0	26186	278	9268
0	26341	280	8135
0	26525	282	9460
0	26691	284	9185
0	26887	286	9271
0	27052	288	8650
0	27230	290	9279
0	27406	292	8610
0	27620	294	9867
0	27826	296	9224
0	28046	298	8845
0	28194	300	9241
0	28392	302	8538
0	28564	304	9453
0	28822	306	9729
0	28828	306.058822033022	9696
0	28837	306.225356527846	9603
0	28842	306.263637905749	9582
0	28848	306.289049832099	9568
0	28855	306.361757863021	9527
0	28858	306.369105401596	9523
0	28867	306.440133396162	9483
0	28872	306.466261778237	9469
0	28877	306.47902152447	9462
0	28883	306.490987952632	9455
0	28892	306.556101453627	9419
0	28897	306.574661713646	9408
0	28904	306.689020637693	9344
0	28910	306.747979753155	9311
0	28915	306.764097022876	9302
0	28920	306.799219002721	9283
0	28929	306.884393561918	9235
0	28935	306.964373041335	9191
0	28943	307.024651694585	9157
0	28950	307.085458962773	9123
0	28961	307.271692808864	9019
0	28966	307.293141084847	9007
0	28971	307.311227386775	8997
0	28977	307.334710162145	8984
0	28982	307.344764020895	8978
0	28995	307.440776779097	8924
0	29000	307.463225319841	8912
0	29006	307.508803446436	8886
0	29012	307.526704475452	8876
0	29017	307.534879822025	8872
0	29026	307.619720173301	8825
0	29031	307.672738422627	8795
0	29038	307.751993387898	8751
0	29043	307.76090192246	8746
0	29050	307.82736441559	8709
0	29056	307.949184378053	8641
0	29061	307.963814174554	8632
0	29066	307.972119587898	8628
0	29071	308	8612
0	29248	310	8181
0	29423	312	8216
0	29578	314	9486
0	29586	314.058041709282	9520
0	29595	314.228804577244	9634
0	29600	314.266980216103	9659
0	29606	314.291425399471	9676
0	29609	314.298659793849	9681
0	29614	314.305890451839	9686
0	29626	314.375779892149	9477
0	29636	314.601185231588	9131
0	29643	314.718503053078	9165
0	29649	314.814088884134	9192
0	29654	314.83114672758	9197
0	29659	314.851965181373	9203
0	29665	314.874667521	9209
0	29668	314.882268780637	9212
0	29677	314.916607658604	9222
0	29683	314.935015822917	9227
0	29686	314.939867564832	9228
0	29701	315.125497059524	9281
0	29704	315.133039350225	9284
0	29711	315.169709816281	9294
0	29719	315.202508463372	9303
0	29724	315.22342355878	9309
0	29730	315.241588779898	9315
0	29736	315.266737621745	9322
0	29743	315.297993947224	9331
0	29749	315.313613281391	9335
0	29756	315.349963924487	9346
0	29764	315.399950480545	9360
0	29774	315.624419978637	9424
0	29779	315.639110136292	9429
0	29786	315.812333379749	9478
0	29793	315.883755634818	9499
0	29798	315.892786184354	9501
0	29804	315.931192503545	9512
0	29811	316	9532
0	29814	316.059715440782	9549
0	29819	316.070105957946	9552
0	29822	316.077434266154	9554
0	29834	316.342560153228	9350
0	29839	316.385072308675	9264
0	29845	316.415495251312	9211
0	29850	316.426236385057	9205
0	29855	316.455839075205	9190
0	29860	316.483171248324	9176
0	29867	316.518266866422	9155
0	29872	316.599867102056	9091
0	29877	316.614588235418	9080
0	29883	316.647739769712	9054
0	29893	316.84527061664	8900
0	29899	316.943959379791	8823
0	29904	316.977110243798	8797
0	29909	317.053234943032	8738
0	29914	317.106171985956	8696
0	29919	317.277885459512	8563
0	29924	317.302745593405	8543
0	29929	317.348579863876	8507
0	29934	317.387879835475	8477
0	29939	317.485093981043	8401
0	29946	317.625754945056	8291
0	29951	317.64915175361	8273
0	29956	317.66015925907	8265
0	29961	317.685614822086	8245
0	29966	317.780233527144	8171
0	29972	317.810934132986	8147
0	29978	317.848143150426	8151
0	29983	317.879894313239	8156
0	29988	317.897713118488	8159
0	29991	317.906292601268	8160
0	29999	317.973843591823	8170
0	30003	318	8174
0	30194	320	8332
0	30357	322	9131
0	30553	324	9263
0	30719	326	9418
0	30925	328	8685
0	31105	330	8360
0	31322	332	9701
0	31514	334	9032
0	31699	336	9030
0	31847	338	8949
0	32019	340	9518
0	32024	340.05	9482
0	32027	340.057382408775	9476
0	32030	340.064769491932	9471
0	32035	340.072160474933	9466
0	32043	340.191365321409	9446
0	32048	340.234215389579	9446
0	32054	340.261432939333	9446
0	32060	340.28212189407	9446
0	32066	340.299672105141	9446
0	32071	340.314744622315	9446
0	32076	340.369257042796	9446
0	32083	340.496334216479	9446
0	32088	340.642618318497	9446
0	32093	340.652777609784	9446
0	32098	340.66148679359	9446
0	32103	340.681246222633	9446
0	32108	340.698566522832	9446
0	32114	340.727845668341	9446
0	32117	340.735256212487	9446
0	32124	340.749292989902	9446
0	32129	340.770884768979	9446
0	32134	340.78508210582	9446
0	32140	340.859813208079	9446
0	32146	340.948293496423	9446
0	32149	340.955704040569	9446
0	32156	340.978738304722	9446
0	32162	341.000067400811	9446
0	32165	341.007477944957	9446
0	32172	341.055536228682	9446
0	32178	341.102244829936	9446
0	32183	341.196207023658	9446
0	32188	341.204252413432	9446
0	32198	341.475974290166	9446
0	32203	341.502519429067	9446
0	32209	341.535845094853	9446
0	32217	341.663981311777	9446
0	32224	341.708242635562	9446
0	32229	341.735884929695	9446
0	32234	341.859661963296	9446
0	32242	341.919725346694	9446
0	32247	341.957657429302	9446
0	32251	342	9446
0	32461	344	9143
0	32603	346	9612
0	32606	346.079769576329	9782
0	32609	346.086925577147	9797
0	32618	346.1268983308	9876
0	32624	346.156821513318	9876
0	32630	346.172723878667	9875
0	32636	346.220844034423	9874
0	32642	346.424463151564	9868
0	32647	346.432339194993	9868
0	32656	346.585859268517	9864
0	32661	346.688174177401	9861
0	32668	346.763814685999	9859
0	32673	346.805087922141	9858
0	32678	346.851733901244	9857
0	32684	346.867758291894	9856
0	32689	346.895204454528	9856
0	32694	346.949105547218	9854
0	32700	347.07746795514	9850
0	32707	347.17204535124	9847
0	32712	347.261140277197	9845
0	32717	347.284956562331	9844
0	32724	347.372420156285	9842
0	32729	347.444954518646	9840
0	32734	347.487369663246	9838
0	32739	347.520871871421	9837
0	32742	347.527987862069	9837
0	32749	347.722920177635	9831
0	32754	347.771934184862	9830
0	32759	347.860360485721	9827
0	32765	347.973370031789	9824
0	32770	347.9998061268	9823
0	32771	348	9823
0	32951	350	9765
0	32954	350.033464226473	9764
0	32961	350.112125658916	9762
0	32966	350.200667577423	9759
0	32973	350.351116319798	9755
0	32978	350.362355364145	9754
0	32983	350.382183734136	9754
0	32988	350.420553749354	9753
0	32995	350.490951354772	9751
0	33000	350.52747506685	9750
0	33006	350.558190381694	9743
0	33012	350.600185333133	9735
0	33017	350.620753907576	9730
0	33024	350.771030699679	9699
0	33031	350.980675785417	9656
0	33041	351.268077482173	9693
0	33046	351.293798426423	9714
0	33049	351.30100452072	9720
0	33054	351.308206166811	9726
0	33059	351.315403370183	9732
0	33066	351.344319268641	9757
0	33072	351.454483468657	9850
0	33077	351.490100944765	9880
0	33080	351.497185965008	9886
0	33089	351.579310315464	9856
0	33095	351.801885090295	9262
0	33102	351.981526235553	9072
0	33106	352	9052
0	33362	354	8560
0	33516	356	8851
0	33682	358	8476
0	33862	360	9805
0	33866	360.05	9853
0	33869	360.057104435197	9860
0	33876	360.073872670913	9876
0	33881	360.091666564687	9893
0	33887	360.171571642369	9865
0	33893	360.221467557406	9820
0	33898	360.2368539387	9806
0	33903	360.259820140229	9786
0	33909	360.37219024488	9736
0	33914	360.382200755522	9735
0	33919	360.398710789729	9732
0	33924	360.433983311828	9726
0	33930	360.498609244539	9715
0	33936	360.539612501382	9708
0	33941	360.551137180843	9706
0	33949	360.826056655815	9659
0	33954	360.878372509609	9650
0	33957	360.885626395619	9649
0	33964	360.923018084826	9642
0	33969	360.944517680338	9639
0	33974	360.995348832342	9630
0	33979	361.109938391616	9610
0	33984	361.139100386408	9605
0	33990	361.203775253866	9594
0	33996	361.363593479573	9567
0	34002	361.468751470483	9549
0	34008	361.491059463594	9545
0	34013	361.55583940312	9534
0	34020	361.699079915002	9510
0	34026	361.784591084485	9495
0	34034	361.867076653743	9481
0	34040	361.907822050991	9474
0	34045	361.93520125973	9469
0	34050	361.948956819668	9467
0	34055	361.985772332036	9461
0	34059	362	9458
0	34224	364	8658
0	34444	366	9185
0	34680	368	9440
0	34839	370	9518
0	35073	372	9568
0	35328	374	8982
0	35510	376	9743
0	35514	376.05	9581
0	35524	376.302375879539	8759
0	35529	376.411774078402	8403
0	35538	376.615871916923	8103
0	35543	376.638711044892	8121
0	35549	376.66630553799	8143
0	35557	376.758117575056	8217
0	35562	376.7696524385	8226
0	35567	376.826181737798	8271
0	35572	376.846387516601	8287
0	35578	376.938359202236	8360
0	35581	376.946732407978	8367
0	35588	376.973329657143	8388
0	35591	376.981674912269	8395
0	35600	377.056399096616	8454
0	35603	377.064679200709	8461
0	35610	377.090077598745	8481
0	35617	377.156871346963	8535
0	35620	377.165072870103	8541
0	35625	377.173268631723	8548
0	35632	377.219824984161	8585
0	35637	377.258689054871	8616
0	35642	377.295033367788	8645
0	35648	377.327822366345	8671
0	35653	377.345314124813	8685
0	35658	377.49471553141	8804
0	35663	377.628315968084	8910
0	35671	377.794904750307	9240
0	35676	377.823863661807	9207
0	35683	377.928900222252	9087
0	35686	377.936603534676	9078
0	35693	378	9006
0	35884	380	9008
0	36069	382	8950
0	36290	384	8429
0	36482	386	8532
0	36652	388	9033
0	36899	390	9036
0	37073	392	9624
0	37337	394	9105
0	37496	396	8852
0	37670	398	8849
0	37839	400	8830
1	925	10	8906
1	1135	12	8222
1	1294	14	9420
1	1483	16	9451
1	1718	18	9030
1	1880	20	8446
1	2068	22	9394
1	2238	24	8480
1	2421	26	8873
1	2654	28	8511
1	2872	30	9258
1	3089	32	9092
1	3238	34	9005
1	3397	36	9280
1	3575	38	9587
1	3816	40	9438
1	4034	42	9078
1	4246	44	9884
1	4249	44.080315479421	9884
1	4255	44.11365501421	9885
1	4262	44.183930835907	9885
1	4267	44.222389248623	9885
1	4272	44.294552075653	9886
1	4277	44.346630274574	9886
1	4282	44.370455131575	9886
1	4287	44.446033601812	9887
1	4292	44.530860601584	9888
1	4295	44.53793988961	9888
1	4303	44.593153277396	9888
1	4308	44.672024603281	9888
1	4313	44.688492414601	9889
1	4318	44.775886027296	9889
1	4323	44.786385730189	9889
1	4326	44.79346430234	9889
1	4333	44.882467963741	9890
1	4339	44.904582940118	9890
1	4348	45.096478238724	9891
1	4353	45.112383824808	9892
1	4359	45.1491485515	9892
1	4364	45.191150089667	9892
1	4370	45.244790173828	9892
1	4376	45.429174687195	9894
1	4382	45.546173301906	9894
1	4389	45.595134415744	9895
1	4396	45.631797869421	9895
1	4399	45.63887214936	9895
1	4408	45.819987537345	9896
1	4413	45.878308190809	9897
1	4419	45.929754296966	9897
1	4423	46	9898
1	4427	46.05	9898
1	4433	46.152174822964	9899
1	4438	46.162467140606	9899
1	4445	46.306177927969	9900
1	4453	46.59918786739	9902
1	4459	46.700601964676	9902
1	4462	46.70767124361	9902
1	4469	46.716351301428	9902
1	4472	46.723420580362	9903
1	4479	46.781781363363	9903
1	4485	46.842024433796	9903
1	4490	46.872517601039	9904
1	4497	47.051424380479	9844
1	4500	47.058535310995	9834
1	4508	47.220946589387	9605
1	4513	47.254048806142	9558
1	4518	47.289633701982	9508
1	4523	47.307593404927	9482
1	4528	47.385643650575	9372
1	4533	47.499087399841	9212
1	4539	47.580430510672	9097
1	4542	47.588125355126	9086
1	4549	47.604465131215	9063
1	4555	47.796090843576	8792
1	4558	47.804052627015	8781
1	4566	47.830089877139	8744
1	4572	47.86529600554	8695
1	4577	47.891765294184	8657
1	4582	47.921597851365	8615
1	4585	47.929723214104	8604
1	4592	47.968123534859	8550
1	4597	47.980414670888	8532
1	4601	48	8505
1	4836	50	8300
1	5007	52	8376
1	5159	54	8739
1	5345	56	9275
1	5348	56.05	9289
1	5353	56.058136340838	9291
1	5358	56.100199071398	9302
1	5364	56.135992066411	9312
1	5369	56.157071343304	9318
1	5374	56.178856073715	9323
1	5381	56.309129626596	9358
1	5387	56.418781202665	9388
1	5392	56.444801093987	9395
1	5397	56.461089291973	9399
1	5402	56.541543395448	9421
1	5407	56.583419648378	9432
1	5412	56.632049237209	9445
1	5419	56.803494758078	9491
1	5425	56.81699730771	9495
1	5431	56.877304246624	9511
1	5437	56.925017578703	9524
1	5442	57.046192648896	9556
1	5447	57.090186169217	9568
1	5455	57.259200873015	9625
1	5460	57.284935583161	9640
1	5467	57.368297093578	9689
1	5470	57.375521781368	9693
1	5480	57.441946220005	9662
1	5485	57.451614774735	9658
1	5494	57.65807141759	9559
1	5499	57.666555004354	9555
1	5509	57.977662769736	9406
1	5514	58	9395
1	5694	60	8850
1	5888	62	8943
1	6152	64	9396
1	6318	66	9259
1	6488	68	8941
1	6684	70	8993
1	6903	72	8988
1	7081	74	8841
1	7236	76	8212
1	7428	78	9582
1	7595	80	8853
1	7813	82	9123
1	7994	84	9324
1	8220	86	9554
1	8402	88	9391
1	8620	90	9843
1	8623	90.068366511818	9835
1	8628	90.124646998754	9829
1	8634	90.328222841632	9806
1	8639	90.352106501931	9803
1	8645	90.394618666457	9799
1	8650	90.491998067481	9788
1	8655	90.513433175197	9785
1	8660	90.622039835885	9773
1	8665	90.669883744435	9768
1	8670	90.702081069413	9764
1	8679	90.862342567823	9746
1	8684	90.894573592048	9743
1	8691	90.938706997345	9738
1	8697	91.10422067672	9719
1	8702	91.122874200506	9717
1	8707	91.19972197989	9709
1	8714	91.325651085604	9695
1	8717	91.33287130221	9694
1	8725	91.355563515777	9691
1	8730	91.388865419296	9688
1	8735	91.396090852822	9687
1	8740	91.403317032238	9686
1	8747	91.411940459103	9685
1	8753	91.642455437311	9656
1	8758	91.665439521336	9654
1	8764	91.71680949078	9647
1	8770	91.834254594314	9633
1	8777	91.896169836489	9625
1	8782	91.932974920456	9620
1	8787	91.960171988705	9617
1	8793	91.995454617406	9612
1	8794	92	9612
1	8956	94	8182
1	9163	96	8647
1	9340	98	8318
1	9597	100	8110
1	9804	102	9752
1	9984	104	9299
1	10189	106	8722
1	10356	108	9416
1	10557	110	9302
1	10561	110.104363371125	9306
1	10567	110.182800854225	9309
1	10572	110.232953508277	9311
1	10578	110.284748420933	9314
1	10583	110.312272541413	9315
1	10588	110.334222631761	9316
1	10593	110.359366879975	9317
1	10603	110.628604784649	9328
1	10609	110.713576393479	9331
1	10615	110.764779834652	9333
1	10620	110.787442656984	9334
1	10626	110.961412576205	9341
1	10631	111.025669878987	9344
1	10637	111.074897933062	9346
1	10643	111.118602771587	9347
1	10649	111.168501348749	9349
1	10655	111.208312649845	9351
1	10658	111.215798480237	9351
1	10666	111.350320709183	9357
1	10670	111.357801739428	9357
1	10677	111.405447897011	9359
1	10683	111.462631102582	9361
1	10689	111.567850943622	9366
1	10694	111.646775093176	9369
1	10699	111.724359409449	9372
1	10704	111.741144817593	9373
1	10707	111.748613077488	9373
1	10716	111.942917760173	9381
1	10720	112	9383
1	10902	114	9465
1	10905	114.05	9467
1	10910	114.071017637831	9468
1	10915	114.113057900361	9469
1	10920	114.189142215792	9472
1	10925	114.219039544825	9474
1	10930	114.243605903585	9475
1	10935	114.27345410223	9476
1	10940	114.351520860502	9479
1	10946	114.446461299519	9483
1	10951	114.5477699692	9487
1	10959	114.621232951359	9490
1	10964	114.635961120287	9491
1	10969	114.659005414589	9492
1	10974	114.87756799587	9500
1	10980	115.097921570984	9509
1	10985	115.108551435639	9510
1	10990	115.241856267789	9515
1	10995	115.262476790889	9516
1	11001	115.334901060543	9519
1	11006	115.346793139776	9519
1	11011	115.381665577963	9521
1	11016	115.407099118382	9522
1	11021	115.421037440231	9523
1	11026	115.460280053982	9524
1	11031	115.525891216611	9527
1	11037	115.570201968832	9529
1	11043	115.654320585652	9532
1	11049	115.769607821811	9537
1	11055	115.825200036443	9539
1	11061	115.957336143169	9544
1	11066	115.998401279663	9546
1	11067	116	9546
1	11263	118	9524
1	11266	118.194258739426	9394
1	11272	118.287831816329	9332
1	11277	118.301015241059	9323
1	11282	118.338782715139	9297
1	11287	118.38471394357	9267
1	11290	118.392267628689	9262
1	11297	118.409998780739	9250
1	11302	118.515908487513	9179
1	11307	118.537667788295	9165
1	11313	118.631438881559	9102
1	11318	118.685090880972	9066
1	11323	118.728506387058	9037
1	11330	118.881353462112	8935
1	11333	118.889187821373	8930
1	11341	118.980103876904	8869
1	11348	118.988899624457	8863
1	11353	119.066128150806	8811
1	11361	119.140813875534	8762
1	11366	119.189960148137	8729
1	11372	119.243581661642	8693
1	11379	119.396874509026	8657
1	11386	119.469121778633	8709
1	11391	119.509800909936	8739
1	11396	119.536665806421	8759
1	11401	119.660874346711	8850
1	11407	119.720428493782	8894
1	11412	119.828167910112	8972
1	11417	119.862405275592	8998
1	11423	119.876840617257	9008
1	11428	119.908886376535	9032
1	11434	119.997387475409	9096
1	11435	120	9098
1	11702	122	8655
1	11884	124	8152
1	12083	126	9542
1	12329	128	9274
1	12512	130	8253
1	12652	132	9113
1	12810	134	8968
1	13027	136	9182
1	13187	138	9777
1	13191	138.05	9789
1	13195	138.057150883645	9790
1	13202	138.132946310384	9807
1	13207	138.168640680444	9816
1	13213	138.192638102869	9558
1	13218	138.223603186411	9056
1	13225	138.317747437248	8675
1	13228	138.325816601513	8644
1	13233	138.333914704243	8612
1	13242	138.500930342011	8299
1	13247	138.530816648113	8368
1	13252	138.623591518728	8583
1	13257	138.638592975862	8618
1	13262	138.679769005313	8713
1	13267	138.748837871162	8872
1	13272	138.772589796514	8927
1	13275	138.780431176597	8945
1	13282	138.791089912246	8970
1	13288	138.821442768092	9040
1	13293	138.832354916617	9065
1	13298	138.851786619058	9110
1	13303	138.868291557884	9148
1	13308	138.910646408315	9246
1	13314	138.925594742025	9281
1	13320	138.951432272391	9341
1	13326	139.025642808176	9512
1	13331	139.099177188292	9682
1	13338	139.187262283062	9133
1	13341	139.194926796365	9132
1	13349	139.215859860331	9132
1	13355	139.276165033701	9130
1	13361	139.286582946128	9130
1	13366	139.30230936424	9130
1	13371	139.364402730046	9128
1	13376	139.383179361268	9128
1	13382	139.407462073185	9127
1	13388	139.504105076311	9124
1	13393	139.665620214771	9120
1	13401	139.852448464482	9115
1	13409	139.945705961647	9113
1	13414	139.968542086326	9112
1	13418	140	9111
1	13612	142	8727
1	13753	144	8057
1	13934	146	9749
1	13937	146.05	9818
1	13943	146.102543030535	9805
1	13948	146.220643096946	8831
1	13953	146.278918424784	8351
1	13959	146.342424213288	8038
1	13964	146.363705998817	8047
1	13970	146.389028122046	8058
1	13976	146.426100419169	8074
1	13982	146.473857645309	8094
1	13987	146.543130360027	8124
1	13994	146.644447357432	8167
1	13999	146.733590123491	8205
1	14002	146.742121506794	8209
1	14010	146.802333477303	8234
1	14017	146.899223084972	8276
1	14023	146.928463213224	8288
1	14028	146.93690915917	8292
1	14032	146.945351030854	8295
1	14039	147.034617965927	8333
1	14046	147.173380886651	8393
1	14051	147.272260324815	8435
1	14056	147.280559080002	8438
1	14061	147.288854884695	8442
1	14064	147.297146758659	8445
1	14071	147.341644381772	8464
1	14077	147.433391715828	8504
1	14082	147.475275640734	8521
1	14085	147.483490638974	8525
1	14091	147.491701782669	8529
1	14098	147.620398186982	8583
1	14103	147.630035003459	8588
1	14112	147.76706726007	8646
1	14117	147.856104108092	8684
1	14120	147.864164909566	8688
1	14127	147.909877797383	8707
1	14132	148	8746
1	14291	150	8704
1	14491	152	8473
1	14629	154	8237
1	14773	156	9120
1	15001	158	8520
1	15139	160	9693
1	15144	160.05	9699
1	15145	160.057217238891	9700
1	15152	160.072911091795	9702
1	15157	160.20234767992	9719
1	15163	160.272153875459	9729
1	15169	160.360114541066	9740
1	15172	160.367301399382	9741
1	15181	160.437388284215	9750
1	15186	160.485197134174	9757
1	15189	160.492371470548	9757
1	15196	160.550345586047	9765
1	15201	160.58061858173	9769
1	15206	160.631315896306	9776
1	15211	160.642310594191	9777
1	15216	160.661496266814	9780
1	15221	160.765022188296	9793
1	15226	160.779993309556	9795
1	15232	160.852337496853	9805
1	15237	160.862342050121	9806
1	15243	160.991116737194	9823
1	15248	161.076712037078	9834
1	15256	161.280619299056	9861
1	15262	161.375039910105	9873
1	15268	161.464471937759	9880
1	15273	161.512427446387	9814
1	15279	161.82176453707	9382
1	15284	161.867363516835	9319
1	15289	161.924598382237	9239
1	15295	161.951479430866	9202
1	15300	161.959086472813	9191
1	15305	161.966702619043	9180
1	15308	161.974327891374	9170
1	15314	162	9134
1	15498	164	9704
1	15739	166	8129
1	15893	168	9121
1	16123	170	9586
1	16128	170.05	9600
1	16129	170.057291666667	9602
1	16140	170.213234159259	9644
1	16148	170.352387788865	9682
1	16158	170.554804377223	9737
1	16164	170.616476895209	9753
1	16170	170.67455181572	9769
1	16177	170.76115385824	9540
1	16182	170.818815027037	9290
1	16188	170.84129759286	9193
1	16195	171.094813606951	9088
1	16200	171.104996760744	9091
1	16205	171.235969343592	9124
1	16210	171.29921069582	9140
1	16216	171.386118744573	9163
1	16221	171.410784898079	9169
1	16226	171.433361761286	9175
1	16231	171.467113688444	9183
1	16236	171.494412458533	9190
1	16242	171.607974777063	9219
1	16247	171.621458472983	9223
1	16250	171.629048194332	9225
1	16257	171.662879647363	9233
1	16263	171.757761490144	9258
1	16269	172	9320
1	16444	174	8973
1	16620	176	9245
1	16845	178	8461
1	17011	180	8932
1	17216	182	9161
1	17363	184	9838
1	17370	184.05	9854
1	17373	184.057103714228	9856
1	17376	184.064205986955	9858
1	17379	184.071306818767	9860
1	17388	184.126919503887	9837
1	17394	184.162440920018	9736
1	17399	184.187875243486	9663
1	17407	184.29671200322	9351
1	17412	184.309128819215	9316
1	17417	184.324176975153	9273
1	17422	184.353918849517	9187
1	17427	184.394785474638	9070
1	17436	184.607962093494	9235
1	17442	184.76719179212	9505
1	17445	184.774556337096	9518
1	17453	184.840521545652	9630
1	17456	184.847790496846	9642
1	17464	184.938533497178	9745
1	17470	185.033946068689	9711
1	17475	185.081989205649	9694
1	17482	185.18487567931	9658
1	17488	185.421013024257	9574
1	17493	185.46092100522	9560
1	17498	185.514221428499	9541
1	17506	185.708768583085	9472
1	17509	185.716158785788	9470
1	17517	185.770849360517	9450
1	17522	185.784086874029	9446
1	17527	185.837728958941	9427
1	17533	185.868857768411	9416
1	17539	185.976223128416	9378
1	17543	186	9370
1	17719	188	8663
1	17870	190	9002
1	18043	192	9198
1	18270	194	9445
1	18274	194.057348749189	9452
1	18279	194.116731073458	9459
1	18285	194.208614135035	9471
1	18292	194.296739679798	9482
1	18298	194.326863923928	9485
1	18305	194.414763256219	9496
1	18313	194.496469733486	9506
1	18319	194.612983163693	9521
1	18325	194.642570859883	9524
1	18331	194.719017253901	9531
1	18336	194.741751365434	9533
1	18343	194.973576538815	9554
1	18348	194.989687158513	9555
1	18354	195.127141501827	9567
1	18359	195.224856202632	9576
1	18366	195.27787358824	9581
1	18369	195.285179714949	9581
1	18377	195.332871195239	9586
1	18382	195.349266215675	9587
1	18385	195.356567769863	9588
1	18392	195.372875521498	9589
1	18401	195.76408546266	9624
1	18406	195.820218579811	9629
1	18411	195.828683091927	9630
1	18416	195.861971575921	9633
1	18421	195.942876171008	9640
1	18425	196	9645
1	18429	196.05	9650
1	18435	196.111374732678	9655
1	18440	196.120638075139	9656
1	18445	196.148651817649	9658
1	18450	196.173897551293	9661
1	18455	196.187050531942	9662
1	18460	196.232263894343	9666
1	18463	196.239505773093	9666
1	18470	196.296964405608	9672
1	18475	196.379808438932	9679
1	18480	196.398658272891	9681
1	18485	196.434818669499	9684
1	18490	196.452979924691	9685
1	18496	196.528026551825	9692
1	18499	196.535249003331	9693
1	18507	196.679070884631	9706
1	18512	196.782869161472	9715
1	18517	196.792379632761	9716
1	18520	196.799584243712	9716
1	18527	196.945005457886	9729
1	18533	196.971842220969	9732
1	18540	197.003665816423	9734
1	18545	197.015566022154	9735
1	18550	197.037419683982	9737
1	18555	197.079221008766	9741
1	18562	197.251168821656	9756
1	18569	197.487869284724	9106
1	18577	197.768222893249	8211
1	18582	197.801008542269	8241
1	18587	197.814314128894	8253
1	18592	197.867173617529	8300
1	18598	197.931346836683	8358
1	18604	197.985014325095	8406
1	18607	197.993341710296	8413
1	18612	198	8419
1	18859	200	8976
1	19043	202	9537
1	19198	204	9504
1	19376	206	8836
1	19576	208	8737
1	19799	210	9119
1	19984	212	8847
1	20233	214	9567
1	20449	216	8850
1	20624	218	8702
1	20766	220	8712
1	20945	222	8804
1	21047	224	9453
1	21246	226	9639
1	21249	226.066395797926	9630
1	21254	226.096017173459	9626
1	21259	226.108465264465	9624
1	21264	226.150714478057	9619
1	21270	226.222500236976	9609
1	21277	226.33578921141	9594
1	21283	226.546938066301	9566
1	21289	226.646445159892	9552
1	21294	226.658007515104	9551
1	21297	226.665336590593	9550
1	21302	226.672666433525	9549
1	21309	226.682264811405	9548
1	21314	226.753260798802	9538
1	21320	226.781668829561	9534
1	21326	226.872286187765	9522
1	21332	226.915334723458	9516
1	21337	226.955800026448	9511
1	21343	227.011835113305	9504
1	21349	227.068283409387	9496
1	21354	227.07764039461	9495
1	21359	227.091987808278	9493
1	21366	227.163488894268	9483
1	21371	227.202335082222	9478
1	21376	227.33519811101	9460
1	21379	227.342597688177	9459
1	21386	227.357524327407	9457
1	21391	227.380789671811	9454
1	21397	227.427366466922	9448
1	21402	227.44747634733	9445
1	21410	227.722392085115	9409
1	21415	227.757678826614	9404
1	21420	227.819669990002	9396
1	21425	227.979334001993	9374
1	21428	227.986801465189	9373
1	21435	227.997207460082	9372
1	21436	228	9371
1	21659	230	8738
1	21865	232	8922
1	22043	234	8843
1	22243	236	8687
1	22434	238	8199
1	22611	240	9139
1	22791	242	8684
1	22989	244	9184
1	23189	246	8825
1	23478	248	9634
1	23481	248.038532614	9559
1	23488	248.104476407344	9430
1	23494	248.350941950966	8949
1	23499	248.40429621849	8845
1	23503	248.412210294239	8830
1	23510	248.466301474487	8724
1	23515	248.475732300221	8706
1	23520	248.508610950468	8642
1	23527	248.599216647424	8465
1	23533	248.63811848993	8389
1	23539	248.736243071909	8315
1	23547	248.837470696036	8802
1	23554	248.925455170791	9247
1	23563	248.978531359294	9618
1	23568	249.024732909078	9605
1	23571	249.032020779979	9603
1	23582	249.262061696291	9538
1	23585	249.269400761084	9536
1	23592	249.294149401706	9529
1	23597	249.337103850644	9517
1	23602	249.392373559684	9501
1	23607	249.439576190056	9488
1	23610	249.44695393036	9486
1	23618	249.545128150347	9458
1	23623	249.576771620018	9449
1	23630	249.655428769833	9427
1	23635	249.732344849239	9405
1	23640	249.747668037206	9401
1	23645	249.764034765111	9396
1	23651	249.858710259171	9369
1	23657	250	9330
1	23812	252	9428
1	24063	254	8643
1	24264	256	9626
1	24269	256.097907718718	9765
1	24274	256.113620805965	9757
1	24280	256.189315863461	9719
1	24285	256.222695733088	9702
1	24290	256.361113780626	9634
1	24295	256.417685684913	9606
1	24300	256.431202739866	9599
1	24306	256.478533203924	9575
1	24311	256.531640585657	9549
1	24318	256.75231277504	9439
1	24323	256.778593103516	9426
1	24329	256.847028622841	9392
1	24337	256.928714215864	9352
1	24342	257.009526230107	9311
1	24347	257.045383323846	9294
1	24352	257.249978152387	9192
1	24357	257.281858340548	9176
1	24362	257.313969336169	9160
1	24367	257.323226892373	9155
1	24372	257.349572532354	9142
1	24378	257.375841400665	9129
1	24381	257.383509272283	9125
1	24389	257.444654316991	9095
1	24394	257.456869797	9089
1	24399	257.499520680276	9068
1	24404	257.515765429306	9060
1	24409	257.559695167415	9038
1	24414	257.571859197521	9032
1	24419	257.634534923364	9001
1	24424	257.718871847148	8959
1	24429	257.738236219315	8949
1	24434	257.784293332974	8926
1	24439	257.799258446349	8919
1	24445	257.865349520463	8886
1	24454	258	8819
1	24630	260	8870
1	24826	262	9307
1	24992	264	9048
1	25154	266	9309
1	25318	268	9780
1	25321	268.069305557918	9796
1	25324	268.076451331703	9798
1	25331	268.13653086968	9812
1	25337	268.239559758107	9836
1	25342	268.28186176868	9846
1	25347	268.295655996262	9849
1	25352	268.333300006076	9858
1	25357	268.397140550733	9873
1	25363	268.529783889527	9904
1	25369	268.575452686896	9915
1	25372	268.582512696982	9917
1	25379	268.67060756816	9937
1	25384	268.677856880397	9939
1	25391	268.765130726738	9811
1	25394	268.772265575377	9605
1	25402	268.822987661702	9354
1	25408	268.907853324079	9226
1	25413	268.960001910609	9147
1	25419	268.984901120495	9110
1	25426	269.064438149133	8990
1	25432	269.125399599249	8898
1	25438	269.181982827192	8812
1	25443	269.237530406387	8728
1	25448	269.286651892703	8654
1	25453	269.315900705039	8610
1	25458	269.357213613968	8547
1	25463	269.402715437631	8479
1	25470	269.592224348808	8192
1	25476	269.654386017696	8106
1	25481	269.669389155578	8108
1	25489	269.839151738023	8125
1	25494	269.873630321624	8129
1	25500	269.92505987116	8134
1	25506	269.957618190293	8138
1	25511	270	8142
1	25717	272	9937
1	25724	272.168363818428	9702
1	25731	272.330051198907	9309
1	25736	272.474792413259	8957
1	25749	272.903249241494	8623
1	25754	272.955969124721	8631
1	25759	272.97221532322	8634
1	25764	272.993920780888	8638
1	25767	273.002024508603	8639
1	25775	273.022413306762	8642
1	25780	273.032049745378	8644
1	25787	273.168965860017	8666
1	25792	273.272143010985	8683
1	25798	273.31275393809	8690
1	25806	273.472034332327	8602
1	25811	273.480467087385	8587
1	25816	273.506860985824	8540
1	25822	273.523996079805	8510
1	25830	273.720994813372	8161
1	25836	273.740438558135	8126
1	25843	273.836097210526	8307
1	25846	273.844523838671	8339
1	25853	273.870179769905	8436
1	25858	273.907490159897	8577
1	25864	274	8927
1	26018	276	8325
1	26186	278	9249
1	26341	280	9586
1	26525	282	9354
1	26691	284	8850
1	26887	286	8787
1	27052	288	9119
1	27230	290	8452
1	27406	292	8492
1	27620	294	9268
1	27826	296	9237
1	28046	298	9684
1	28194	300	8458
1	28392	302	9489
1	28398	302.122710681619	9748
1	28404	302.154663942826	9768
1	28411	302.257659043924	9770
1	28417	302.311023128387	9772
1	28422	302.335092893171	9772
1	28425	302.342256216953	9773
1	28430	302.349418807764	9773
1	28437	302.528497926162	9777
1	28440	302.53565758659	9777
1	28447	302.65501127171	9780
1	28452	302.720388902085	9781
1	28458	302.779057794339	9783
1	28463	302.791524433784	9783
1	28466	302.798679703129	9783
1	28473	302.868199112983	9785
1	28478	302.896685754643	9786
1	28485	302.948086854738	9785
1	28491	303.179302299212	9769
1	28496	303.217396974323	9766
1	28501	303.286012992762	9761
1	28507	303.373555024736	9755
1	28512	303.384086830804	9754
1	28521	303.622095301567	9737
1	28526	303.659132812388	9735
1	28531	303.667391658758	9734
1	28538	303.871591578594	9720
1	28544	303.919571238848	9732
1	28551	303.965476668238	9726
1	28556	303.988021396776	9720
1	28561	303.995223042867	9718
1	28564	304	9716
1	28573	304.052426171083	9701
1	28575	304.059641922037	9699
1	28579	304.066859160928	9697
1	28584	304.074077888369	9695
1	28593	304.121718154017	9681
1	28597	304.128948812007	9679
1	28603	304.136180964089	9677
1	28610	304.164097323448	9669
1	28613	304.171336955261	9667
1	28624	304.21585043859	9654
1	28630	304.227238661752	9650
1	28633	304.228578084877	9650
1	28641	304.265226050858	9639
1	28649	304.314355044214	9625
1	28656	304.356036064908	9613
1	28662	304.398984562756	9601
1	28671	304.5470792297	9558
1	28678	304.641845298019	9530
1	28683	304.67449471585	9521
1	28689	304.70754669751	9511
1	28692	304.714906596574	9509
1	28701	304.762761462496	9495
1	28709	304.778514761642	9490
1	28716	304.859804666179	9467
1	28723	305.034277494814	9416
1	28731	305.170744104569	9376
1	28737	305.224998725715	9361
1	28745	305.253684220216	9352
1	28750	305.280026397875	9345
1	28758	305.335249366932	9159
1	28766	305.469183404296	8448
1	28774	305.540353520426	8118
1	28779	305.561803255021	8164
1	28782	305.57037748334	8182
1	28793	305.692223012362	8442
1	28799	305.789017874265	8649
1	28802	305.79711129547	8666
1	28810	305.825199196068	8726
1	28821	305.992258816382	9003
1	28822	306	9001
1	29071	308	9145
1	29248	310	9044
1	29423	312	8843
1	29578	314	8692
1	29811	316	8832
1	30003	318	8817
1	30194	320	8823
1	30357	322	9220
1	30553	324	8772
1	30719	326	9739
1	30723	326.201839542651	9676
1	30727	326.209073937029	9674
1	30734	326.218608393991	9671
1	30739	326.294868617741	9647
1	30745	326.317355700687	9640
1	30752	326.503900365039	9582
1	30757	326.517923371411	9578
1	30763	326.555967038002	9566
1	30770	326.713917262046	9517
1	30775	326.731487385528	9511
1	30780	326.794822769869	9492
1	30786	326.858070519459	9472
1	30791	326.900188031457	9459
1	30796	326.929061524443	9450
1	30801	326.978000866513	9435
1	30806	327.002799418523	9427
1	30811	327.025751770227	9420
1	30816	327.052284607141	9411
1	30822	327.109426890386	9394
1	30827	327.141254867014	9384
1	30832	327.173897169935	9374
1	30837	327.209865127879	9362
1	30842	327.223195879859	9358
1	30847	327.23413790907	9355
1	30853	327.298270359229	9335
1	30859	327.36594178312	9314
1	30864	327.394030798416	9305
1	30870	327.504060014989	9271
1	30875	327.596305576233	9242
1	30882	327.675827033754	9229
1	30887	327.708036161744	9231
1	30892	327.740676904727	9233
1	30898	327.783266602343	9236
1	30904	327.794167726654	9237
1	30911	327.887087059296	9244
1	30918	327.961737094285	9249
1	30924	327.997376278923	9252
1	30925	328	9252
1	31105	330	9766
1	31322	332	9628
1	31514	334	9067
1	31699	336	9157
1	31847	338	9329
1	32019	340	8815
1	32251	342	9100
1	32461	344	9134
1	32603	346	8538
1	32771	348	9426
1	32951	350	8863
1	33106	352	8463
1	33362	354	8746
1	33516	356	9171
1	33682	358	9154
1	33862	360	8837
1	34059	362	8592
1	34224	364	9745
1	34229	364.05	9714
1	34230	364.057206094297	9710
1	34239	364.162317984493	9604
1	34244	364.182811816594	9564
1	34251	364.207522288511	9515
1	34257	364.238029758247	9455
1	34263	364.363164663098	9208
1	34270	364.575277055071	8959
1	34273	364.583090427099	8962
1	34279	364.590901183627	8965
1	34286	364.600473212179	8969
1	34289	364.608277872676	8972
1	34296	364.744622281197	9025
1	34302	364.778871282743	9038
1	34307	364.821490091062	9055
1	34314	364.875972081702	9076
1	34319	364.932191141136	9098
1	34326	365.10113655202	9163
1	34329	365.108775971424	9166
1	34337	365.198380575481	9201
1	34342	365.206625361478	9204
1	34347	365.214230750439	9207
1	34352	365.221833661268	9210
1	34355	365.229434095579	9213
1	34363	365.359769446221	9263
1	34368	365.369829383312	9267
1	34374	365.378516709169	9268
1	34380	365.474071736288	9279
1	34386	365.587768210159	9292
1	34392	365.611865410139	9294
1	34397	365.63780797143	9297
1	34404	365.734055204641	9308
1	34411	365.830800996642	9363
1	34414	365.838277232891	9382
1	34421	365.858335789665	9435
1	34426	365.90769081095	9566
1	34431	365.926383403802	9616
1	34437	365.985947749231	9773
1	34441	365.993110340042	9786
1	34444	366	9780
1	34450	366.050263415865	9736
1	34453	366.057453226876	9730
1	34463	366.158602869443	9641
1	34468	366.196863315618	9607
1	34475	366.225147778961	9583
1	34484	366.327210977376	9493
1	34489	366.383390911678	9444
1	34495	366.419536119548	9412
1	34498	366.426973433615	9406
1	34509	366.640207018058	9219
1	34517	366.727481608059	9143
1	34522	366.774286716003	9102
1	34527	366.782417598292	9094
1	34530	366.785137738432	9092
1	34542	366.868770771481	9068
1	34548	366.900977060789	9081
1	34553	366.92386731944	9090
1	34561	366.993925600714	9119
1	34564	367.001601881008	9122
1	34571	367.010828088084	9125
1	34576	367.046592714263	9140
1	34585	367.118557696199	9169
1	34592	367.193998326348	9200
1	34598	367.236032481925	9216
1	34605	367.37490328352	9273
1	34608	367.382452081104	9276
1	34618	367.46273303987	9308
1	34626	367.552060032459	9344
1	34631	367.599881493029	9364
1	34637	367.649191307436	9383
1	34643	367.675675821411	9394
1	34646	367.68312738624	9397
1	34654	367.729869748378	9416
1	34661	367.768555635148	9432
1	34668	367.89833663838	9484
1	34673	367.918657721104	9492
1	34680	368	9525
1	34839	370	9812
1	34850	370.05	9792
1	34851	370.05714869281	9789
1	34854	370.064299576455	9786
1	34857	370.071452652278	9783
1	34860	370.078607921623	9780
1	34867	370.09758911203	9772
1	34871	370.104752435812	9769
1	34876	370.111917959407	9766
1	34883	370.121959891699	9762
1	34889	370.177441588433	9739
1	34894	370.208362460017	9726
1	34900	370.2304496446	9717
1	34905	370.260776726217	9704
1	34911	370.294447738534	9690
1	34916	370.316831281135	9681
1	34921	370.339544739042	9671
1	34927	370.427266942643	9635
1	34930	370.434532121678	9632
1	34939	370.543291739851	9587
1	34945	370.584971690498	9569
1	34950	370.592286979452	9566
1	34959	370.789638516507	9484
1	34964	370.79790769155	9481
1	34971	370.854679194595	9457
1	34974	370.862081119095	9454
1	34981	370.877189692877	9448
1	34986	370.885963299623	9444
1	34994	371.07358190861	9366
1	35000	371.100707273633	9355
1	35005	371.130290075558	9343
1	35010	371.186785284271	9319
1	35015	371.258529242049	9289
1	35021	371.297716946278	9278
1	35026	371.358042757896	9268
1	35034	371.57343410054	9232
1	35044	371.756776860836	9201
1	35047	371.764384729546	9199
1	35055	371.905026199646	9176
1	35060	371.972976538665	9164
1	35065	371.982586949786	9163
1	35070	371.994354060373	9161
1	35073	372	9160
1	35328	374	8982
1	35510	376	8486
1	35693	378	9157
1	35884	380	9263
1	36069	382	8211
1	36290	384	9258
1	36482	386	9249
1	36652	388	9134
1	36899	390	9048
1	37073	392	9597
1	37337	394	8358
1	37496	396	8926
1	37670	398	9365
1	37839	400	8596
2	925	10	9370
2	1135	12	9591
2	1294	14	9812
2	1297	14.068030517644	9819
2	1304	14.099873867441	9823
2	1309	14.130174992306	9826
2	1314	14.197691913317	9834
2	1321	14.325461877081	9848
2	1326	14.342706505645	9850
2	1331	14.394938655225	9855
2	1337	14.417482985769	9858
2	1342	14.545572812768	9872
2	1350	14.747435039951	9666
2	1355	14.81819801597	9366
2	1361	14.871469700596	9140
2	1366	14.948984256724	8811
2	1372	15.013654349772	8536
2	1377	15.055402317426	8359
2	1382	15.101114383704	8165
2	1390	15.288642485163	8059
2	1396	15.304365919664	8063
2	1402	15.366333740303	8077
2	1407	15.396472388199	8084
2	1413	15.429556147607	8092
2	1418	15.487423361537	8106
2	1423	15.543367534361	8119
2	1430	15.58201381686	8128
2	1433	15.590626021584	8130
2	1440	15.621284266679	8137
2	1445	15.642819899631	8142
2	1451	15.718362510667	8160
2	1457	15.783121722586	8175
2	1462	15.803501606541	8180
2	1467	15.824057584023	8185
2	1472	15.853075725218	8192
2	1477	15.910818228564	8205
2	1482	15.993796980956	8225
2	1483	16	8226
2	1718	18	8658
2	1880	20	8844
2	2068	22	8324
2	2238	24	8765
2	2421	26	9472
2	2429	26.057147447204	9184
2	2430	26.064769398424	9145
2	2438	26.088656415199	9025
2	2447	26.153930681216	8695
2	2456	26.296065771466	9780
2	2461	26.314402065575	9743
2	2466	26.323257827548	9725
2	2469	26.330455770993	9710
2	2476	26.340130945358	9690
2	2488	26.425353952693	9518
2	2494	26.553367749941	9258
2	2499	26.576509011584	9211
2	2507	26.71737963727	8925
2	2513	26.746397940519	8866
2	2522	26.808668945048	8740
2	2527	26.861919060757	8632
2	2534	26.885473442448	8584
2	2541	26.992162042658	8367
2	2547	27.036164103048	8278
2	2555	27.095654360622	8212
2	2558	27.104178471679	8211
2	2568	27.219306956189	8203
2	2573	27.241732753818	8202
2	2578	27.26090723311	8200
2	2584	27.294157482853	8198
2	2594	27.390140649363	8191
2	2604	27.520086470215	8182
2	2609	27.532407336339	8182
2	2617	27.600750795379	8177
2	2624	27.783941875555	8164
2	2630	27.820484552318	8162
2	2638	27.890271349324	8157
2	2643	27.929901534109	8154
2	2648	27.944464643729	8153
2	2654	28	8149
2	2872	30	9522
2	3089	32	8992
2	3238	34	8911
2	3397	36	9223
2	3575	38	8178
2	3816	40	8041
2	4034	42	8221
2	4246	44	9297
2	4423	46	8426
2	4601	48	9655
2	4608	48.092413099099	9627
2	4614	48.123188718609	9617
2	4620	48.169296473252	9601
2	4627	48.328247768986	9547
2	4632	48.396664501601	9524
2	4635	48.404014354604	9522
2	4643	48.459330585593	9503
2	4650	48.633685761812	9445
2	4653	48.641097090557	9442
2	4660	48.762083663247	9401
2	4663	48.769529679628	9399
2	4670	48.804202166887	9387
2	4673	48.811659288438	9385
2	4680	48.83139167792	9378
2	4683	48.838855956018	9376
2	4690	48.852718222387	9371
2	4695	48.868961685831	9365
2	4701	48.926149038127	9346
2	4706	49.035921567479	9309
2	4709	49.043441172163	9307
2	4717	49.08227480393	9294
2	4720	49.089806544838	9291
2	4727	49.126397245217	9279
2	4732	49.159997747617	9267
2	4737	49.222958277573	9246
2	4741	49.230529119018	9244
2	4748	49.274381939989	9229
2	4753	49.291798344896	9223
2	4756	49.299388066245	9220
2	4763	49.308775632998	9217
2	4768	49.360847345191	9200
2	4774	49.378364109495	9194
2	4784	49.466829442982	9097
2	4790	49.475257985999	9072
2	4795	49.503576071265	8987
2	4798	49.511365099862	8963
2	4805	49.544823978179	8863
2	4808	49.552721981113	8840
2	4821	49.792040687221	8466
2	4826	49.849856248998	8459
2	4831	49.866690804569	8457
2	4836	50	8442
2	5007	52	8679
2	5159	54	8652
2	5345	56	8797
2	5514	58	8810
2	5694	60	8346
2	5888	62	9141
2	6152	64	9249
2	6318	66	9101
2	6488	68	8489
2	6684	70	9210
2	6903	72	9551
2	7081	74	9368
2	7236	76	8876
2	7428	78	8155
2	7595	80	9233
2	7813	82	9173
2	7994	84	8413
2	8220	86	9681
2	8402	88	8370
2	8620	90	8805
2	8794	92	9201
2	8956	94	8761
2	9163	96	9762
2	9168	96.05	9755
2	9169	96.057175807278	9754
2	9176	96.132636974051	9745
2	9182	96.356129436497	9716
2	9190	96.412777911621	9668
2	9198	96.574570002856	9350
2	9201	96.582056633872	9335
2	9208	96.604565630547	9291
2	9215	96.765425335932	8975
2	9220	96.782063787668	8942
2	9225	96.849285332633	8810
2	9230	96.866578122708	8776
2	9235	96.881830402471	8746
2	9240	96.921458836128	8668
2	9248	96.929534516793	8652
2	9251	96.93762513168	8636
2	9254	96.945730736127	8620
2	9262	96.987111307212	8539
2	9269	97.144480838526	8416
2	9274	97.17596646517	8466
2	9280	97.246850789085	8580
2	9285	97.275282483825	8625
2	9291	97.348559294439	8695
2	9297	97.448002965679	8689
2	9303	97.502393042312	8686
2	9309	97.576466274499	8682
2	9316	97.622698513745	8679
2	9321	97.807882342078	8669
2	9326	97.844364239624	8666
2	9331	97.870390210994	8665
2	9336	97.925396643295	8662
2	9340	98	8658
2	9597	100	9285
2	9804	102	8094
2	9984	104	9480
2	10189	106	8674
2	10356	108	9646
2	10361	108.05	9648
2	10366	108.076588279181	9650
2	10371	108.163011775481	9654
2	10376	108.193804278355	9656
2	10381	108.216197462056	9657
2	10386	108.248539832568	9658
2	10392	108.380225855495	9665
2	10398	108.480135139138	9670
2	10404	108.55183082714	9673
2	10409	108.577511136168	9675
2	10414	108.614855017629	9676
2	10419	108.629108950205	9677
2	10424	108.64755098657	9678
2	10427	108.654783885929	9678
2	10435	108.702639538586	9681
2	10442	108.827900954374	9687
2	10447	108.840908355919	9688
2	10455	108.991371696035	9695
2	10460	109.072481021199	9699
2	10465	109.080159217891	9699
2	10471	109.245967804326	9708
2	10476	109.270398435158	9709
2	10482	109.334997954089	9712
2	10487	109.346567333417	9713
2	10492	109.424025095752	9716
2	10497	109.431416098089	9717
2	10502	109.442198761644	9717
2	10509	109.580273963606	9410
2	10516	109.66302688465	9220
2	10519	109.670619075539	9203
2	10527	109.707812901838	9117
2	10536	109.944009269627	8575
2	10539	109.952172534933	8556
2	10544	109.960353928107	8537
2	10552	109.984890432695	8500
2	10557	110	8502
2	10720	112	8631
2	10902	114	8448
2	11067	116	8886
2	11263	118	8810
2	11435	120	9454
2	11702	122	8852
2	11884	124	9106
2	12083	126	8444
2	12329	128	8289
2	12512	130	8656
2	12652	132	9374
2	12810	134	8691
2	13027	136	9657
2	13031	136.117926260454	9682
2	13036	136.134810604516	9685
2	13039	136.142038276173	9687
2	13046	136.155308725584	9689
2	13051	136.215098902011	9702
2	13054	136.222313909226	9703
2	13065	136.592466656932	9781
2	13070	136.619545952067	9786
2	13076	136.884365258318	9804
2	13081	136.988517445168	9801
2	13087	137.043995420354	9800
2	13093	137.063325642363	9799
2	13098	137.071545029856	9799
2	13104	137.099123611539	9798
2	13109	137.151631506673	9797
2	13115	137.237618741588	9794
2	13118	137.244765974588	9794
2	13126	137.309175915345	9792
2	13131	137.322482934305	9792
2	13136	137.354388890212	9791
2	13143	137.541971008855	9786
2	13148	137.552741530614	9786
2	13153	137.576809651588	9785
2	13159	137.711340131015	9781
2	13165	137.77237148858	9780
2	13170	137.823720167795	9778
2	13175	137.843502078991	9778
2	13181	137.861306886138	9777
2	13187	138	9773
2	13418	140	9901
2	13421	140.232716949781	9913
2	13427	140.337917272027	9918
2	13434	140.468932409013	9925
2	13439	140.475985305738	9925
2	13442	140.483038202463	9926
2	13449	140.536144750918	9928
2	13452	140.54319551643	9929
2	13460	140.623304609321	9933
2	13465	140.760384757658	9940
2	13470	140.770559356062	9940
2	13475	140.778156602724	9941
2	13480	140.811464405435	9942
2	13485	140.865783025942	9945
2	13492	140.999714632498	9952
2	13497	141.026008293915	9953
2	13500	141.033041349275	9954
2	13507	141.04007369808	9954
2	13512	141.047106046885	9954
2	13515	141.05413839569	9955
2	13522	141.094498371089	9957
2	13528	141.181601482499	9961
2	13534	141.215913728399	9963
2	13539	141.326776125618	9969
2	13544	141.422950457866	9974
2	13550	141.450030693865	9975
2	13557	141.604223707226	9841
2	13562	141.621226978236	9819
2	13567	141.642554974243	9791
2	13572	141.683379565395	9739
2	13579	141.712880578105	9663
2	13584	141.722793091076	9628
2	13589	141.762756781191	9483
2	13594	141.820330679902	9275
2	13599	141.873556656447	9083
2	13608	141.954267591161	8884
2	13612	142	8954
2	13753	144	9637
2	13758	144.05	9634
2	13760	144.057265933153	9633
2	13767	144.104528610814	9630
2	13772	144.209814132196	9623
2	13779	144.367659622165	9612
2	13784	144.443819622152	9607
2	13790	144.564801277285	9599
2	13795	144.588238717362	9598
2	13800	144.689857067096	9591
2	13806	144.757234343508	9586
2	13813	144.902686208752	9576
2	13818	144.969788885558	9572
2	13823	144.989194666083	9570
2	13831	145.086471862244	9564
2	13836	145.114148630018	9562
2	13839	145.121469274235	9562
2	13846	145.142824145689	9560
2	13851	145.205337059623	9556
2	13856	145.254657368064	9553
2	13862	145.321704740166	9548
2	13867	145.387901410455	9544
2	13873	145.439583035445	9540
2	13878	145.45985563006	9539
2	13884	145.549992394533	9533
2	13887	145.557335308621	9532
2	13892	145.564678993052	9532
2	13899	145.591039541145	9530
2	13905	145.612552336221	9528
2	13910	145.634688289506	9527
2	13916	145.71929094695	9521
2	13923	145.89032107954	9510
2	13928	145.915518122216	9508
2	13934	146	9502
2	14132	148	9368
2	14137	148.0907798677	9347
2	14143	148.335249342583	9271
2	14149	148.378599262703	9257
2	14157	148.620473948139	9182
2	14161	148.628097559553	9179
2	14170	148.915437625278	9090
2	14176	148.959897842407	9076
2	14179	148.967610491151	9074
2	14186	148.996213314763	9065
2	14192	149.163298951891	9013
2	14198	149.416738178995	8934
2	14203	149.433566237243	8928
2	14208	149.451680258111	8923
2	14213	149.488453116645	8911
2	14219	149.523947794468	8900
2	14224	149.608929894094	8874
2	14227	149.61681810685	8871
2	14234	149.628559843752	8868
2	14240	149.754122835032	8828
2	14247	149.80424857488	8813
2	14250	149.812191386635	8810
2	14255	149.820136903094	8808
2	14262	149.907383400557	8781
2	14265	149.91535515776	8778
2	14272	149.933592745216	8772
2	14275	149.941572681377	8770
2	14282	149.950017500875	8767
2	14287	149.976573793324	8759
2	14291	150	8752
2	14491	152	9436
2	14494	152.05	9415
2	14500	152.288594269224	9314
2	14505	152.475284317685	9235
2	14510	152.558390369068	9199
2	14516	152.613115739262	9176
2	14519	152.6207443356	9173
2	14524	152.628375426846	9170
2	14532	152.718047260607	9132
2	14538	152.750476864128	9118
2	14545	152.894115112226	9057
2	14552	152.985395714129	9018
2	14558	153.065245042389	8984
2	14565	153.136245670696	8954
2	14571	153.15479476377	8946
2	14576	153.30365466033	8883
2	14581	153.313084465672	8879
2	14587	153.331100310433	8872
2	14592	153.344044926938	8866
2	14597	153.429222026989	8830
2	14607	153.72596928864	8689
2	14613	153.762926592348	8650
2	14618	153.804517991843	8607
2	14623	153.855662007165	8553
2	14629	154	8593
2	14773	156	8942
2	15001	158	8518
2	15139	160	8341
2	15314	162	9677
2	15321	162.207567464531	9641
2	15326	162.232689957939	9637
2	15331	162.355033127899	9616
2	15338	162.459089579024	9598
2	15344	162.472892050503	9596
2	15350	162.593547326829	9575
2	15355	162.62673506619	9569
2	15363	162.821098953364	9536
2	15370	162.884520867613	9525
2	15373	162.891869948978	9524
2	15380	162.936825474272	9516
2	15383	162.944181506218	9515
2	15390	162.956918181127	9513
2	15395	163.103624912891	9488
2	15400	163.12712328896	9483
2	15405	163.14895792671	9480
2	15410	163.242074672615	9464
2	15415	163.291059686281	9455
2	15420	163.301696197535	9454
2	15432	163.544240783737	9398
2	15435	163.551689177012	9395
2	15442	163.580041291971	9385
2	15447	163.623233523518	9368
2	15452	163.689007282854	9344
2	15457	163.704017340614	9338
2	15462	163.734754899438	9326
2	15467	163.750617563668	9320
2	15472	163.838329002664	9287
2	15478	163.883111329389	9270
2	15484	163.928121654635	9253
2	15489	163.969534768821	9238
2	15494	163.985805755394	9232
2	15498	164	9226
2	15739	166	8748
2	15893	168	9778
2	15897	168.110117715559	9823
2	15905	168.207352434596	9863
2	15908	168.214449666675	9865
2	15917	168.291240224428	9897
2	15922	168.300808117978	9901
2	15929	168.421533747609	9818
2	15936	168.506239641718	9728
2	15943	168.663681319842	9559
2	15949	168.671004261572	9551
2	15952	168.678333337061	9543
2	15959	168.713311444912	9506
2	15964	168.752595678695	9464
2	15969	168.767492651695	9448
2	15974	168.916937487861	9288
2	15979	168.936174247303	9267
2	15984	168.947349322416	9255
2	15991	169.019956921065	9178
2	15996	169.027583855038	9170
2	15999	169.035217442824	9161
2	16006	169.05793959716	9137
2	16012	169.181904788884	9004
2	16017	169.215763997829	8968
2	16022	169.251034924615	8930
2	16029	169.296489042393	8882
2	16035	169.338365757869	8837
2	16041	169.376531784515	8796
2	16047	169.423129767788	8746
2	16053	169.494968235788	8669
2	16058	169.557198548757	8603
2	16064	169.604028452119	8553
2	16069	169.629402519068	8526
2	16075	169.676300302726	8475
2	16078	169.684559889747	8467
2	16085	169.748711015337	8398
2	16090	169.771707899659	8373
2	16097	169.816045562031	8326
2	16102	169.827091182512	8314
2	16105	169.835510715829	8305
2	16113	169.879673712949	8258
2	16119	169.979716455451	8151
2	16123	170	8129
2	16269	172	9191
2	16444	174	8479
2	16620	176	8470
2	16845	178	8543
2	17011	180	8532
2	17216	182	8764
2	17363	184	9124
2	17543	186	9121
2	17719	188	8993
2	17870	190	8557
2	18043	192	8392
2	18270	194	8075
2	18425	196	8077
2	18612	198	8718
2	18859	200	8580
2	19043	202	8747
2	19198	204	9083
2	19376	206	8572
2	19576	208	8876
2	19799	210	9084
2	19984	212	8103
2	20233	214	8919
2	20449	216	8572
2	20624	218	8487
2	20766	220	8935
2	20945	222	8388
2	21047	224	9108
2	21246	226	9167
2	21436	228	9225
2	21659	230	8728
2	21865	232	8291
2	22043	234	9774
2	22243	236	9890
2	22248	236.05	9893
2	22249	236.057075710098	9893
2	22257	236.093716173431	9896
2	22262	236.159570615493	9899
2	22265	236.166642036849	9900
2	22273	236.239763402107	9904
2	22278	236.350823828825	9911
2	22283	236.39913352702	9913
2	22289	236.644325876596	9928
2	22295	236.715903547752	9932
2	22300	236.7516213063	9934
2	22306	236.812144404745	9938
2	22309	236.819188075504	9938
2	22317	236.88336654744	9942
2	22322	236.890869460726	9942
2	22325	236.89791029758	9943
2	22332	236.926294155833	9944
2	22338	237.011283918088	9949
2	22345	237.141326609928	9957
2	22350	237.181839860197	9959
2	22355	237.191452709477	9960
2	22361	237.204005810389	9960
2	22366	237.30823871032	9966
2	22371	237.330637311248	9968
2	22374	237.337659783158	9968
2	22381	237.389682032851	9971
2	22386	237.426363755662	9973
2	22394	237.625664676292	9887
2	22401	237.687701120881	9745
2	22406	237.700202403728	9716
2	22409	237.707407014679	9700
2	22418	237.839334166704	9398
2	22423	237.896567921144	9267
2	22429	237.959006998608	9124
2	22434	238	9030
2	22611	240	8550
2	22791	242	8376
2	22989	244	9032
2	23189	246	8823
2	23478	248	8523
2	23657	250	8466
2	23812	252	8787
2	24063	254	9123
2	24264	256	9220
2	24454	258	9268
2	24630	260	8378
2	24826	262	9152
2	24992	264	9092
2	25154	266	9211
2	25318	268	9026
2	25511	270	8749
2	25717	272	9697
2	25864	274	9749
2	25867	274.05	9739
2	25875	274.17035242293	9714
2	25881	274.231819349284	9701
2	25887	274.298118158453	9687
2	25893	274.333605990817	9680
2	25896	274.340837395776	9678
2	25903	274.374200705742	9671
2	25906	274.381438840371	9670
2	25913	274.570930858747	9630
2	25918	274.590329220472	9626
2	25924	274.611134635288	9622
2	25930	274.638164856472	9616
2	25935	274.70462915408	9602
2	25942	274.794596848016	9547
2	25948	274.892439661595	9434
2	25955	275.097124564198	9194
2	25960	275.12632996647	9159
2	25966	275.155748927419	9125
2	25971	275.193198666856	9081
2	25977	275.262832402291	8999
2	25983	275.324511238008	8977
2	25991	275.641244580231	9147
2	25997	275.694416643907	9176
2	26003	275.776563196148	9220
2	26008	275.855844371946	9262
2	26014	275.916511708414	9295
2	26018	276	9340
2	26186	278	9429
2	26341	280	9722
2	26525	282	9695
2	26691	284	9326
2	26887	286	9089
2	27052	288	8581
2	27230	290	8145
2	27406	292	9064
2	27620	294	8663
2	27826	296	9758
2	28046	298	8453
2	28194	300	8247
2	28392	302	9238
2	28564	304	9604
2	28822	306	9459
2	29071	308	9312
2	29248	310	8188
2	29423	312	8715
2	29578	314	9136
2	29811	316	8622
2	30003	318	8195
2	30194	320	8487
2	30357	322	9590
2	30362	322.05	9596
2	30363	322.057294706128	9596
2	30370	322.068745384677	9598
2	30377	322.175230004627	9611
2	30383	322.322713424215	9628
2	30386	322.32998388537	9629
2	30396	322.427965839177	9641
2	30402	322.543260775399	9655
2	30407	322.584686550364	9660
2	30410	322.591932927176	9661
2	30417	322.639338729597	9666
2	30424	322.675744828733	9615
2	30430	322.754592808593	9498
2	30435	322.78080707339	9459
2	30440	322.893221502355	9293
2	30446	322.956039418264	9199
2	30449	322.963648941038	9188
2	30457	323.007574925959	9123
2	30465	323.097021936884	8990
2	30470	323.123221289184	8951
2	30475	323.158819772796	8899
2	30482	323.415193527176	8518
2	30487	323.480063194698	8422
2	30493	323.513721294762	8372
2	30500	323.600517855092	8243
2	30505	323.640297746034	8184
2	30511	323.686824541912	8283
2	30517	323.746287089161	8412
2	30522	323.756642304153	8435
2	30525	323.76494105934	8453
2	30533	323.794517869683	8505
2	30539	323.922448152329	8627
2	30542	323.930562212837	8634
2	30549	323.977330465543	8679
2	30553	324	8700
2	30719	326	9216
2	30925	328	8569
2	31105	330	8501
2	31322	332	8568
2	31514	334	9605
2	31517	334.05	9551
2	31522	334.088866162867	9509
2	31527	334.125076702566	9470
2	31532	334.17757726726	9414
2	31539	334.275216668906	9309
2	31544	334.380925508084	9196
2	31549	334.419210179488	9155
2	31554	334.429106377384	9144
2	31560	334.514326117219	9053
2	31565	334.632649574642	8926
2	31571	334.643575511052	8914
2	31576	334.662106465781	8894
2	31582	334.707659498453	8845
2	31587	334.728352318519	8823
2	31595	334.832624325251	8711
2	31600	334.900458538377	8638
2	31606	334.912198747947	8625
2	31609	334.920314689976	8617
2	31616	334.957468577048	8577
2	31621	334.969334157268	8564
2	31626	335.025689192185	8504
2	31635	335.236298800783	8277
2	31640	335.248556237184	8264
2	31645	335.30769897668	8201
2	31651	335.392522760024	8466
2	31656	335.410102280522	8568
2	31659	335.418272215163	8615
2	31667	335.553043090159	9396
2	31674	335.728632825212	9704
2	31679	335.754438993617	9696
2	31684	335.79233068738	9684
2	31689	335.802416163572	9681
2	31694	335.826995674375	9674
2	31699	336	9621
2	31847	338	9009
2	32019	340	8704
2	32251	342	9535
2	32461	344	9090
2	32603	346	8731
2	32771	348	8948
2	32951	350	9286
2	33106	352	9779
2	33110	352.054653600064	9772
2	33115	352.156568435558	9760
2	33118	352.163740566706	9759
2	33126	352.317623798167	9739
2	33132	352.389463725957	9730
2	33137	352.428132019734	9725
2	33143	352.450275956843	9722
2	33150	352.526507626065	9713
2	33155	352.568270850729	9707
2	33160	352.590452084213	9705
2	33165	352.599481055478	9703
2	33168	352.606695319108	9702
2	33175	352.659315241262	9696
2	33180	352.686607817643	9692
2	33185	352.701010348737	9691
2	33193	352.772833204694	9681
2	33198	352.792779357836	9679
2	33203	352.812043109445	9676
2	33210	352.88349820419	9667
2	33215	353.002070548774	9652
2	33220	353.01536998228	9651
2	33225	353.109230068431	9639
2	33230	353.129677315561	9636
2	33235	353.142620775513	9635
2	33238	353.149885954548	9634
2	33245	353.172178061495	9631
2	33251	353.227214290163	9624
2	33257	353.331896294172	9611
2	33262	353.348353981491	9608
2	33268	353.365131878333	9606
2	33273	353.49312715016	9590
2	33279	353.517299451561	9556
2	33285	353.570995769294	9405
2	33290	353.596206157783	9334
2	33296	353.611249087035	9291
2	33303	353.708128788161	9018
2	33308	353.715891041432	8996
2	33315	353.723672277537	8974
2	33318	353.731472589549	8952
2	33323	353.739292071229	8930
2	33326	353.74713081703	8907
2	33334	353.790431427132	8785
2	33340	353.838677767322	8649
2	33347	353.869039196694	8607
2	33353	353.881908701989	8616
2	33358	353.942033562246	8656
2	33362	354	8696
2	33516	356	9055
2	33682	358	8987
2	33862	360	9377
2	34059	362	8548
2	34224	364	8060
2	34444	366	8196
2	34680	368	8407
2	34839	370	9008
2	35073	372	9363
2	35328	374	9417
2	35510	376	9565
2	35693	378	8674
2	35884	380	8197
2	36069	382	9510
2	36290	384	9326
2	36482	386	9264
2	36652	388	8807
2	36899	390	9495
2	37073	392	9148
2	37337	394	9194
2	37496	396	8239
2	37670	398	8627
2	37839	400	9032
3	925	10	8510
3	1135	12	8894
3	1294	14	8800
3	1483	16	9319
3	1718	18	9540
3	1723	18.025287300919	9524
3	1731	18.410788816731	9416
3	1737	18.521172783836	9385
3	1742	18.530884989039	9382
3	1749	18.671895626424	9342
3	1755	18.79345015545	9308
3	1758	18.800970567998	9306
3	1763	18.808492596797	9304
3	1770	18.848981740365	9292
3	1775	18.9063397258	9276
3	1780	18.917292041913	9273
3	1785	18.92522306449	9271
3	1791	19.015812471827	9246
3	1796	19.128848205022	9214
3	1801	19.248967394754	9180
3	1808	19.347770540834	9152
3	1813	19.379570713522	9143
3	1818	19.430083571226	9129
3	1823	19.439131031838	9126
3	1828	19.470503233643	9118
3	1833	19.478180355819	9115
3	1836	19.485860004749	9113
3	1846	19.719821774163	9047
3	1851	19.79154808814	9027
3	1856	19.819584442125	9019
3	1861	19.855842386436	9009
3	1866	19.888533814125	9000
3	1871	19.965353866354	8978
3	1874	19.973150703066	8976
3	1880	20	8968
3	2068	22	9653
3	2238	24	9868
3	2241	24.05	9870
3	2247	24.21317023906	9876
3	2252	24.228651004896	9877
3	2257	24.297119279068	9880
3	2262	24.314729738183	9880
3	2265	24.321814758426	9881
3	2272	24.328899061634	9881
3	2275	24.335983364842	9881
3	2283	24.361344049003	9882
3	2288	24.401490872424	9884
3	2293	24.423911060088	9885
3	2299	24.55163126576	9890
3	2305	24.623142751979	9892
3	2314	24.847944428809	9901
3	2319	24.876409406229	9902
3	2324	24.934095780523	9905
[...]
23	28959	307.248595345101	0.73900445499029
23	29070	307.987599800091	0.55895739720434
23	29116	308.546557197295	1.0263212538081
23	29198	309.572878451103	0.55837282414016
23	29277	310.131251275243	0.5785309012101
23	29329	310.709782176453	0.32466061734193
23	29340	311.034442793795	4.2615685077941
23	29741	315.296011301589	0.517538354055
23	29787	315.813549655644	0.27882963253486
23	29828	316.092379288179	4.630933818017
23	30262	320.723313106196	0.84543106870632
23	30343	321.568744174902	0.58975630804491
23	30375	322.158500482947	1.425492140159
23	30498	323.583992623106	0.5183302827941
23	30561	324.1023229059	0.26497494524904
23	30574	324.367297851149	0.67788637243832
23	30661	325.045184223587	0.13278845117369
23	30663	325.177972674761	1.3512587130827
23	30761	326.529231387844	0.5754570948023
23	30820	327.104688482646	0.84352752051243
23	30916	327.948216003158	0.021864909637454
23	30922	327.970080912795	0.60230434367264
23	30967	328.572385256468	0.33861933965901
23	30989	328.911004596127	0.45233368372738
23	31038	329.363338279854	0.5852866115323
23	31101	329.948624891386	4.746309517976
23	31580	334.694934409362	0.20672061599297
23	31601	334.901655025355	1.6139552336879
23	31761	336.515610259043	0.74411958513031
23	31827	337.259729844173	0.98503870975712
23	31860	338.24476855393	0.027455464941022
23	31866	338.272224018871	1.3577046061901
23	32007	339.629928625061	0.6472881294183
23	32058	340.277216754479	0.0081198671748602
23	32061	340.285336621654	1.0132907083054
23	32194	341.298627329959	0.59914789807117
23	32240	341.89777522803	1.408230117987
23	32385	343.306005346017	0.72617607225663
23	32462	344.032181418274	0.6548199859832
23	32507	344.687001404257	0.91209028285143
23	32564	345.599091687108	0.11524233257907
23	32570	345.714334019687	1.0228765555257
23	32666	346.737210575213	1.9962373149076
23	32845	348.733447890121	0.17021467250113
23	32847	348.903662562622	1.5468095761447
23	32992	350.450472138767	0.56602689336054
23	33035	351.016499032128	0.033439875726896
23	33036	351.049938907855	0.34007282905863
23	33070	351.390011736914	0.47363325734462
23	33099	351.863644994259	0.090785769099708
23	33100	351.954430763359	1.8265866338605
23	33332	353.78101739722	0.094352484795462
23	33348	353.875369882015	1.0511333437237
23	33443	354.926503225739	0.17500759288793
23	33458	355.101510818627	0.4986761719883
23	33501	355.600186990615	0.11180903654053
23	33504	355.711996027156	0.47975445988931
23	33535	356.191750487045	0.27881425264275
23	33561	356.470564739688	1.0088564673468
23	33635	357.479421207035	0.0094297455291515
23	33636	357.488850952564	0.27731784998994
23	33659	357.766168802554	0.57459928934381
23	33740	358.340768091898	0.83765261516914
23	33801	359.178420707067	3.0747713588692
23	34073	362.253192065936	2.2815816397705
23	34268	364.534773705707	0.30854419027933
23	34312	364.843317895986	2.6218223263402
23	34619	367.465140222326	0.63031172488637
23	34688	368.095451947212	0.85270331730344
23	34752	368.948155264515	0.77376400468018
23	34808	369.721919269195	0.078639366660445
23	34821	369.800558635855	0.11981330170305
23	34832	369.920371937558	0.67106998074287
23	34949	370.591441918301	0.86018950827604
23	35030	371.451631426577	0.044944678907242
23	35032	371.496576105484	1.0401903620623
23	35137	372.536766467546	0.56378927749546
23	35226	373.100555745041	0.62075277463987
23	35295	373.721308519681	0.74260640570068
23	35391	374.463914925382	0.3992392274992
23	35413	374.863154152881	1.852328525256
23	35553	376.715482678137	1.2686556552804
23	35692	377.984138333417	1.5897698638956
23	35844	379.573908197313	0.4210678388266
23	35883	379.99497603614	4.9306444668776
23	36386	384.925620503018	0.35923964885634
23	36404	385.284860151874	1.10915280706
23	36515	386.394012958934	1.3745705658817
23	36640	387.768583524816	2.8208554080057
23	36942	390.589438932822	0.45157763164851
23	37011	391.041016564471	1.6618504877112
23	37137	392.702867052182	2.5752290277002
23	37469	395.278096079882	1.8137552924469
23	37599	397.091851372329	0.18171281510329
23	37607	397.273564187432	1.3113902506107
23	37718	398.584954438043	2.7772557168719
24	1347	14.694997286335	0.43967405442543
24	1387	15.13467134076	0.87391368060988
24	1487	16.00858502137	2.458953234254
24	1735	18.467538255624	1.0831760170536
24	1843	19.550714272678	0.14381749864963
24	1844	19.694531771328	0.64787444522696
24	1899	20.342406216555	0.91374390912158
24	2018	21.256150125677	0.42501177435329
24	2039	21.68116190003	2.2551838808788
24	2232	23.936345780909	0.7688490026619
24	2309	24.705194783571	1.2023761550254
24	2418	25.907570938596	0.33631747386842
24	2452	26.243888412464	0.026738453737199
24	2453	26.270626866201	0.79739014047039
24	2552	27.068017006671	1.0308922230364
24	2662	28.098909229707	1.6038809522826
24	2845	29.70279018199	0.019167659521677
24	2846	29.721957841512	1.1039074314704
24	2969	30.825865272982	0.95517338546873
24	3076	31.781038658451	1.3620390347451
24	3178	33.143077693196	1.5010455147374
24	3289	34.644123207933	0.5352208710624
24	3329	35.179344078995	1.3340835296095
24	3453	36.513427608604	1.8451455877055
24	3618	38.358573196309	3.3461597666097
24	4004	41.704732962919	0.13378121731505
24	4015	41.838514180234	1.6354305130042
24	4199	43.473944693238	1.4106403630445
24	4334	44.884585056283	0.25956152164633
24	4357	45.144146577929	0.19169675516239
24	4374	45.335843333091	0.1609628772843
24	4380	45.496806210375	1.0284868503347
24	4451	46.52529306071	0.30040318238211
24	4483	46.825696243092	1.1789525800171
24	4602	48.004648823109	1.4368942026365
24	4782	49.441543025746	0.23145140511917
24	4818	49.672994430865	1.9083310872842
24	4980	51.581325518149	1.3021846350405
24	5088	52.88351015319	0.45552742292915
24	5129	53.339037576119	1.1846688142406
24	5195	54.52370639036	1.0982746432218
24	5290	55.621981033582	0.56586821992889
24	5379	56.187849253511	0.62259414149864
24	5420	56.81044339501	0.30207856352281
24	5451	57.112521958533	0.28710848763945
24	5477	57.399630446172	2.894239018021
24	5717	60.293869464193	0.47481906243599
24	5773	60.768688526629	1.1819955072578
24	5880	61.950684033887	0.44241683776017
24	5927	62.393100871647	0.45454931891953
24	5975	62.847650190567	0.22646036263016
24	5991	63.074110553197	0.29202058535558
24	6040	63.366131138553	1.4689553163513
24	6239	64.835086454904	0.32887675279091
24	6276	65.163963207695	1.4887143856679
24	6382	66.652677593363	0.74059383642616
24	6445	67.393271429789	1.0636546405962
24	6525	68.456926070385	2.3252868339298
24	6782	70.782212904315	0.10366043279066
24	6789	70.885873337106	2.3418059020736
24	7005	73.22767923918	0.10102625884345
24	7007	73.328705498023	0.17695610968153
24	7037	73.505661607705	0.26730608724886
24	7062	73.772967694954	0.35599127566208
24	7100	74.128958970616	1.540569013254
24	7208	75.66952798387	0.01893631190737
24	7211	75.688464295777	0.036440956845967
24	7217	75.724905252623	0.4173503927332
24	7251	76.142255645356	0.61278315833401
24	7276	76.75503880369	0.71631084956748
24	7375	77.471349653257	0.66275855237338
24	7430	78.13410820563	0.19938836478075
24	7446	78.333496570411	0.38257680013063
24	7462	78.716073370542	2.4027359873877
24	7693	81.11880935793	3.3088835253282
24	8027	84.427692883258	0.045799947292815
24	8034	84.473492830551	0.79051522104153
24	8088	85.264008051593	0.45950411592172
24	8192	85.723512167515	0.83036033772336
24	8267	86.553872505238	0.41206628109016
24	8325	86.965938786328	0.56935441232993
24	8377	87.535293198658	1.6196347301959
24	8552	89.154927928854	1.0601953145557
24	8632	90.21512324341	3.0219480392146
24	8878	93.237071282625	1.2610668953184
24	9013	94.498138177943	0.89619174981765
24	9089	95.394329927761	0.99652273358377
24	9187	96.390852661345	0.70122360129927
24	9266	97.092076262644	0.22800043211589
24	9289	97.32007669476	2.5647648599224
24	9580	99.884841554682	0.2194257901292
24	9606	100.104267344811	0.075074174006745
24	9610	100.179341518818	1.8715023302867
24	9807	102.050843849105	1.6740708157717
24	9947	103.724914664877	0.34313596820716
24	9987	104.068050633084	0.50651879387211
24	10046	104.574569426956	0.80047788627469
24	10130	105.375047313231	0.023379542739996
24	10131	105.398426855971	0.22076592246664
24	10140	105.619192778438	0.61520895590748
24	10213	106.234401734345	0.81563957813097
24	10261	107.050041312476	0.31363213314067
24	10281	107.363673445617	2.0828179506439
24	10503	109.446491396261	0.53071900523094
24	10550	109.977210401492	1.2025960267008
24	10653	111.179806428193	3.3847585772752
24	10955	114.564565005468	1.0970666756907
24	11044	115.661631681159	0.37668555152446
24	11076	116.038317232683	1.0293998116844
24	11202	117.067717044367	0.35904213878779
24	11233	117.426759183155	1.6546686111387
24	11358	119.081427794294	0.8645233433949
24	11432	119.945951137689	0.97827579882918
24	11566	120.924226936518	0.15014531699878
24	11582	121.074372253517	0.22096165563113
24	11607	121.295333909148	0.16655150753998
24	11619	121.461885416688	0.96661869152468
24	11757	122.428504108213	0.12062524160867
24	11780	122.549129349822	1.2619321597628
24	11877	123.811061509585	0.42076903418356
24	11901	124.231830543769	0.59753499212284
24	11960	124.829365535892	0.8900862005824
24	12037	125.719451736474	0.79972053180049
24	12155	126.519172268274	0.002064370661587
24	12156	126.521236638936	0.11136726403573
24	12159	126.632603902972	3.4465875157536
24	12534	130.079191418726	1.7328147055348
24	12636	131.812006124261	1.9551261244179
24	12790	133.767132248679	0.19550659096755
24	12807	133.962638839647	0.46043680483943
24	12861	134.423075644486	0.10039243872885
24	12872	134.523468083215	2.2021118775762
24	13074	136.725579960791	2.4909005567922
24	13350	139.216480517583	0.69920832050737
24	13406	139.91568883809	1.5821694797552
24	13555	141.497858317845	0.19892737080419
24	13576	141.696785688649	0.23957348415343
24	13605	141.936359172802	0.56160576231797
24	13633	142.49796493512	0.99236575872442
24	13714	143.490330693844	4.5408052440417
24	14133	148.031135937886	2.8359861518048
24	14401	150.867122089691	0.7829032118118
24	14465	151.650025301503	2.0518178415507
24	14605	153.701843143054	0.21175914948661
24	14628	153.913602292541	0.34369635332662
24	14641	154.257298645868	0.25374506976215
24	14655	154.51104371563	0.90129391528681
24	14709	155.412337630917	0.75680430359851
24	14787	156.169141934516	0.54432891150694
24	14860	156.713470846023	1.3768623351454
24	15004	158.090333181168	0.50079110488677
24	15041	158.591124286055	1.0713025409
24	15109	159.662426826955	0.24098539849751
24	15126	159.903412225453	0.07284780326741
24	15133	159.97626002872	0.46009424076122
24	15179	160.436354269481	1.4939741345013
24	15290	161.930328403982	1.5469250630909
24	15428	163.477253467073	0.55150367927992
24	15499	164.028757146353	0.090216255147249
24	15502	164.1189734015	0.78864422907128
24	15597	164.907617630571	0.0022114824650703
24	15598	164.909829113036	0.38967957484725
24	15652	165.299508687883	0.63769673071544
24	15730	165.937205418598	0.69746982640828
24	15797	166.634675245006	0.2786331023127
24	15819	166.913308347319	1.4191716668678
24	15927	168.332480014187	1.7716304889801
24	16135	170.104110503167	0.33573195325522
24	16153	170.439842456422	0.013087224662335
24	16154	170.452929681084	0.26129694828606
24	16175	170.71422662937	1.243939162538
24	16268	171.958165791908	0.24326237809894
24	16282	172.201428170007	0.62928176437138
24	16342	172.830709934378	0.13888299362812
24	16359	172.969592928006	0.75121394833068
24	16410	173.720806876337	0.17549031122213
24	16436	173.896297187559	0.25206058943553
24	16465	174.148357776995	3.1601748860203
24	16762	177.308532663015	0.5094635773275
24	16821	177.817996240342	0.74674600786
24	16894	178.564742248202	0.36860803612323
24	16930	178.933350284325	2.0355456767714
24	17102	180.968895961096	1.8784569217655
24	17276	182.847352882862	0.014343611822061
24	17277	182.861696494684	0.94619426153017
24	17353	183.807890756214	0.29386985076195
24	17385	184.101760606976	0.14062126264717
24	17404	184.242381869623	0.23701520978002
24	17433	184.479397079403	0.51290908775787
24	17468	184.992306167161	1.5966678297238
24	17608	186.588973996885	2.9183480702779
24	17824	189.507322067163	1.036747706949
24	17948	190.544069774112	0.44460122537837
24	17981	190.98867099949	0.11285081626084
24	17982	191.101521815751	1.9186828718499
24	18161	193.020204687601	4.1020930957407
24	18559	197.122297783342	1.1439714823622
24	18640	198.266269265704	0.0077133535963422
24	18641	198.2739826193	0.42563441205148
24	18700	198.699617031351	0.07978549046651
24	18713	198.779402521818	3.8911892172735
24	19079	202.670591739091	0.90327891175312
24	19159	203.573870650844	0.66969492051196
24	19225	204.243565571356	0.021341669000509
24	19227	204.264907240357	0.60021525656953
24	19270	204.865122496927	0.86715030005066
24	19367	205.732272796978	0.22992400611357
24	19375	205.962196803092	1.1844831858359
24	19467	207.146679988928	2.0847152987308
24	19713	209.231395287659	0.36300440413605
24	19740	209.594399691795	1.438281901161
24	19898	211.032681592956	0.88520887666374
24	19978	211.91789046962	0.55867712065575
24	20047	212.476567590276	0.025339160955372
24	20053	212.501906751231	4.1017514687894
24	20503	216.60365822002	1.4240492266165
24	20626	218.027707446636	1.536770162383
24	20748	219.564477609019	0.57840377377262
24	20775	220.142881382792	0.59084662944018
24	20841	220.733728012232	1.8122246800499
24	20973	222.545952692282	0.20571318473858
24	20981	222.751665877021	5.2881247296081
24	21440	228.039790606629	1.736366380609
24	21640	229.776156987238	0.89037256484805
24	21733	230.666529552086	0.56651810619065
24	21772	231.233047658277	0.14435578748677
24	21800	231.377403445764	0.7711589101986
24	21887	232.148562355963	1.1613581055114
24	21982	233.309920461474	0.41517290763806
24	22027	233.725093369112	3.8587749080143
24	22392	237.583868277126	0.48501731725522
24	22436	238.068885594381	2.0975816350447
24	22636	240.166467229426	1.2333321209811
24	22737	241.399799350407	1.9450689312616
24	22921	243.344868281669	1.7837545334246
24	23110	245.128622815094	0.92474056271148
24	23202	246.053363377805	0.65734173890445
24	23317	246.710705116709	1.607263945392
24	23492	248.317969062101	0.46617650174654
24	23544	248.784145563848	1.4147091881407
24	23681	250.198854751989	4.1487862986853
24	24099	254.347641050674	0.040019514874955
24	24100	254.387660565549	0.28424401404152
24	24114	254.671904579591	0.023442162593833
24	24116	254.695346742185	0.53883627326766
24	24191	255.234183015453	2.6126667692375
24	24443	257.84684978469	0.095183037582624
24	24452	257.942032822273	0.018965354411358
24	24453	257.960998176684	0.301439627901
24	24487	258.262437804585	1.5689851925308
24	24614	259.831422997116	0.30779299851768
24	24637	260.139215995634	0.37954596121533
24	24656	260.518761956849	3.8050220379814
24	25022	264.32378399483	2.3850012454905
24	25219	266.70878524032	0.22497486266822
24	25256	266.933760102988	1.629010148057
24	25367	268.562770251045	0.45414349797611
24	25424	269.016913749021	2.5625231541937
24	25673	271.579436903215	1.4916391247187
24	25784	273.071076027934	1.6850318563572
24	25940	274.756107884291	0.16172219826826
24	25952	274.917830082559	0.37688421433784
24	25981	275.294714296897	1.5125375378966
24	26087	276.807251834794	1.1695016278856
24	26184	277.97675346268	0.7406399304006
24	26244	278.717393393081	0.1358840676564
24	26268	278.853277460737	0.18194380669387
24	26279	279.035221267431	1.4773792075242
24	26396	280.512600474955	0.49749715049356
24	26438	281.010097625449	0.68524779171804
24	26507	281.695345417167	0.20708425032232
24	26508	281.902429667489	1.2895874497844
24	26646	283.192017117273	0.25326462217148
24	26662	283.445281739444	0.86350039528516
24	26725	284.308782134729	3.5073362183197
24	27036	287.816118353049	0.9639987344029
24	27127	288.780117087452	0.022089883200136
24	27128	288.802206970652	1.5310954843819
24	27253	290.333302455034	0.7346670150558
24	27316	291.06796947009	0.057519463365696
24	27318	291.125488933456	1.0699167774418
24	27420	292.195405710898	0.48936231999092
24	27472	292.684768030889	1.946945755157
24	27695	294.631713786046	1.6221585710215
24	27853	296.253872357067	0.50749174265349
24	27935	296.76136409972	0.6615304535558
24	27984	297.422894553276	3.2078941238656
24	28244	300.630788677142	0.011079071763467
24	28245	300.641867748905	0.32942060628504
24	28283	300.97128835519	0.66001416475114
24	28352	301.631302519941	1.669403694743
24	28505	303.300706214684	0.18962289904295
24	28518	303.490329113727	0.57338799281005
24	28578	304.063717106537	4.7677442572192
24	29136	308.831461363756	1.0787262407006
24	29242	309.910187604457	1.293825823103
24	29351	311.20401342756	0.4554909917481
24	29390	311.659504419308	1.4212390930873
24	29518	313.080743512395	1.3773879856937
24	29633	314.458131498089	3.6632412009744
24	30027	318.121372699063	0.2665354679025
24	30067	318.387908166965	0.21524959759701
24	30088	318.603157764562	1.4326897741784
24	30195	320.03584753874	1.9052929502416
24	30356	321.941140488982	0.70008762335905
24	30418	322.641228112341	0.99967892331654
24	30506	323.640907035658	0.1436517099835
24	30531	323.784558745641	1.2562885250057
24	30660	325.040847270647	2.373320571098
24	30868	327.414167841745	0.36620863377908
24	30896	327.780376475524	0.7124305782309
24	30960	328.492807053755	3.3157478971422
24	31303	331.808554950897	0.00090222306082665
24	31304	331.809457173958	1.2732047157466
24	31405	333.082661889705	0.040118023567567
24	31406	333.122779913273	0.061931472949913
24	31419	333.184711386223	0.66927000394999
24	31503	333.853981390173	1.486589417964
24	31649	335.340570808137	0.27178677620853
24	31671	335.612357584346	3.7934258613122
24	31968	339.405783445658	1.6602100890288
24	32176	341.065993534687	0.63175168053391
24	32222	341.697745215221	0.36197155631365
24	32263	342.059716771535	0.97418794417099
24	32367	343.033904715706	0.20974448128438
24	32373	343.24364919699	1.5594645591906
24	32508	344.803113756181	0.077723082809
24	32515	344.88083683899	0.8896160953299
24	32581	345.77045293432	0.32228241076551
24	32612	346.092735345086	1.2234940387595
24	32722	347.316229383846	3.409458060408
24	33022	350.725687444254	0.22386105096209
24	33029	350.949548495216	2.5564183181861
24	33277	353.505966813402	0.35053678800919
24	33344	353.856503601411	0.19342304202463
24	33369	354.049926643436	0.77102407563944
24	33436	354.820950719075	0.82252851030624
24	33502	355.643479229381	1.2855917792049
24	33584	356.929071008586	1.7733347708792
24	33756	358.702405779465	0.16995933561021
24	33774	358.872365115075	0.48610203345879
24	33808	359.358467148534	1.124410363339
24	33928	360.482877511873	1.0973677775434
24	34018	361.580245289416	0.61862690288173
24	34067	362.198872192298	0.92426228263046
24	34155	363.123134474928	1.0778993872494
24	34249	364.201033862177	3.8874537730683
24	34687	368.088487635245	2.977356381902
24	34991	371.065844017147	3.3728779077365
24	35390	374.438721924884	0.099630004666494
24	35397	374.53835192955	1.3017368666694
24	35500	375.840088796219	0.91150966237242
24	35555	376.751598458591	2.3197351225496
24	35804	379.071333581141	0.63148868194099
24	35864	379.702822263082	0.010527525332926
24	35867	379.713349788415	2.6363555599883
24	36108	382.349705348403	0.48949562505167
24	36174	382.839200973455	0.10050730321371
24	36186	382.939708276669	0.4051681124685
24	36234	383.344876389137	0.050667824391983
24	36242	383.395544213529	0.39547500514541
24	36276	383.791019218674	0.76468179852956
24	36359	384.555701017204	2.1448087596557
24	36550	386.70050977686	0.11026853266299
24	36557	386.810778309523	2.0728173181838
24	36753	388.883595627707	1.1658847216272
24	36902	390.049480349334	0.12128791935148
24	36907	390.170768268685	0.27137072165627
24	36924	390.442138990341	1.6817965604144
24	37088	392.123935550755	0.62268557893382
24	37150	392.746621129689	0.31556510829077
24	37200	393.06218623798	0.66095247382854
24	37283	393.723138711809	1.0476162640535
24	37398	394.770754975862	0.98372595101264
24	37492	395.754480926875	0.90546094481904
24	37565	396.659941871694	0.61537260438181
24	37608	397.275314476076	1.1814623719697
24	37699	398.456776848046	0.17141433155207
24	37721	398.628191179598	2.7404127243163

