version 2
run Exponential-capacity-13-20210216-20:01:12-5736
attr configname Exponential-capacity
attr datetime 20210216-20:01:12
attr experiment Exponential-capacity
attr inifile aerocom.ini
attr iterationvars "$0=35, $1=1.5"
attr iterationvarsf 35,1.5-
attr measurement "$0=35, $1=1.5"
attr network Aerocom
attr processid 5736
attr repetition 0
attr replication #0
attr resultdir results
attr runnumber 13
attr seedset 0
param **.t 1s
param **.k 35ms
param **.X 50ms
param **.m 1.5s
param **.tDistribution "\"exponential\""
param **.operationMode 0
param **.s "70 byte"
param **.dimPoolMax 10000
param **.dimPoolMin 8000
param **.nDL 10
param **.nA 1
param **.DLMaxCapacity 0
param **.trasmitting false

vector 0 Aerocom.aircraft[0].packetGenerator arrivalTime:vector ETV
attr "" ""
attr source computeArrivalTime
vector 1 Aerocom.aircraft[0].linkSelector waitingTime:vector ETV
attr "" ""
attr source computeWaitingTime
vector 2 Aerocom.aircraft[0].linkSelector queueLength:vector ETV
attr "" ""
attr source computeQueueLength
vector 3 Aerocom.aircraft[0].dataLink[8] actualCapacity:vector ETV
attr "" ""
attr source computeActualCapacity
vector 4 Aerocom.aircraft[0].linkSelector serviceTime:vector ETV
attr "" ""
attr source computeServiceTime
vector 5 Aerocom.aircraft[0].linkSelector responseTime:vector ETV
attr "" ""
attr source computeResponseTime
vector 6 Aerocom.aircraft[0].dataLink[4] tDistribution:vector ETV
attr "" ""
attr source computeTDistribution
vector 7 Aerocom.aircraft[0].dataLink[5] tDistribution:vector ETV
attr "" ""
attr source computeTDistribution
vector 8 Aerocom.aircraft[0].dataLink[0] tDistribution:vector ETV
attr "" ""
attr source computeTDistribution
vector 9 Aerocom.aircraft[0].dataLink[0] actualCapacity:vector ETV
attr "" ""
attr source computeActualCapacity
vector 10 Aerocom.aircraft[0].dataLink[1] actualCapacity:vector ETV
attr "" ""
attr source computeActualCapacity
vector 11 Aerocom.aircraft[0].dataLink[2] actualCapacity:vector ETV
attr "" ""
attr source computeActualCapacity
vector 12 Aerocom.aircraft[0].dataLink[3] actualCapacity:vector ETV
attr "" ""
attr source computeActualCapacity
vector 13 Aerocom.aircraft[0].dataLink[4] actualCapacity:vector ETV
attr "" ""
attr source computeActualCapacity
vector 14 Aerocom.aircraft[0].dataLink[5] actualCapacity:vector ETV
attr "" ""
attr source computeActualCapacity
vector 15 Aerocom.aircraft[0].dataLink[6] actualCapacity:vector ETV
attr "" ""
attr source computeActualCapacity
vector 16 Aerocom.aircraft[0].dataLink[7] actualCapacity:vector ETV
attr "" ""
attr source computeActualCapacity
vector 17 Aerocom.aircraft[0].dataLink[9] actualCapacity:vector ETV
attr "" ""
attr source computeActualCapacity
vector 18 Aerocom.aircraft[0].dataLink[3] tDistribution:vector ETV
attr "" ""
attr source computeTDistribution
vector 19 Aerocom.aircraft[0].dataLink[8] tDistribution:vector ETV
attr "" ""
attr source computeTDistribution
vector 20 Aerocom.aircraft[0].dataLink[9] tDistribution:vector ETV
attr "" ""
attr source computeTDistribution
vector 21 Aerocom.aircraft[0].dataLink[6] tDistribution:vector ETV
attr "" ""
attr source computeTDistribution
vector 22 Aerocom.aircraft[0].dataLink[1] tDistribution:vector ETV
attr "" ""
attr source computeTDistribution
vector 23 Aerocom.aircraft[0].dataLink[7] tDistribution:vector ETV
attr "" ""
attr source computeTDistribution
vector 24 Aerocom.aircraft[0].dataLink[2] tDistribution:vector ETV
attr "" ""
attr source computeTDistribution
0	1667	10.089882227233	0.077872013003
0	1672	10.167754240236	0.010554806963
0	1677	10.178309047199	0.057431415227
0	1684	10.235740462426	0.026952690084
0	1689	10.26269315251	0.042595682337
0	1694	10.305288834847	0.020792572441
0	1699	10.326081407288	0.003696442527
0	1701	10.329777849815	0.003670864246
0	1706	10.333448714061	0.088174874553
0	1714	10.421623588614	0.015202097958
0	1720	10.436825686572	0.043841263372
0	1725	10.480666949944	0.02217119162
0	1731	10.502838141564	0.236788668198
0	1738	10.739626809762	0.064390647478
0	1743	10.80401745724	0.005665453035
0	1745	10.809682910275	0.082256205141
0	1753	10.891939115416	0.070906808599
0	1759	10.962845924015	0.001339901951
0	1761	10.964185825966	0.00620639513
0	1766	10.970392221096	0.024847127453
0	1774	10.995239348549	0.033458824837
0	1780	11.028698173386	0.006388851066
0	1782	11.035087024452	0.004626429837
0	1787	11.039713454289	0.052843820946
0	1795	11.092557275235	0.065937511031
0	1800	11.158494786266	0.070069527343
0	1806	11.228564313609	0.057635168546
0	1811	11.286199482155	0.018550100735
0	1816	11.30474958289	0.029465833661
0	1821	11.334215416551	0.005277685357
0	1823	11.339493101908	0.018300451053
0	1831	11.357793552961	0.001182537494
0	1833	11.358976090455	0.002508638451
0	1835	11.361484728906	0.141744639358
0	1846	11.503229368264	0.04184034982
0	1852	11.545069718084	0.016354539824
0	1857	11.561424257908	0.021150467515
0	1862	11.582574725423	0.019069999485
0	1867	11.601644724908	0.044811697133
0	1873	11.646456422041	0.001816939326
0	1875	11.648273361367	0.070447045767
0	1884	11.718720407134	0.015921914568
0	1889	11.734642321702	0.129848620717
0	1897	11.864490942419	0.00058687181
0	1899	11.865077814229	0.067780203312
0	1907	11.932858017541	0.009181525821
0	1912	11.942039543362	0.000412413117
0	1914	11.942451956479	0.05067279287
0	1922	11.993124749349	0.015618848718
0	1928	12.008743598067	0.100961411324
0	1936	12.109705009391	0.045825442741
0	1942	12.155530452132	0.048520197321
0	1948	12.204050649453	0.006590324133
0	1950	12.210640973586	0.014511438993
0	1959	12.225152412579	0.0257645885
0	1965	12.250917001079	0.023536118089
0	1972	12.274453119168	0.001955451851
0	1974	12.276408571019	0.014489262294
0	1984	12.290897833313	0.007809872284
0	1986	12.298707705597	0.006924032761
0	1991	12.305631738358	0.000654341465
0	1993	12.306286079823	0.006563163292
0	1999	12.312849243115	0.055244445274
0	2017	12.368093688389	0.021790907039
0	2023	12.389884595428	0.00887269968
0	2028	12.398757295108	0.072661087115
0	2037	12.471418382223	0.014827998547
0	2044	12.48624638077	0.100959050094
0	2052	12.587205430864	0.092127660189
0	2058	12.679333091053	0.03279985512
0	2063	12.712132946173	0.042657888117
0	2069	12.75479083429	0.031778740956
0	2075	12.786569575246	0.001132488163
0	2077	12.787702063409	0.053579092919
0	2086	12.841281156328	0.006298506954
0	2089	12.847579663282	0.024261991934
0	2098	12.871841655216	0.034001875533
0	2104	12.905843530749	0.001808901703
0	2107	12.907652432452	0.030132327284
0	2116	12.937784759736	0.042033981729
0	2123	12.979818741465	0.009508382462
0	2128	12.989327123927	0.17076965108
0	2137	13.160096775007	0.095247188957
0	2144	13.255343963964	0.010883873174
0	2149	13.266227837138	0.033314039764
0	2155	13.299541876902	0.039780877334
0	2162	13.339322754236	0.02684778791
0	2168	13.366170542146	0.069901018862
0	2175	13.436071561008	0.031198250192
0	2180	13.4672698112	0.048638697232
0	2188	13.515908508432	0.045842487998
0	2196	13.56175099643	0.116827701685
0	2202	13.678578698115	0.013086027357
0	2207	13.691664725472	0.028279301869
0	2213	13.719944027341	0.017775279294
0	2218	13.737719306635	0.00835635055
0	2223	13.746075657185	0.00824336007
0	2228	13.754319017255	0.008805951459
0	2233	13.763124968714	0.007211121697
0	2238	13.770336090411	0.008640074408
0	2243	13.778976164819	0.101117645716
0	2249	13.880093810535	0.02950425714
0	2254	13.909598067675	0.047087160163
0	2259	13.956685227838	0.021058764528
0	2264	13.977743992366	0.023598559937
0	2269	14.001342552303	0.123006753819
0	2276	14.124349306122	0.009030446738
0	2281	14.13337975286	0.0399398266
0	2286	14.17331957946	0.010272767817
0	2291	14.183592347277	0.00312040015
0	2293	14.186712747427	0.002092333702
0	2295	14.188805081129	0.002032532674
0	2300	14.190837613803	0.019946414786
0	2308	14.210784028589	0.023418980329
0	2318	14.234203008918	0.013078442804
0	2323	14.247281451722	0.074503453309
0	2328	14.321784905031	0.041715033628
0	2333	14.363499938659	0.131134311484
0	2339	14.494634250143	0.016604570162
0	2344	14.511238820305	0.033650385005
0	2349	14.54488920531	0.006928870737
0	2351	14.551818076047	0.027369150231
0	2359	14.579187226278	0.000874592366
0	2361	14.580061818644	0.067492604791
0	2369	14.647554423435	0.002436618488
0	2371	14.649991041923	0.047667610351
0	2381	14.697658652274	0.039813847694
0	2387	14.737472499968	0.022793075617
0	2392	14.760265575585	0.021160342642
0	2397	14.781425918227	0.039562444107
0	2402	14.820988362334	0.026919193038
0	2407	14.847907555372	0.032692111641
0	2413	14.880599667013	0.079444400552
0	2418	14.960044067565	0.043897114453
0	2425	15.003941182018	0.162387838423
0	2433	15.166329020441	0.022187550679
0	2438	15.18851657112	0.008557185772
0	2443	15.197073756892	0.021309151981
0	2449	15.218382908873	0.038076655177
0	2454	15.25645956405	0.082912135979
0	2461	15.339371700029	0.010696171564
0	2466	15.350067871593	0.005165861151
0	2468	15.355233732744	0.000730352651
0	2470	15.355964085395	0.009112299404
0	2478	15.365076384799	0.049713420945
0	2486	15.414789805744	0.074674715062
0	2492	15.489464520806	0.013499069292
0	2497	15.502963590098	0.08217453165
0	2504	15.585138121748	0.016927343562
0	2509	15.60206546531	0.036324752642
0	2514	15.638390217952	0.031062567497
0	2519	15.669452785449	0.013740055987
0	2524	15.683192841436	0.062235016789
0	2530	15.745427858225	0.025667868561
0	2536	15.771095726786	0.034702650251
0	2541	15.805798377037	1.937316e-006
0	2543	15.805800314353	0.072128743431
0	2551	15.877929057784	0.013081715284
0	2556	15.891010773068	0.011185112921
0	2561	15.902195885989	0.019395979017
0	2566	15.921591865006	0.055990180464
0	2571	15.97758204547	0.075801728831
0	2577	16.053383774301	0.007187171906
0	2580	16.060570946207	0.039867017774
0	2588	16.100437963981	0.106861463436
0	2593	16.207299427417	0.021316561445
0	2598	16.228615988862	0.04070896492
0	2604	16.269324953782	0.023117607791
0	2609	16.292442561573	0.008495147279
0	2614	16.300937708852	0.054413202823
0	2620	16.355350911675	0.10305680971
0	2627	16.458407721385	0.009122404528
0	2632	16.467530125913	0.045937779754
0	2639	16.513467905667	0.074296132888
0	2645	16.587764038555	0.010253301047
0	2651	16.598017339602	0.013175027303
0	2656	16.611192366905	0.00839732318
0	2661	16.619589690085	0.11049834395
0	2667	16.730088034035	0.025557968283
0	2673	16.755646002318	0.022336601196
0	2678	16.777982603514	0.000909921082
0	2680	16.778892524596	0.043517277228
0	2688	16.822409801824	0.008138375643
0	2693	16.830548177467	0.005840612443
0	2695	16.83638878991	0.019349342973
0	2704	16.855738132883	0.045884032886
0	2709	16.901622165769	0.016403676659
0	2714	16.918025842428	0.03637219728
0	2720	16.954398039708	0.021799025842
0	2725	16.97619706555	0.008467187567
0	2730	16.984664253117	0.011382560629
0	2735	16.996046813746	0.007222529776
0	2740	17.003269343522	0.030932497961
0	2745	17.034201841483	0.057682666061
0	2750	17.091884507544	0.069791372045
0	2756	17.161675879589	0.048113798383
0	2762	17.209789677972	0.004376140647
0	2765	17.214165818619	0.039321117484
0	2773	17.253486936103	0.025498334496
0	2779	17.278985270599	0.011346968972
0	2784	17.290332239571	0.004957471218
0	2786	17.295289710789	0.006729150429
0	2791	17.302018861218	0.044163443572
0	2802	17.34618230479	0.042664977081
0	2807	17.388847281871	0.017649797664
0	2812	17.406497079535	0.021771292168
0	2817	17.428268371703	0.029168238423
0	2822	17.457436610126	0.064234219103
0	2828	17.521670829229	0.007086056729
0	2830	17.528756885958	0.008023551382
0	2835	17.53678043734	0.005476651963
0	2840	17.542257089303	0.006309600485
0	2845	17.548566689788	0.02343392068
0	2853	17.572000610468	0.004666921815
0	2855	17.576667532283	0.015380938667
0	2863	17.59204847095	0.044814852389
0	2868	17.636863323339	0.098722258195
0	2873	17.735585581534	0.001082420205
0	2875	17.736668001739	0.050734417175
0	2884	17.787402418914	0.048102005505
0	2889	17.835504424419	0.048333708348
0	2894	17.883838132767	0.003400868743
0	2896	17.88723900151	0.081917218623
0	2904	17.969156220133	0.008581933242
0	2909	17.977738153375	0.003048800414
0	2911	17.980786953789	0.048416076315
0	2922	18.029203030104	0.028118711693
0	2925	18.057321741797	0.04604691904
0	2933	18.103368660837	0.030737527755
0	2938	18.134106188592	0.001634071028
0	2940	18.13574025962	0.114397374029
0	2948	18.250137633649	0.008212954724
0	2954	18.258350588373	0.01209318543
0	2959	18.270443773803	0.01183541502
0	2964	18.282279188823	0.009643477796
0	2969	18.291922666619	0.039582146772
0	2974	18.331504813391	0.003699051094
0	2976	18.335203864485	0.002278950268
0	2978	18.337482814753	0.000579813305
0	2980	18.338062628058	0.028389935778
0	2994	18.366452563836	0.092839548043
0	3000	18.459292111879	0.000324905853
0	3002	18.459617017732	0.038794341397
0	3011	18.498411359129	0.062649636157
0	3017	18.561060995286	0.053824005007
0	3023	18.614885000293	0.145458988345
0	3028	18.760343988638	0.011581845841
0	3033	18.771925834479	0.042549166568
0	3039	18.814475001047	0.030900819073
0	3044	18.84537582012	0.007015476828
0	3046	18.852391296948	0.002313220374
0	3051	18.854704517322	0.025138626804
0	3059	18.879843144126	0.023268271234
0	3064	18.90311141536	0.030399800601
0	3069	18.933511215961	0.132790832408
0	3075	19.066302048369	0.05421540877
0	3080	19.120517457139	0.073204480042
0	3085	19.193721937181	0.032641414934
0	3090	19.226363352115	0.014445545335
0	3095	19.24080889745	0.008624553777
0	3100	19.249433451227	0.114062234201
0	3107	19.363495685428	0.021254775102
0	3112	19.38475046053	0.009225198949
0	3117	19.393975659479	0.073881107103
0	3122	19.467856766582	0.104377023642
0	3131	19.572233790224	0.023723070072
0	3136	19.595956860296	0.099282406768
0	3142	19.695239267064	0.044003294845
0	3147	19.739242561909	0.056191056707
0	3152	19.795433618616	0.023304487032
0	3157	19.818738105648	0.034841227518
0	3162	19.853579333166	0.043150816206
0	3167	19.896730149372	0.072581651209
0	3172	19.969311800581	0.024130208825
0	3177	19.993442009406	0.012136365633
0	3182	20.005578375039	0.065150107504
0	3187	20.070728482543	0.066153559433
0	3194	20.136882041976	0.007563367581
0	3196	20.144445409557	0.033670417431
0	3204	20.178115826988	0.051948486893
0	3210	20.230064313881	0.000466383569
0	3212	20.23053069745	0.128088006577
0	3221	20.358618704027	0.014928753421
0	3226	20.373547457448	0.069396211661
0	3233	20.442943669109	0.005611693307
0	3235	20.448555362416	0.053062412544
0	3244	20.50161777496	0.140278237921
0	3250	20.641896012881	0.147065079919
0	3256	20.7889610928	0.022777906983
0	3262	20.811738999783	0.049023649394
0	3267	20.860762649177	0.024078021746
0	3272	20.884840670923	0.000141971246
0	3274	20.884982642169	0.035706548078
0	3283	20.920689190247	0.010989926432
0	3288	20.931679116679	0.016092696122
0	3293	20.947771812801	0.018496352991
0	3298	20.966268165792	0.005152876306
0	3301	20.971421042098	0.01956526845
0	3309	20.990986310548	0.060432168291
0	3317	21.051418478839	0.012375880134
0	3322	21.063794358973	0.007368665087
0	3327	21.07116302406	0.017945012492
0	3332	21.089108036552	0.02506158613
0	3338	21.114169622682	0.004500308305
0	3340	21.118669930987	0.008890398242
0	3345	21.127560329229	0.138167164365
0	3354	21.265727493594	0.00360389273
0	3357	21.269331386324	0.018237758738
0	3365	21.287569145062	0.069366161939
0	3370	21.356935307001	0.029474770599
0	3375	21.3864100776	0.126312935174
0	3380	21.512723012774	0.014734765432
0	3385	21.527457778206	0.113398703842
0	3391	21.640856482048	0.054435302612
0	3397	21.69529178466	0.082963565321
0	3402	21.778255349981	0.018548655275
0	3407	21.796804005256	0.052060041402
0	3412	21.848864046658	0.015580226879
0	3417	21.864444273537	0.014181400882
0	3422	21.878625674419	0.017849679185
0	3428	21.896475353604	0.002960282212
0	3430	21.899435635816	0.012575286679
0	3438	21.912010922495	0.018303867878
0	3443	21.930314790373	0.052242125747
0	3449	21.98255691612	0.009249466245
0	3455	21.991806382365	0.091230013081
0	3461	22.083036395446	0.004974392899
0	3463	22.088010788345	0.013772584389
0	3471	22.101783372734	0.001921758039
0	3473	22.103705130773	0.106920092265
0	3482	22.210625223038	0.045260175058
0	3487	22.255885398096	0.000491630693
0	3489	22.256377028789	0.000402263757
0	3491	22.256779292546	0.026684828948
0	3502	22.283464121494	0.05152714553
0	3507	22.334991267024	0.012713477662
0	3512	22.347704744686	0.005562661288
0	3514	22.353267405974	0.075053491258
0	3522	22.428320897232	0.002900179552
0	3524	22.431221076784	0.010097944862
0	3529	22.441319021646	0.003285609155
0	3534	22.444604630801	0.039598256866
0	3542	22.484202887667	0.039021059767
0	3548	22.523223947434	0.058203802324
0	3555	22.581427749758	0.009853340786
0	3560	22.591281090544	0.019806308957
0	3565	22.611087399501	0.019098020017
0	3571	22.630185419518	0.048820418194
0	3576	22.679005837712	0.028525641581
0	3582	22.707531479293	0.061936693812
0	3589	22.769468173105	0.068952014796
0	3594	22.838420187901	0.016676750391
0	3599	22.855096938292	0.045445597246
0	3605	22.900542535538	0.003553692938
0	3607	22.904096228476	0.011030601005
0	3615	22.915126829481	0.010356565564
0	3620	22.925483395045	0.004933875955
0	3622	22.930417271	0.031371522176
0	3630	22.961788793176	0.001993828636
0	3632	22.963782621812	0.022651114642
0	3640	22.986433736454	0.012563646143
0	3645	22.998997382597	0.02342560052
0	3650	23.022422983117	0.010639004573
0	3655	23.03306198769	0.021470368136
0	3660	23.054532355826	0.021317255936
0	3665	23.075849611762	0.026025411712
0	3670	23.101875023474	0.040240948571
0	3675	23.142115972045	0.020419831986
0	3680	23.162535804031	0.041632368797
0	3685	23.204168172828	0.067019479017
0	3690	23.271187651845	0.011669116843
0	3695	23.282856768688	0.019885966931
0	3700	23.302742735619	0.016727129563
0	3705	23.319469865182	0.061380012576
0	3710	23.380849877758	0.006994943827
0	3712	23.387844821585	0.024920282297
0	3720	23.412765103882	0.054381092571
0	3726	23.467146196453	0.003161803543
0	3728	23.470307999996	0.002048476463
0	3730	23.472356476459	0.037762441797
0	3741	23.510118918256	0.041790467971
0	3746	23.551909386227	0.008099734018
0	3752	23.560009120245	0.052787533107
0	3757	23.612796653352	0.065769145197
0	3762	23.678565798549	0.05258444778
0	3767	23.731150246329	0.040029171721
0	3773	23.77117941805	0.01051137781
0	3778	23.78169079586	0.006876166006
0	3780	23.788566961866	0.016383725863
0	3788	23.804950687729	0.002534668854
0	3790	23.807485356583	0.031001622611
0	3798	23.838486979194	0.000340739327
0	3800	23.838827718521	0.011150434676
0	3805	23.849978153197	0.07791293963
0	3814	23.927891092827	0.016218650964
0	3820	23.944109743791	0.005013855748
0	3822	23.949123599539	0.007681385631
0	3827	23.95680498517	0.052866156043
0	3836	24.009671141213	0.021557174932
0	3838	24.031228316145	0.090735701307
0	3848	24.121964017452	0.001597331732
0	3850	24.123561349184	0.043956271952
0	3858	24.167517621136	0.056294624718
0	3863	24.223812245854	0.023623284078
0	3868	24.247435529932	0.002802759958
0	3870	24.25023828989	0.022187624427
0	3878	24.272425914317	0.02560408687
0	3883	24.298030001187	0.075008489515
0	3889	24.373038490702	0.012825795214
0	3894	24.385864285916	0.02345811568
0	3899	24.409322401596	0.030158362213
0	3904	24.439480763809	0.018739152288
0	3909	24.458219916097	0.112168309036
0	3915	24.570388225133	0.006695361606
0	3917	24.577083586739	0.036303578294
0	3926	24.613387165033	0.022571797191
0	3931	24.635958962224	0.001260099041
0	3933	24.637219061265	0.053579694663
0	3941	24.690798755928	0.019698882064
0	3947	24.710497637992	0.028451442641
0	3954	24.738949080633	0.024968449898
0	3959	24.763917530531	0.006096830613
0	3962	24.770014361144	0.026888866965
0	3970	24.796903228109	0.005434995493
0	3972	24.802338223602	0.040032838269
0	3980	24.842371061871	0.036690118673
0	3985	24.879061180544	0.011380980467
0	3990	24.890442161011	0.027119483283
0	3995	24.917561644294	0.004828363118
0	3997	24.922390007412	0.013792015018
0	4005	24.93618202243	0.01745423165
0	4010	24.95363625408	0.005565420588
0	4012	24.959201674668	0.109649032134
0	4023	25.068850706802	0.00609695508
0	4025	25.074947661882	0.007251481379
0	4030	25.082199143261	0.00485053875
0	4035	25.087049682011	0.082013397553
0	4044	25.169063079564	0.03027283383
0	4050	25.199335913394	0.027469295686
0	4056	25.22680520908	0.003387911531
0	4058	25.230193120611	0.021366899575
0	4066	25.251560020186	0.084490575068
0	4074	25.336050595254	0.074809759165
0	4079	25.410860354419	0.003031594806
0	4081	25.413891949225	0.021476147341
0	4089	25.435368096566	0.056396619969
0	4096	25.491764716535	0.045078669128
0	4102	25.536843385663	0.073382269573
0	4110	25.610225655236	0.01782208704
0	4115	25.628047742276	0.003434183292
0	4117	25.631481925568	0.082035437428
0	4127	25.713517362996	0.019448061961
0	4132	25.732965424957	0.040994229323
0	4138	25.77395965428	0.022434074084
0	4145	25.796393728364	0.042094982434
0	4150	25.838488710798	0.030378949371
0	4156	25.868867660169	0.013897833251
0	4162	25.88276549342	0.044087440972
0	4168	25.926852934392	0.049482416534
0	4173	25.976335350926	0.000960473515
0	4175	25.977295824441	0.035376920708
0	4183	26.012672745149	0.046008273433
0	4188	26.058681018582	0.00960622327
0	4193	26.068287241852	0.050979607405
0	4200	26.119266849257	0.006124826688
0	4202	26.125391675945	0.000343505274
0	4204	26.125735181219	0.055704464298
0	4215	26.181439645517	0.012900402886
0	4220	26.194340048403	0.111938924187
0	4228	26.30627897259	0.009278258549
0	4233	26.315557231139	0.02144609057
0	4238	26.337003321709	0.024500897264
0	4243	26.361504218973	0.031290049094
0	4249	26.392794268067	0.107557632797
0	4255	26.500351900864	0.068249191915
0	4260	26.568601092779	0.028560649739
0	4265	26.597161742518	0.021387014645
0	4270	26.618548757163	0.003589316255
0	4272	26.622138073418	0.106187990034
0	4282	26.728326063452	0.034020381187
0	4288	26.762346444639	0.030010228591
0	4293	26.79235667323	0.06957788092
0	4299	26.86193455415	0.060167425913
0	4305	26.922101980063	0.006003851958
0	4307	26.928105832021	0.083831292629
0	4317	27.01193712465	0.170922464662
0	4325	27.182859589312	0.059158223417
0	4330	27.242017812729	0.003109133393
0	4332	27.245126946122	0.006077979712
0	4337	27.251204925834	0.003472753427
0	4339	27.254677679261	0.034694782702
0	4350	27.289372461963	0.035141791086
0	4356	27.324514253049	0.017787680892
0	4362	27.342301933941	0.104362288006
0	4368	27.446664221947	0.002266799248
0	4370	27.448931021195	0.096621155949
0	4381	27.545552177144	0.019309626441
0	4386	27.564861803585	0.020757855906
0	4392	27.585619659491	0.010476493385
0	4397	27.596096152876	0.045529309961
0	4402	27.641625462837	0.066175520405
0	4407	27.707800983242	0.047450147985
0	4413	27.755251131227	0.001185514933
0	4415	27.75643664616	0.012834680383
0	4420	27.769271326543	0.111781665544
0	4430	27.881052992087	0.004465075083
0	4432	27.88551806717	0.015367694496
0	4440	27.900885761666	0.020536908234
0	4445	27.9214226699	0.015440418376
0	4450	27.936863088276	0.017402325022
0	4455	27.954265413298	0.000576214939
0	4457	27.954841628237	0.026563767099
0	4465	27.981405395336	0.00716982935
0	4467	27.988575224686	0.065332416456
0	4475	28.053907641142	0.017952444714
0	4480	28.071860085856	0.026896190209
0	4485	28.098756276065	0.092721589178
0	4491	28.191477865243	0.039909760692
0	4496	28.231387625935	0.003672646156
0	4498	28.235060272091	0.032882569505
0	4507	28.267942841596	0.101707186128
0	4514	28.369650027724	0.003628479282
0	4516	28.373278507006	0.071270296555
0	4524	28.444548803561	0.003378944766
0	4526	28.447927748327	0.021190182357
0	4534	28.469117930684	0.002015752089
0	4536	28.471133682773	0.013844796014
0	4544	28.484978478787	0.003167761455
0	4546	28.488146240242	0.009272722817
0	4551	28.497418963059	0.009475353676
0	4557	28.506894316735	0.033359288839
0	4559	28.540253605574	0.064033975455
0	4572	28.604287581029	0.001177187232
0	4574	28.605464768261	0.025862200698
0	4585	28.631326968959	0.000550519332
0	4587	28.631877488291	0.025187571419
0	4595	28.65706505971	0.019600293067
0	4602	28.676665352777	0.036726975807
0	4609	28.713392328584	0.002467568193
0	4612	28.715859896777	0.027529568216
0	4621	28.743389464993	0.010159569529
0	4626	28.753549034522	0.001155139477
0	4628	28.754704173999	0.008748278583
0	4633	28.763452452582	0.030375165446
0	4644	28.793827618028	0.010218112511
0	4650	28.804045730539	0.051604777867
0	4661	28.855650508406	0.004916650093
0	4664	28.860567158499	0.016518883072
0	4674	28.877086041571	0.000423823577
0	4676	28.877509865148	0.023637455456
0	4685	28.901147320604	0.004295025256
0	4687	28.90544234586	0.139914721685
0	4704	29.045357067545	0.03372574437
0	4709	29.079082811915	0.009820157416
0	4714	29.088902969331	0.128084674146
0	4722	29.216987643477	0.016412246455
0	4727	29.233399889932	0.162409799858
0	4736	29.39580968979	0.001635721561
0	4738	29.397445411351	0.018411077852
0	4746	29.415856489203	0.012990660228
0	4751	29.428847149431	0.006225686525
0	4753	29.435072835956	0.062332713621
0	4768	29.497405549577	0.035637615258
0	4774	29.533043164835	0.057581419948
0	4783	29.590624584783	0.023588020548
0	4788	29.614212605331	0.035760142159
0	4795	29.64997274749	0.159173834815
0	4805	29.809146582305	0.016065977462
0	4810	29.825212559767	0.002363695491
0	4812	29.827576255258	0.013127168009
0	4820	29.840703423267	0.053512860475
0	4828	29.894216283742	0.056653137325
0	4834	29.950869421067	0.011908302686
0	4840	29.962777723753	0.002556808
0	4842	29.965334531753	0.009670681752
0	4847	29.975005213505	0.040273190753
0	4857	30.015278404258	0.038017115891
0	4867	30.053295520149	0.016772444307
0	4873	30.070067964456	0.009885634919
0	4879	30.079953599375	0.035172665817
0	4885	30.115126265192	0.038366739635
0	4890	30.153493004827	0.091547432635
0	4897	30.245040437462	0.025493215056
0	4902	30.270533652518	0.067330849973
0	4909	30.337864502491	0.019313074257
0	4914	30.357177576748	0.024097986082
0	4919	30.38127556283	0.02831428933
0	4924	30.40958985216	0.019541437624
0	4929	30.429131289784	0.011842114154
0	4934	30.440973403938	0.060519187319
0	4940	30.501492591257	0.042914627428
0	4945	30.544407218685	0.046909658669
0	4950	30.591316877354	0.018756457837
0	4955	30.610073335191	0.020743009628
0	4961	30.630816344819	0.015649896591
0	4966	30.64646624141	0.121472577819
0	4972	30.767938819229	0.061743058727
0	4978	30.829681877956	0.015793357947
0	4983	30.845475235903	0.090643915092
0	4988	30.936119150995	0.017735312486
0	4993	30.953854463481	0.001648474487
0	4995	30.955502937968	0.046970690941
0	5004	31.002473628909	0.009267379567
0	5009	31.011741008476	0.020866016199
0	5014	31.032607024675	0.014997766146
0	5020	31.047604790821	0.096920056899
0	5026	31.14452484772	0.059052640107
0	5032	31.203577487827	0.010408073477
0	5037	31.213985561304	0.148155552872
0	5043	31.362141114176	0.016830737851
0	5048	31.378971852027	0.121549949707
0	5054	31.500521801734	0.041807148023
0	5056	31.542328949757	0.082366716883
0	5065	31.62469566664	0.079579750834
0	5074	31.704275417474	0.01231185849
0	5079	31.716587275964	0.004516347611
0	5081	31.721103623575	0.169040208679
0	5093	31.890143832254	0.009676545079
0	5098	31.899820377333	0.010041818338
0	5103	31.909862195671	0.009068928956
0	5108	31.918931124627	0.00391805894
0	5110	31.922849183567	0.023533401571
0	5118	31.946382585138	0.105523889527
0	5123	32.051906474665	0.077742496412
0	5128	32.129648971077	0.009303579216
0	5133	32.138952550293	0.01551670386
0	5138	32.154469254153	0.04096525055
0	5144	32.195434504703	0.017028169892
0	5149	32.212462674595	0.00210449292
0	5151	32.214567167515	0.086997087952
0	5160	32.301564255467	0.045918707838
0	5166	32.347482963305	0.004229098869
0	5168	32.351712062174	0.074714583809
0	5178	32.426426645983	0.034905462346
0	5183	32.461332108329	0.011131909082
0	5188	32.472464017411	0.004987603098
0	5190	32.477451620509	0.016678053734
0	5198	32.494129674243	0.016407849207
0	5204	32.51053752345	0.016410735447
0	5209	32.526948258897	0.013725645137
0	5214	32.540673904034	0.048351067795
0	5220	32.589024971829	0.039892839233
0	5226	32.628917811062	0.009504452709
0	5231	32.638422263771	0.055557503039
0	5236	32.69397976681	0.006599765349
0	5238	32.700579532159	0.024536592826
0	5247	32.725116124985	0.020879247091
0	5252	32.745995372076	0.012296244854
0	5258	32.75829161693	0.012707759406
0	5264	32.770999376336	0.075992905847
0	5269	32.846992282183	0.063963419374
0	5274	32.910955701557	0.015178269938
0	5279	32.926133971495	0.009501448825
0	5284	32.93563542032	0.046931560361
0	5290	32.982566980681	0.024427814209
0	5296	33.00699479489	0.028367260151
0	5298	33.035362055041	0.100009887174
0	5307	33.135371942215	0.007876487285
0	5313	33.1432484295	0.0351790477
0	5319	33.1784274772	0.027832777046
0	5325	33.206260254246	0.070685457613
0	5330	33.276945711859	0.025662886854
0	5336	33.302608598713	0.098591910549
0	5341	33.401200509262	0.015011914252
0	5347	33.416212423514	0.048627547743
0	5352	33.464839971257	0.00087248335
0	5354	33.465712454607	0.042089507065
0	5362	33.507801961672	0.005639990259
0	5364	33.513441951931	0.120433041665
0	5372	33.633874993596	0.004948758946
0	5374	33.638823752542	0.181479529806
0	5384	33.820303282348	0.043075159786
0	5389	33.863378442134	0.021040412623
0	5395	33.884418854757	0.043213795662
0	5400	33.927632650419	0.00257272321
0	5402	33.930205373629	0.033113560944
0	5411	33.963318934573	0.012125166462
0	5417	33.975444101035	0.03900603811
0	5422	34.014450139145	0.005785255431
0	5424	34.020235394576	0.020766569889
0	5432	34.041001964465	0.018914094416
0	5437	34.059916058881	0.041684350869
0	5442	34.10160040975	0.00492608044
0	5444	34.10652649019	0.016636888437
0	5454	34.123163378627	0.03243235101
0	5459	34.155595729637	0.003688864547
0	5461	34.159284594184	0.016890132531
0	5469	34.176174726715	0.11288606293
0	5475	34.289060789645	0.079011687676
0	5480	34.368072477321	0.002631713321
0	5482	34.370704190642	0.120246818737
0	5490	34.490951009379	0.000682125253
0	5492	34.491633134632	0.027706318311
0	5501	34.519339452943	0.136181853164
0	5510	34.655521306107	0.0112469106
0	5515	34.666768216707	0.00562555142
0	5517	34.672393768127	0.031396855494
0	5525	34.703790623621	0.010477355103
0	5531	34.714267978724	0.079474853759
0	5541	34.793742832483	0.008496090308
0	5546	34.802238922791	0.018273895654
0	5551	34.820512818445	0.030355220659
0	5557	34.850868039104	0.028109787017
0	5564	34.878977826121	0.130179290881
0	5571	35.009157117002	0.011094208296
0	5577	35.020251325298	0.011159436694
0	5582	35.031410761992	0.021272466744
0	5587	35.052683228736	0.122817224285
0	5598	35.175500453021	0.017978996464
0	5604	35.193479449485	0.000903981555
0	5606	35.19438343104	0.009994912218
0	5611	35.204378343258	0.07663763501
0	5623	35.281015978268	0.024673226248
0	5628	35.305689204516	0.043158105453
0	5634	35.348847309969	0.013006551419
0	5639	35.361853861388	0.011389585101
0	5645	35.373243446489	0.016340252025
0	5650	35.389583698514	0.078837250452
0	5660	35.468420948966	0.026053239149
0	5665	35.494474188115	0.000940821683
0	5667	35.495415009798	0.048603704585
0	5677	35.544018714383	0.034388491995
0	5684	35.578407206378	0.014200422035
0	5689	35.592607628413	0.013992834537
0	5695	35.60660046295	0.090268959578
0	5703	35.696869422528	0.119522371585
0	5712	35.816391794113	0.06939844031
0	5719	35.885790234423	0.006461555552
0	5721	35.892251789975	0.001747046085
0	5726	35.89399883606	0.08111341219
0	5738	35.97511224825	0.010239271042
0	5743	35.985351519292	0.014013353601
0	5748	35.999364872893	0.020679232714
0	5754	36.020044105607	0.077011526216
0	5763	36.097055631823	0.003868055681
0	5765	36.100923687504	0.025142804232
0	5773	36.126066491736	0.014995436008
0	5778	36.141061927744	0.025012196558
0	5786	36.166074124302	0.047160708829
0	5793	36.213234833131	0.017118794372
0	5800	36.230353627503	0.039936516699
0	5805	36.270290144202	0.026432413622
0	5813	36.296722557824	0.034085750702
0	5820	36.330808308526	0.101329116596
0	5827	36.432137425122	0.043389432822
0	5832	36.475526857944	0.078177394788
0	5841	36.553704252732	0.008026101007
0	5846	36.561730353739	0.039566001941
0	5851	36.60129635568	0.014633208063
0	5857	36.615929563743	0.035663361338
0	5863	36.651592925081	0.039471615175
0	5870	36.691064540256	0.027820549262
0	5877	36.718885089518	0.073986738513
0	5886	36.792871828031	0.011143755562
0	5891	36.804015583593	0.027459484392
0	5897	36.831475067985	0.005616943758
0	5899	36.837092011743	0.011629121825
0	5907	36.848721133568	0.067901687346
0	5919	36.916622820914	0.001074562055
0	5921	36.917697382969	0.035280473917
0	5931	36.952977856886	0.043366277758
0	5938	36.996344134644	0.012465802355
0	5943	37.008809936999	0.000277037128
0	5945	37.009086974127	0.021580758098
0	5954	37.030667732225	0.016320395925
0	5959	37.04698812815	0.000869162271
0	5961	37.047857290421	0.026465818673
0	5972	37.074323109094	0.02858074411
0	5978	37.102903853204	0.089336677274
0	5987	37.192240530478	0.015683078893
0	5992	37.207923609371	0.003281438566
0	5994	37.211205047937	0.024450335213
0	6002	37.23565538315	0.01822726027
0	6008	37.25388264342	0.005837851534
0	6010	37.259720494954	0.000861477542
0	6012	37.260581972496	0.019399396569
0	6025	37.279981369065	0.014681776321
0	6031	37.294663145386	0.082820159235
0	6042	37.377483304621	0.034071539028
0	6048	37.411554843649	0.000299180653
0	6050	37.411854024302	0.011452363346
0	6055	37.423306387648	0.121428784357
0	6068	37.544735172005	0.008239205328
0	6071	37.552974377333	0.041092454788
0	6080	37.594066832121	0.004303689841
0	6082	37.598370521962	0.00366492957
0	6087	37.602035451532	0.030125014763
0	6095	37.632160466295	0.011976114207
0	6100	37.644136580502	0.04159152061
0	6105	37.685728101112	0.027108087578
0	6111	37.71283618869	0.039011385105
0	6116	37.751847573795	0.045076158369
0	6122	37.796923732164	0.104062291882
0	6128	37.900986024046	0.017235448173
0	6133	37.918221472219	9.474061e-005
0	6135	37.918316212829	0.009015470322
0	6140	37.927331683151	0.036464556269
0	6149	37.96379623942	0.021234934324
0	6154	37.985031173744	0.032104512892
0	6159	38.017135686636	0.125247560404
0	6164	38.14238324704	0.031098504931
0	6170	38.173481751971	0.06281355899
0	6175	38.236295310961	0.115172709059
0	6180	38.35146802002	0.086192549429
0	6187	38.437660569449	0.000595546831
0	6189	38.43825611628	0.038516398567
0	6197	38.476772514847	0.041731052098
0	6202	38.518503566945	0.020335302941
0	6207	38.538838869886	0.058809884003
0	6213	38.597648753889	0.040441615506
0	6218	38.638090369395	0.024953476769
0	6225	38.663043846164	0.036603885248
0	6230	38.699647731412	0.014224450336
0	6235	38.713872181748	0.001033613391
0	6237	38.714905795139	0.054762979274
0	6247	38.769668774413	0.088196104285
0	6252	38.857864878698	0.003580562335
0	6254	38.861445441033	0.027365954809
0	6263	38.888811395842	0.020421106031
0	6269	38.909232501873	0.16542383189
0	6276	39.074656333763	0.025685448846
0	6281	39.100341782609	0.016906855849
0	6286	39.117248638458	0.041440970772
0	6291	39.15868960923	0.057517363232
0	6298	39.216206972462	0.003334956901
0	6300	39.219541929363	0.0216318332
0	6308	39.241173762563	0.009046073705
0	6313	39.250219836268	0.06137068414
0	6319	39.311590520408	0.018485039675
0	6324	39.330075560083	0.027111480772
0	6329	39.357187040855	0.034170220804
0	6334	39.391357261659	0.076394986125
0	6339	39.467752247784	0.07630071565
0	6345	39.544052963434	0.07424040599
0	6350	39.618293369424	0.033757491662
0	6355	39.652050861086	0.013928193813
0	6360	39.665979054899	0.005013704632
0	6362	39.670992759531	0.018137974684
0	6371	39.689130734215	0.137951053962
0	6379	39.827081788177	0.027533909041
0	6384	39.854615697218	0.071891836935
0	6390	39.926507534153	0.034021713897
0	6395	39.96052924805	0.024451124843
0	6400	39.984980372893	0.016694921283
0	6405	40.001675294176	0.089443120083
0	6411	40.091118414259	0.02734090765
0	6416	40.118459321909	0.027283726009
0	6421	40.145743047918	0.004510752611
0	6423	40.150253800529	0.089877642005
0	6431	40.240131442534	0.039956543323
0	6436	40.280087985857	0.061997366176
0	6441	40.342085352033	0.011845439649
0	6446	40.353930791682	0.120785354528
0	6452	40.47471614621	0.001537453194
0	6454	40.476253599404	0.088305611147
0	6465	40.564559210551	0.004319331503
0	6467	40.568878542054	0.00128446746
0	6469	40.570163009514	0.003938548123
0	6474	40.574101557637	0.006723345165
0	6479	40.580824902802	0.0133178832
0	6487	40.594142786002	0.017250756893
0	6495	40.611393542895	0.009907535255
0	6500	40.62130107815	0.106383605655
0	6505	40.727684683805	0.028956407326
0	6510	40.756641091131	0.012485068844
0	6515	40.769126159975	0.082888261855
0	6521	40.85201442183	0.006121859103
0	6523	40.858136280933	0.030371430003
0	6531	40.888507710936	0.07609815175
0	6538	40.964605862686	0.031890103282
0	6543	40.996495965968	0.020695597495
0	6548	41.017191563463	0.00951530435
0	6553	41.026706867813	0.083461537013
0	6560	41.110168404826	0.030436537629
0	6565	41.140604942455	0.006111972877
0	6567	41.146716915332	0.005518521849
0	6572	41.152235437181	0.037873565957
0	6580	41.190109003138	0.014312113524
0	6585	41.204421116662	0.020310135579
0	6590	41.224731252241	0.034378336454
0	6595	41.259109588695	0.002784955428
0	6597	41.261894544123	0.015691525731
0	6605	41.277586069854	0.041728828473
0	6611	41.319314898327	0.084666798796
0	6620	41.403981697123	0.009947691023
0	6625	41.413929388146	0.073772312544
0	6631	41.48770170069	0.001414755218
0	6633	41.489116455908	0.019930263985
0	6641	41.509046719893	0.002163565203
0	6643	41.511210285096	0.025515235248
0	6652	41.536725520344	0.002205820549
0	6654	41.538931340893	0.022530368205
0	6662	41.561461709098	0.083407389562
0	6668	41.64486909866	0.007132488377
0	6670	41.652001587037	0.047131955099
0	6678	41.699133542136	0.019967709583
0	6684	41.719101251719	0.079918791205
0	6689	41.799020042924	0.007269615017
0	6691	41.806289657941	0.039078150075
0	6700	41.845367808016	0.043959845957
0	6706	41.889327653973	0.026346937821
0	6712	41.915674591794	0.0259088267
0	6718	41.941583418494	0.012706650404
0	6723	41.954290068898	0.013527296372
0	6728	41.96781736527	0.216856854155
0	6736	42.184674219425	0.000108652488
0	6738	42.184782871913	0.015739967878
0	6746	42.200522839791	0.031834974671
0	6751	42.232357814462	0.022263620903
0	6756	42.254621435365	0.036651728942
0	6761	42.291273164307	0.016632330357
0	6766	42.307905494664	0.000182109648
0	6768	42.308087604312	0.136102565297
0	6779	42.444190169609	0.122989258803
0	6785	42.567179428412	0.006718526568
0	6787	42.57389795498	0.038158595526
0	6795	42.612056550506	0.013911767797
0	6800	42.625968318303	0.01214251091
0	6805	42.638110829213	0.039918356624
0	6810	42.678029185837	0.007825967042
0	6812	42.685855152879	0.002285275848
0	6817	42.688140428727	0.090988563587
0	6826	42.779128992314	0.032710314572
0	6831	42.811839306886	0.012949271291
0	6836	42.824788578177	0.022729375438
0	6841	42.847517953615	0.018067120923
0	6846	42.865585074538	0.011692627907
0	6851	42.877277702445	0.035089684291
0	6857	42.912367386736	0.009532292922
0	6862	42.921899679658	0.077462953104
0	6869	42.999362632762	0.025291078314
0	6874	43.024653711076	0.019834568595
0	6879	43.044488279671	0.016056295593
0	6884	43.060544575264	0.092194598858
0	6890	43.152739174122	0.02134167605
0	6895	43.174080850172	0.03138400428
0	6900	43.205464854452	0.014409520226
0	6905	43.219874374678	0.019783934846
0	6910	43.239658309524	0.123310296943
0	6918	43.362968606467	0.031444082825
0	6923	43.394412689292	0.005012814502
0	6925	43.399425503794	0.015320880964
0	6933	43.414746384758	0.003563547469
0	6935	43.418309932227	0.037452887137
0	6943	43.455762819364	0.014723368534
0	6948	43.470486187898	0.036975434796
0	6955	43.507461622694	0.031293706084
0	6957	43.538755328778	0.060353715991
0	6966	43.599109044769	0.03767366608
0	6972	43.636782710849	0.01804066425
0	6977	43.654823375099	0.017719238848
0	6983	43.672542613947	0.001340107922
0	6985	43.673882721869	0.253171395848
0	6996	43.927054117717	0.146140526148
0	7002	44.073194643865	0.015179481464
0	7008	44.088374125329	0.020806310584
0	7013	44.109180435913	0.044730074521
0	7019	44.153910510434	0.097116411755
0	7025	44.251026922189	0.035523563543
0	7030	44.286550485732	0.039020339892
0	7035	44.325570825624	0.058692715655
0	7040	44.384263541279	0.010856864314
0	7045	44.395120405593	0.130870196731
0	7050	44.525990602324	0.029059122637
0	7055	44.555049724961	0.077189028133
0	7061	44.632238753094	0.110074914345
0	7066	44.742313667439	0.050620765025
0	7071	44.792934432464	0.004216039372
0	7073	44.797150471836	0.041935298575
0	7081	44.839085770411	0.011121926948
0	7086	44.850207697359	0.014305117898
0	7091	44.864512815257	0.002996727794
0	7093	44.867509543051	0.005592992315
0	7098	44.873102535366	0.050726265432
0	7107	44.923828800798	0.00226392618
0	7109	44.926092726978	0.000767458324
0	7111	44.926860185302	0.009692977886
0	7116	44.936553163188	0.005167115913
0	7121	44.941720279101	0.019814534309
0	7132	44.96153481341	0.010568425122
0	7137	44.972103238532	0.025834785989
0	7143	44.997938024521	0.071700410481
0	7151	45.069638435002	0.051911069281
0	7158	45.121549504283	0.006920611878
0	7161	45.128470116161	0.11157594603
0	7172	45.240046062191	0.019876069259
0	7178	45.25992213145	0.004367758229
0	7180	45.264289889679	0.013762605045
0	7188	45.278052494724	0.003961066634
0	7190	45.282013561358	0.030647357933
0	7199	45.312660919291	0.031179883066
0	7209	45.343840802357	0.096467457712
0	7216	45.440308260069	0.047881890748
0	7221	45.488190150817	0.09892833897
0	7231	45.587118489787	0.065970261497
0	7239	45.653088751284	0.001887793475
0	7241	45.654976544759	0.096118815458
0	7252	45.751095360217	0.031740208756
0	7258	45.782835568973	0.143497700243
0	7266	45.926333269216	0.077832398551
0	7272	46.004165667767	0.017867330695
0	7277	46.022032998462	0.053142920194
0	7285	46.075175918656	0.016750179987
0	7291	46.091926098643	0.008318305489
0	7296	46.100244404132	0.005598047467
0	7298	46.105842451599	0.050685114338
0	7308	46.156527565937	0.040424108675
0	7315	46.196951674612	0.007334757
0	7320	46.204286431612	0.037426587043
0	7326	46.241713018655	0.080159002697
0	7336	46.321872021352	0.069333435364
0	7342	46.391205456716	0.000313998557
0	7344	46.391519455273	0.003581146785
0	7346	46.395100602058	0.003309835778
0	7351	46.398410437836	0.024104879538
0	7362	46.422515317374	0.033790252989
0	7370	46.456305570363	0.030452796863
0	7379	46.486758367226	0.016869272335
0	7385	46.503627639561	0.009677068944
0	7387	46.513304708505	0.00355420697
0	7390	46.516858915475	0.006480461872
0	7395	46.523339377347	0.146834401704
0	7410	46.670173779051	0.068709315134
0	7415	46.738883094185	0.079413918032
0	7420	46.818297012217	0.002111130832
0	7422	46.820408143049	0.011068298704
0	7428	46.831476441753	0.022261766489
0	7436	46.853738208242	0.022432039812
0	7441	46.876170248054	0.004308865922
0	7443	46.880479113976	0.02287086409
0	7451	46.903349978066	0.02137639612
0	7456	46.924726374186	0.024852462098
0	7461	46.949578836284	0.136854926938
0	7469	47.086433763222	0.119669777594
0	7474	47.206103540816	0.019289828191
0	7479	47.225393369007	0.003686004672
0	7481	47.229079373679	0.068102460437
0	7489	47.297181834116	0.001416028448
0	7491	47.298597862564	0.004367563283
0	7493	47.302965425847	0.023137793029
0	7504	47.326103218876	0.011074958692
0	7509	47.337178177568	0.021453854404
0	7514	47.358632031972	0.018100842447
0	7519	47.376732874419	0.009387808265
0	7524	47.386120682684	0.017867940158
0	7529	47.403988622842	0.002123600506
0	7531	47.406112223348	0.038950233406
0	7539	47.445062456754	0.004627405994
0	7541	47.449689862748	0.014794142582
0	7549	47.46448400533	0.068012019471
0	7554	47.532496024801	0.043783203123
0	7560	47.576279227924	0.017859498922
0	7565	47.594138726846	0.035678831582
0	7570	47.629817558428	0.016810213483
0	7575	47.646627771911	0.017829997858
0	7580	47.664457769769	0.000777652821
0	7582	47.66523542259	0.01978240722
0	7590	47.68501782981	0.016436281124
0	7595	47.701454110934	0.033365007593
0	7600	47.734819118527	0.03792418659
0	7606	47.772743305117	0.002541562034
0	7608	47.775284867151	0.034362471696
0	7616	47.809647338847	0.060489078054
0	7623	47.870136416901	0.085865704453
0	7628	47.956002121354	0.037087573012
0	7633	47.993089694366	0.038994015776
0	7642	48.032083710142	0.045355723577
0	7649	48.077439433719	0.013708958896
0	7654	48.091148392615	0.026945167753
0	7661	48.118093560368	0.013304166097
0	7666	48.131397726465	0.004097451376
0	7669	48.135495177841	0.062707901756
0	7682	48.198203079597	0.018173880371
0	7687	48.216376959968	0.052333089135
0	7694	48.268710049103	0.018193768071
0	7700	48.286903817174	0.011553734292
0	7705	48.298457551466	0.013551911353
0	7711	48.312009462819	0.043802813493
0	7719	48.355812276312	0.001064279782
0	7721	48.356876556094	0.028860010311
0	7730	48.385736566405	0.046779894606
0	7737	48.432516461011	0.017859070263
0	7744	48.450375531274	0.004070208337
0	7746	48.454445739611	0.026489901103
0	7754	48.480935640714	0.03262653592
0	7761	48.513562176634	0.003118008512
0	7764	48.516680185146	0.0425164498
0	7773	48.559196634946	0.038347745459
0	7781	48.597544380405	0.035254544094
0	7788	48.632798924499	0.001052897844
0	7790	48.633851822343	0.111918056509
0	7801	48.745769878852	0.077028590603
0	7807	48.822798469455	0.003816115227
0	7809	48.826614584682	0.040112731227
0	7817	48.866727315909	0.070653231597
0	7826	48.937380547506	0.077675343262
0	7832	49.015055890768	0.00103686633
0	7834	49.016092757098	4.2290566e-005
0	7836	49.016135047664	0.02679386788
0	7847	49.042928915544	0.096883502019
0	7857	49.139812417563	0.018127320577
0	7862	49.15793973814	0.111210071751
0	7870	49.269149809891	0.025995331239
0	7875	49.29514514113	0.055692079217
0	7881	49.350837220347	0.015900065197
0	7888	49.366737285544	0.169315560717
0	7902	49.536052846261	0.007399741124
0	7904	49.543452587385	0.015359896196
0	7911	49.558812483581	0.000675783682
0	7913	49.559488267263	0.066014028739
0	7925	49.625502296002	0.025554270709
0	7931	49.651056566711	0.051541450189
0	7938	49.7025980169	0.064753122695
0	7944	49.767351139595	0.044619800839
0	7949	49.811970940434	0.016350362926
0	7954	49.82832130336	0.035123353576
0	7959	49.863444656936	0.008824888675
0	7964	49.872269545611	0.012854385862
0	7969	49.885123931473	0.002938601401
0	7971	49.888062532874	0.026972087128
0	7979	49.915034620002	0.003120987879
0	7981	49.918155607881	0.011234918026
0	7987	49.929390525907	0.008758864814
0	7995	49.938149390721	0.000305476371
0	7997	49.938454867092	0.003688164922
0	7999	49.942143032014	0.000884139263
0	8001	49.943027171277	0.010777857845
0	8009	49.953805029122	0.005453671514
0	8011	49.959258700636	0.002395360638
0	8016	49.961654061274	0.025236834155
0	8027	49.986890895429	0.002374955732
0	8032	49.989265851161	0.008815617464
0	8037	49.998081468625	0.067895161586
0	8046	50.065976630211	0.016142902216
0	8051	50.082119532427	0.006190824714
0	8053	50.088310357141	0.001983935841
0	8058	50.090294292982	0.028709064741
0	8067	50.119003357723	0.084746782626
0	8073	50.203750140349	0.051968492592
0	8078	50.255718632941	0.075684172995
0	8083	50.331402805936	0.02133457133
0	8089	50.352737377266	0.079650199408
0	8095	50.432387576674	0.005827156787
0	8097	50.438214733461	0.014131351749
0	8105	50.45234608521	0.007792359821
0	8110	50.460138445031	0.043680638095
0	8115	50.503819083126	0.019857884188
0	8120	50.523676967314	0.0194869784
0	8125	50.543163945714	0.026294533078
0	8132	50.569458478792	0.012568348899
0	8137	50.582026827691	0.015047277096
0	8142	50.597074104787	0.002555439034
0	8144	50.599629543821	0.053230656767
0	8153	50.652860200588	0.01917693532
0	8158	50.672037135908	0.048663626453
0	8164	50.720700762361	0.017204087556
0	8169	50.737904849917	0.091707055191
0	8175	50.829611905108	0.006118770001
0	8177	50.835730675109	0.001028298155
0	8179	50.836758973264	0.015088563953
0	8187	50.851847537217	0.079114015658
0	8197	50.930961552875	0.003517693331
0	8199	50.934479246206	0.017448071617
0	8207	50.951927317823	0.071705829775
0	8215	51.023633147598	0.073737724406
0	8222	51.097370872004	0.038548862741
0	8227	51.135919734745	0.041080120476
0	8233	51.176999855221	0.007492876813
0	8235	51.184492732034	0.1529499913
0	8243	51.337442723334	0.087575529389
0	8249	51.425018252723	0.049844585547
0	8254	51.47486283827	0.030335937473
0	8259	51.505198775743	0.015869469642
0	8264	51.521068245385	0.021301677392
0	8269	51.542369922777	0.024334652335
0	8274	51.566704575112	0.03598718614
0	8280	51.602691761252	0.016528006203
0	8287	51.619219767455	0.010257222423
0	8292	51.629476989878	0.015889700636
0	8298	51.645366690514	0.0280318039
0	8303	51.673398494414	0.010581484832
0	8308	51.683979979246	0.004950823675
0	8310	51.688930802921	0.023979202728
0	8318	51.712910005649	0.007832607025
0	8323	51.720742612674	0.040071025731
0	8328	51.760813638405	0.025258056169
0	8333	51.786071694574	0.011368588163
0	8338	51.797440282737	0.003590274096
0	8340	51.801030556833	0.026009747901
0	8349	51.827040304734	0.066834425648
0	8355	51.893874730382	0.004370130024
0	8357	51.898244860406	0.017619914041
0	8365	51.915864774447	0.006095922739
0	8367	51.921960697186	0.009287948522
0	8375	51.931248645708	0.001677801985
0	8377	51.932926447693	0.030818145341
0	8386	51.963744593034	0.123593449017
0	8392	52.087338042051	0.048080174264
0	8397	52.135418216315	0.000135373812
0	8399	52.135553590127	0.032865651123
0	8408	52.16841924125	0.006885224102
0	8410	52.175304465352	0.030280217062
0	8418	52.205584682414	0.033214522137
0	8423	52.238799204551	0.006525737197
0	8425	52.245324941748	0.002970499386
0	8430	52.248295441134	0.04058305881
0	8438	52.288878499944	0.074766787421
0	8443	52.363645287365	0.131728827774
0	8449	52.495374115139	0.044506350081
0	8455	52.53988046522	0.032830284046
0	8461	52.572710749266	0.118752575012
0	8469	52.691463324278	0.013932135175
0	8474	52.705395459453	0.02479876264
0	8480	52.730194222093	0.056804650597
0	8488	52.78699887269	0.012503812834
0	8494	52.799502685524	0.063353885401
0	8502	52.862856570925	0.027908946654
0	8508	52.890765517579	0.018781772904
0	8513	52.909547290483	0.093485874073
0	8521	53.003033164556	0.018801430798
0	8527	53.021834595354	0.025744486423
0	8532	53.047579081777	0.096549646302
0	8540	53.144128728079	0.010881222209
0	8545	53.155009950288	0.044827871307
0	8551	53.199837821595	0.073458645
0	8559	53.273296466595	0.001170916569
0	8561	53.274467383164	0.016278001031
0	8569	53.290745384195	0.019426110386
0	8574	53.310171494581	4.8450941e-005
0	8576	53.310219945522	0.003450982507
0	8578	53.313670928029	0.00996100644
0	8583	53.323631934469	0.134467070621
0	8603	53.45809900509	0.013407382348
0	8608	53.471506387438	0.029965815509
0	8613	53.501472202947	0.068509643728
0	8622	53.569981846675	0.036117224602
0	8627	53.606099071277	0.021469632314
0	8634	53.627568703591	0.015864956478
0	8639	53.643433660069	0.020581533409
0	8645	53.664015193478	0.038561667106
0	8652	53.702576860584	0.014336950603
0	8657	53.716913811187	0.029689338344
0	8663	53.746603149531	0.074407569948
0	8671	53.821010719479	0.052158718034
0	8677	53.873169437513	0.101531816441
0	8684	53.974701253954	0.080626240682
0	8692	54.055327494636	0.168514429991
0	8700	54.223841924627	0.018131016999
0	8705	54.241972941626	0.016547774065
0	8710	54.258520715691	0.078998049957
0	8715	54.337518765648	0.118500931602
0	8720	54.45601969725	0.002355393852
0	8722	54.458375091102	0.054937342411
0	8731	54.513312433513	0.040484475139
0	8737	54.553796908652	0.039411847919
0	8742	54.593208756571	0.009196439348
0	8747	54.602405195919	0.009831190442
0	8752	54.612236386361	0.027092521494
0	8757	54.639328907855	0.008537538445
0	8762	54.6478664463	0.051903577753
0	8767	54.699770024053	0.006355272618
0	8769	54.706125296671	0.048045340204
0	8777	54.754170636875	0.089627787017
0	8786	54.843798423892	0.044733020286
0	8792	54.888531444178	0.012188702196
0	8797	54.900720146374	0.023082598002
0	8802	54.923802744376	0.021121757735
0	8807	54.944924502111	0.007549494445
0	8812	54.952473996556	0.023839734733
0	8817	54.976313731289	0.008054401885
0	8822	54.984368133174	0.052704790008
0	8827	55.037072923182	0.026835388374
0	8833	55.063908311556	0.065079230035
0	8839	55.128987541591	0.02015730405
0	8844	55.149144845641	0.005241082289
0	8846	55.15438592793	0.129096519142
0	8854	55.283482447072	0.019484593243
0	8859	55.302967040315	0.012524843531
0	8864	55.315491883846	0.064770497631
0	8869	55.380262381477	0.002879189791
0	8871	55.383141571268	0.059637606155
0	8879	55.442779177423	0.04542427992
0	8884	55.488203457343	0.003781612341
0	8886	55.491985069684	0.129709672306
0	8898	55.62169474199	0.005951998108
0	8901	55.627646740098	0.053328459812
0	8910	55.68097519991	0.012694189767
0	8916	55.693669389677	0.009931253589
0	8921	55.703600643266	0.002742243038
0	8923	55.706342886304	0.001303613231
0	8925	55.707646499535	0.019347976673
0	8933	55.726994476208	0.018285023517
0	8942	55.745279499725	0.003985123006
0	8944	55.749264622731	0.073559275443
0	8961	55.822823898174	0.029394172548
0	8967	55.852218070722	0.019796802236
0	8972	55.872014872958	0.009908564015
0	8978	55.881923436973	0.011696839524
0	8983	55.893620276497	0.031759452198
0	8990	55.925379728695	0.095830815335
0	8999	56.02121054403	0.004375894209
0	9001	56.025586438239	0.051785129947
0	9009	56.077371568186	0.130370603093
0	9020	56.207742171279	0.033044943822
0	9025	56.240787115101	0.094378719887
0	9032	56.335165834988	9.3823042e-005
0	9034	56.33525965803	0.017403626444
0	9042	56.352663284474	0.093834828141
0	9051	56.446498112615	0.009705763513
0	9056	56.456203876128	0.039212567896
0	9061	56.495416444024	0.010087460877
0	9067	56.505503904901	0.008897163195
0	9073	56.514401068096	0.0231165863
0	9078	56.537517654396	0.000877260564
0	9080	56.53839491496	0.001428507512
0	9082	56.539823422472	0.000262372056
0	9084	56.540085794528	0.035729134667
0	9101	56.575814929195	0.091798893266
0	9112	56.667613822461	0.018366615543
0	9117	56.685980438004	0.041349188951
0	9124	56.727329626955	0.016585155265
0	9130	56.74391478222	0.042744806192
0	9136	56.786659588412	0.058008808223
0	9144	56.844668396635	0.031727544703
0	9150	56.876395941338	0.043209385442
0	9157	56.91960532678	0.026968806227
0	9163	56.946574133007	0.108023899861
0	9172	57.054598032868	0.021281106902
0	9177	57.07587913977	0.015181816633
0	9182	57.091060956403	0.032087085509
0	9188	57.123148041912	0.079740840998
0	9194	57.20288888291	0.03715436607
0	9200	57.24004324898	0.051433666055
0	9205	57.291476915035	0.016340526211
0	9210	57.307817441246	0.015479491615
0	9216	57.323296932861	0.038616385595
0	9222	57.361913318456	0.034019173758
0	9228	57.395932492214	0.021365174006
0	9234	57.41729766622	0.011916736704
0	9240	57.429214402924	0.003111647871
0	9242	57.432326050795	0.072612833384
0	9253	57.504938884179	0.009292326493
0	9258	57.514231210672	0.004174270449
0	9260	57.518405481121	0.002970580333
0	9262	57.521376061454	0.008358299581
0	9270	57.529734361035	0.013602174818
0	9278	57.543336535853	0.007075492769
0	9280	57.550412028622	0.033075629671
0	9288	57.583487658293	0.018055860288
0	9294	57.601543518581	0.016039609707
0	9299	57.617583128288	0.047859200165
0	9304	57.665442328453	0.045340983237
0	9311	57.71078331169	0.026196248222
0	9316	57.736979559912	0.03966858911
0	9322	57.776648149022	0.023407953946
0	9327	57.800056102968	0.005470242488
0	9329	57.805526345456	1.9114199e-005
0	9331	57.805545459655	0.006439088027
0	9336	57.811984547682	0.01939294507
0	9347	57.831377492752	0.002331179803
0	9349	57.833708672555	0.002298211481
0	9351	57.836006884036	0.010744208389
0	9359	57.846751092425	0.008172979711
0	9364	57.854924072136	0.014989031008
0	9372	57.869913103144	0.094292018974
0	9379	57.964205122118	0.003233563156
0	9381	57.967438685274	0.008490263561
0	9386	57.975928948835	0.03226577404
0	9395	58.008194722875	0.068400807009
0	9401	58.076595529884	0.04385773329
0	9407	58.120453263174	0.056840365533
0	9412	58.177293628707	0.005986813666
0	9414	58.183280442373	0.006066813243
0	9419	58.189347255616	0.014656577329
0	9428	58.204003832945	0.032573574482
0	9433	58.236577407427	0.045471976635
0	9438	58.282049384062	0.004302052585
0	9440	58.286351436647	0.038101566057
0	9448	58.324453002704	0.045553973796
0	9454	58.3700069765	0.067455657404
0	9459	58.437462633904	0.035511936399
0	9467	58.472974570303	0.02830765442
0	9473	58.501282224723	0.058484530132
0	9479	58.559766754855	0.000913288774
0	9481	58.560680043629	0.022846026719
0	9489	58.583526070348	0.00206601685
0	9491	58.585592087198	0.086222312021
0	9504	58.671814399219	0.002920680615
0	9506	58.674735079834	0.001771287326
0	9508	58.67650636716	0.025480800905
0	9519	58.701987168065	0.01212984532
0	9524	58.714117013385	0.049242569085
0	9530	58.76335958247	0.043940773502
0	9535	58.807300355972	0.001148194415
0	9537	58.808448550387	0.018951537278
0	9545	58.827400087665	0.021352477695
0	9550	58.84875256536	0.006646211511
0	9552	58.855398776871	0.060963490751
0	9560	58.916362267622	0.003969165277
0	9562	58.920331432899	0.038655638174
0	9570	58.958987071073	0.059504337524
0	9576	59.018491408597	0.027631680819
0	9581	59.046123089416	0.022428912502
0	9586	59.068552001918	0.031104640966
0	9591	59.099656642884	0.074881713304
0	9597	59.174538356188	0.079379663679
0	9602	59.253918019867	0.046255653716
0	9607	59.300173673583	0.029954722751
0	9612	59.330128396334	0.018450907639
0	9617	59.348579303973	0.019175404289
0	9622	59.367754708262	0.016366842704
0	9627	59.384121550966	0.042485119707
0	9634	59.426606670673	0.025372320271
0	9639	59.451978990944	0.015467661611
0	9644	59.467446652555	0.076956785138
0	9649	59.544403437693	0.126302925593
0	9655	59.670706363286	0.046783136356
0	9660	59.717489499642	0.072033191218
0	9665	59.78952269086	0.000180820014
0	9667	59.789703510874	0.005963207554
0	9669	59.795666718428	0.041464015273
0	9680	59.837130733701	0.040334385678
0	9685	59.877465119379	0.088185655563
0	9690	59.965650774942	0.00121326459
0	9692	59.966864039532	0.043380650557
0	9701	60.010244690089	0.075761951149
0	9707	60.086006641238	0.006818213378
0	9709	60.092824854616	0.065218509433
0	9717	60.158043364049	0.02312502827
0	9722	60.181168392319	0.024976390364
0	9727	60.206144782683	0.005291664926
0	9729	60.211436447609	0.004781310089
0	9734	60.216217757698	0.015565145923
0	9742	60.231782903621	0.034001378375
0	9747	60.265784281996	0.096826805882
0	9755	60.362611087878	0.009574770179
0	9760	60.372185858057	0.089877295192
0	9765	60.462063153249	0.03488132477
0	9770	60.496944478019	0.011635817255
0	9776	60.508580295274	0.041416883318
0	9781	60.549997178592	0.014523480395
0	9786	60.564520658987	0.003931713823
0	9788	60.56845237281	0.032088806305
0	9796	60.600541179115	0.022682462589
0	9801	60.623223641704	0.115576438336
0	9809	60.73880008004	0.030831766605
0	9815	60.769631846645	0.005597746135
0	9818	60.77522959278	0.010238482552
0	9826	60.785468075332	0.010393147057
0	9831	60.795861222389	0.007854252124
0	9836	60.803715474513	0.072378681031
0	9841	60.876094155544	0.035549943557
0	9847	60.911644099101	0.023697159932
0	9852	60.935341259033	0.050057677189
0	9859	60.985398936222	0.080228736905
0	9866	61.065627673127	0.015571446414
0	9871	61.081199119541	0.007182098642
0	9873	61.088381218183	0.043192800936
0	9881	61.131574019119	0.026625081064
0	9886	61.158199100183	0.030982589563
0	9891	61.189181689746	0.013822385223
0	9896	61.203004074969	0.058050768542
0	9901	61.261054843511	0.013320681476
0	9906	61.274375524987	0.007988631812
0	9911	61.282364156799	0.020726118139
0	9916	61.303090274938	0.055705373958
0	9922	61.358795648896	0.019863640434
0	9927	61.37865928933	0.01084307471
0	9932	61.38950236404	0.015475256018
0	9938	61.404977620058	0.012396951493
0	9943	61.417374571551	0.086266604775
0	9949	61.503641176326	0.133859937975
0	9956	61.637501114301	0.046053498112
0	9962	61.683554612413	0.001648704312
0	9964	61.685203316725	0.045510119971
0	9972	61.730713436696	0.007364591613
0	9977	61.738078028309	0.01198289445
0	9982	61.750060922759	0.025752766445
0	9988	61.775813689204	0.030172156955
0	9993	61.805985846159	0.016505850216
0	9998	61.822491696375	0.052864168654
0	10003	61.875355865029	0.009702120348
0	10008	61.885057985377	0.055567025065
0	10013	61.940625010442	0.040381731718
0	10019	61.98100674216	0.014784120729
0	10024	61.995790862889	0.038722357274
0	10029	62.034513220163	0.051571722183
0	10034	62.086084942346	0.11609735822
0	10042	62.202182300566	0.046599152266
0	10047	62.248781452832	0.073803361866
0	10053	62.322584814698	0.005340165185
0	10055	62.327924979883	0.208818249491
0	10066	62.536743229374	0.070332801585
0	10072	62.607076030959	0.015778343372
0	10077	62.622854374331	0.02037633686
0	10082	62.643230711191	0.001620132707
0	10084	62.644850843898	0.023321580661
0	10092	62.668172424559	0.013771883894
0	10097	62.681944308453	0.020820668956
0	10103	62.702764977409	0.024044847257
0	10108	62.726809824666	0.029364064903
0	10114	62.756173889569	0.006614248085
0	10116	62.762788137654	0.033973301175
0	10125	62.796761438829	0.003112002682
0	10127	62.799873441511	0.024132952267
0	10135	62.824006393778	0.02109838178
0	10140	62.845104775558	0.070553611252
0	10146	62.91565838681	0.094432906503
0	10152	63.010091293313	0.034585202861
0	10154	63.044676496174	0.050413706175
0	10164	63.095090202349	0.017962293343
0	10169	63.113052495692	0.013062690492
0	10174	63.126115186184	0.018866382799
0	10179	63.144981568983	0.076816846707
0	10185	63.22179841569	0.058280415458
0	10191	63.280078831148	0.041822484668
0	10197	63.321901315816	0.014980180266
0	10202	63.336881496082	0.021783930852
0	10207	63.358665426934	0.008314794003
0	10213	63.366980220937	0.010757854546
0	10218	63.377738075483	0.002142680124
0	10220	63.379880755607	0.029992308552
0	10230	63.409873064159	0.07306915921
0	10235	63.482942223369	0.007587650901
0	10240	63.49052987427	0.087770281734
0	10246	63.578300156004	0.047313773012
0	10252	63.625613929016	0.00447894807
0	10254	63.630092877086	0.096721675421
0	10263	63.726814552507	0.014251201319
0	10268	63.741065753826	0.03768305271
0	10273	63.778748806536	0.006748804608
0	10275	63.785497611144	0.045183694696
0	10284	63.83068130584	0.00431141803
0	10286	63.83499272387	0.006289887074
0	10291	63.841282610944	0.080543867811
0	10301	63.921826478755	0.048272537276
0	10306	63.970099016031	0.002049559691
0	10308	63.972148575722	0.024075617002
0	10316	63.996224192724	0.137781214544
0	10323	64.134005407268	0.003200352681
0	10325	64.137205759949	0.003549867419
0	10327	64.140755627368	0.017097125024
0	10338	64.157852752392	0.069692547417
0	10344	64.227545299809	0.045755198475
0	10350	64.273300498284	0.029255714864
0	10356	64.302556213148	0.030213699049
0	10361	64.332769912197	0.016055736947
0	10366	64.348825649144	0.01280421937
0	10371	64.361629868514	0.014667478125
0	10376	64.376297346639	0.157055444393
0	10382	64.533352791032	0.049566771817
0	10388	64.582919562849	0.029868674018
0	10393	64.612788236867	0.013219979694
0	10398	64.626008216561	0.101482452879
0	10407	64.72749066944	0.037483426623
0	10413	64.764974096063	0.028716364877
0	10418	64.79369046094	0.025494489139
0	10423	64.819184950079	0.029107503345
0	10429	64.848292453424	0.023223258973
0	10434	64.871515712397	0.001838413163
0	10436	64.87335412556	0.080999621451
0	10447	64.954353747011	0.003846597132
0	10449	64.958200344143	0.028310929102
0	10457	64.986511273245	0.033356869916
0	10463	65.019868143161	0.061378240607
0	10470	65.081246383768	0.04603908724
0	10475	65.127285471008	0.045257517826
0	10481	65.172542988834	0.009791488084
0	10486	65.182334476918	0.001376208748
0	10488	65.183710685666	0.116324674424
0	10496	65.30003536009	0.051915156941
0	10501	65.351950517031	0.047314639991
0	10506	65.399265157022	0.008555991241
0	10511	65.407821148263	0.009513823165
0	10516	65.417334971428	0.081710587772
0	10521	65.4990455592	0.036190203796
0	10526	65.535235762996	0.001535543728
0	10528	65.536771306724	0.014530123807
0	10536	65.551301430531	0.014177563021
0	10541	65.565478993552	0.045501610321
0	10546	65.610980603873	0.003677234152
0	10548	65.614657838025	0.030747342167
0	10556	65.645405180192	0.022591791986
0	10561	65.667996972178	0.049464443535
0	10567	65.717461415713	0.060022308644
0	10572	65.777483724357	0.010137249427
0	10577	65.787620973784	0.012393108003
0	10582	65.800014081787	0.094240995368
0	10587	65.894255077155	0.005726679473
0	10589	65.899981756628	0.173671146071
0	10600	66.073652902699	0.014030667478
0	10605	66.087683570177	0.006291743086
0	10607	66.093975313263	0.058847753834
0	10617	66.152823067097	0.02517538703
0	10623	66.177998454127	0.005294430577
0	10625	66.183292884704	0.069693977197
0	10633	66.252986861901	0.009028083025
0	10638	66.262014944926	0.014953666571
0	10643	66.276968611497	0.002496795225
0	10645	66.279465406722	0.009726956638
0	10650	66.28919236336	0.042811640919
0	10658	66.332004004279	0.045965022437
0	10663	66.377969026716	0.017601934584
0	10668	66.3955709613	0.13282613168
0	10674	66.52839709298	0.01302986241
0	10679	66.54142695539	0.024523486476
0	10684	66.565950441866	0.044382517335
0	10690	66.610332959201	0.017440108602
0	10695	66.627773067803	0.014330375943
0	10701	66.642103443746	0.01741144921
0	10708	66.659514892956	0.045538942325
0	10714	66.705053835281	0.05538192276
0	10719	66.760435758041	0.059096723981
0	10724	66.819532482022	0.042853406259
0	10729	66.862385888281	0.008591431875
0	10734	66.870977320156	0.013442505009
0	10739	66.884419825165	0.127494839081
0	10745	67.011914664246	0.128539585483
0	10752	67.140454249729	0.006200754382
0	10754	67.146655004111	0.077761152087
0	10763	67.224416156198	0.012028638475
0	10768	67.236444794673	0.042247490632
0	10773	67.278692285305	0.006937046219
0	10775	67.285629331524	0.020342255609
0	10783	67.305971587133	0.014836231911
0	10790	67.320807819044	0.008130687745
0	10796	67.328938506789	0.022891524688
0	10801	67.351830031477	0.0382731782
0	10807	67.390103209677	0.025847938796
0	10813	67.415951148473	0.049069193145
0	10818	67.465020341618	0.067250887759
0	10825	67.532271229377	0.032428791869
0	10832	67.564700021246	0.07707939559
0	10837	67.641779416836	0.023954662955
0	10842	67.665734079791	0.00870080835
0	10847	67.674434888141	0.004396362227
0	10849	67.678831250368	0.034133016485
0	10857	67.712964266853	0.053755270302
0	10862	67.766719537155	0.004137566826
0	10864	67.770857103981	0.023676445795
0	10872	67.794533549776	0.021499809752
0	10877	67.816033359528	0.067372754318
0	10882	67.883406113846	0.013618502044
0	10887	67.89702461589	0.005068564707
0	10889	67.902093180597	0.013318539853
0	10897	67.91541172045	0.117423753278
0	10902	68.032835473728	0.023061799139
0	10909	68.055897272867	0.023649581052
0	10914	68.079546853919	0.045804330591
0	10919	68.12535118451	0.00262854098
0	10921	68.12797972549	0.002509227632
0	10923	68.130488953122	0.011503172018
0	10931	68.14199212514	0.07396893995
0	10939	68.21596106509	0.081505406051
0	10945	68.297466471141	0.046456304037
0	10950	68.343922775178	0.014227239865
0	10955	68.358150015043	0.006796684257
0	10957	68.3649466993	0.12282076132
0	10967	68.48776746062	0.097983296896
0	10972	68.585750757516	0.020552187995
0	10977	68.606302945511	0.024704819829
0	10983	68.63100776534	0.016007526901
0	10988	68.647015292241	0.299635639076
0	10995	68.946650931317	0.05458429486
0	11002	69.001235226177	0.007690331093
0	11004	69.00892555727	0.022031026547
0	11007	69.030956583817	0.026793216585
0	11013	69.057749800402	0.002750097943
0	11015	69.060499898345	0.011999390405
0	11023	69.07249928875	0.061780662285
0	11035	69.134279951035	0.012692925456
0	11040	69.146972876491	0.054699804404
0	11046	69.201672680895	0.031296999658
0	11051	69.232969680553	0.025325711883
0	11056	69.258295392436	0.089160793781
0	11061	69.347456186217	0.000340567708
0	11063	69.347796753925	0.057263840921
0	11071	69.405060594846	0.005130852739
0	11073	69.410191447585	0.045049973703
0	11081	69.455241421288	0.043566672758
0	11086	69.498808094046	0.028668659019
0	11091	69.527476753065	0.031279216211
0	11096	69.558755969276	0.089420827641
0	11101	69.648176796917	0.042144240604
0	11108	69.690321037521	0.02372949326
0	11114	69.714050530781	0.015671189617
0	11119	69.729721720398	0.072454981836
0	11124	69.802176702234	0.034739919125
0	11130	69.836916621359	0.062847992859
0	11135	69.899764614218	0.01997179653
0	11140	69.919736410748	0.008420615971
0	11145	69.928157026719	0.018693359579
0	11150	69.946850386298	0.05162564101
0	11155	69.998476027308	0.018766971655
0	11161	70.017242998963	0.00042860436
0	11163	70.017671603323	0.001140322875
0	11165	70.018811926198	0.013644128628
0	11173	70.032456054826	0.002202706865
0	11175	70.034658761691	0.009128110468
0	11180	70.043786872159	0.066240696517
0	11195	70.110027568676	0.024743885742
0	11200	70.134771454418	0.041620882608
0	11205	70.176392337026	0.046726507951
0	11212	70.223118844977	0.00916648567
0	11217	70.232285330647	0.003597371121
0	11219	70.235882701768	0.004399741107
0	11224	70.240282442875	0.025320610002
0	11232	70.265603052877	0.001454674158
0	11234	70.267057727035	0.097555102144
0	11244	70.364612829179	0.022867721352
0	11249	70.387480550531	0.009086300289
0	11254	70.39656685082	0.031032824711
0	11259	70.427599675531	0.039568901054
0	11265	70.467168576585	0.079882269775
0	11271	70.54705084636	0.031452678414
0	11277	70.578503524774	0.088519600399
0	11282	70.667023125173	0.000354013647
0	11284	70.66737713882	0.0159632118
0	11292	70.68334035062	0.022607618375
0	11297	70.705947968995	0.093496363465
0	11305	70.79944433246	0.043177514716
0	11310	70.842621847176	0.027621025802
0	11315	70.870242872978	0.001574008378
0	11317	70.871816881356	0.029873608462
0	11327	70.901690489818	0.074069934681
0	11332	70.975760424499	0.006887596314
0	11334	70.982648020813	0.025694858572
0	11342	71.008342879385	0.004309952742
0	11345	71.012652832127	0.001089932671
0	11347	71.013742764798	0.009807401734
0	11355	71.023550166532	0.00889475695
0	11360	71.032444923482	0.004645166045
0	11362	71.037090089527	0.107523102408
0	11373	71.144613191935	0.008844163192
0	11378	71.153457355127	0.03055636681
0	11383	71.184013721937	0.027164311217
0	11388	71.211178033154	0.003979430995
0	11390	71.215157464149	0.070941043498
0	11398	71.286098507647	0.011866323968
0	11403	71.297964831615	0.055463999739
0	11409	71.353428831354	0.021353510577
0	11414	71.374782341931	0.001151194443
0	11416	71.375933536374	0.000741042115
0	11418	71.376674578489	0.041971149362
0	11429	71.418645727851	0.018563113271
0	11434	71.437208841122	0.001677267098
0	11436	71.43888610822	0.023529926408
0	11444	71.462416034628	0.217960125879
0	11452	71.680376160507	0.00977507657
0	11457	71.690151237077	0.053655224202
0	11462	71.743806461279	0.031089943576
0	11468	71.774896404855	0.009210631381
0	11473	71.784107036236	0.048976884685
0	11478	71.833083920921	0.023574627666
0	11483	71.856658548587	0.009413968492
0	11488	71.866072517079	0.047704066609
0	11493	71.913776583688	0.033911514101
0	11498	71.947688097789	0.064098054304
0	11506	72.011786152093	0.035721086963
0	11508	72.047507239056	0.009095868323
0	11512	72.056603107379	0.103843471448
0	11525	72.160446578827	0.005033397418
0	11527	72.165479976245	0.052721293179
0	11536	72.218201269424	0.093616578785
0	11543	72.311817848209	0.066015208941
0	11548	72.37783305715	0.038884067123
0	11553	72.416717124273	0.023595888031
0	11558	72.440313012304	0.073142086069
0	11564	72.513455098373	0.007174824092
0	11566	72.520629922465	0.009256259667
0	11574	72.529886182132	0.191671159799
0	11580	72.721557341931	0.004821776524
0	11582	72.726379118455	0.004848264474
0	11587	72.731227382929	0.015094916625
0	11595	72.746322299554	0.022317110174
0	11600	72.768639409728	0.010195096919
0	11605	72.778834506647	0.002468282761
0	11607	72.781302789408	0.002643776132
0	11609	72.78394656554	0.100791032347
0	11620	72.884737597887	0.036195993357
0	11625	72.920933591244	0.1172592787
0	11633	73.038192869944	0.010125476486
0	11639	73.04831834643	0.044477514178
0	11645	73.092795860608	0.020938582537
0	11651	73.113734443145	0.015077016958
0	11657	73.128811460103	0.01190348541
0	11662	73.140714945513	0.010273984117
0	11667	73.15098892963	0.088926020301
0	11674	73.239914949931	0.010790414294
0	11679	73.250705364225	0.020937608117
0	11684	73.271642972342	0.004765480068
0	11686	73.27640845241	0.074167448348
0	11695	73.350575900758	0.026115074895
0	11700	73.376690975653	0.001575506829
0	11702	73.378266482482	0.005352838286
0	11704	73.383619320768	0.026860537306
0	11715	73.410479858074	0.013330315403
0	11721	73.423810173477	0.021098486653
0	11727	73.44490866013	0.034488658559
0	11732	73.479397318689	0.013814492973
0	11737	73.493211811662	0.045509685531
0	11744	73.538721497193	0.01249309727
0	11747	73.551214594463	0.000860025102
0	11749	73.552074619565	0.010861221515
0	11754	73.56293584108	0.019681284874
0	11765	73.582617125954	0.007789447294
0	11770	73.590406573248	0.036956881476
0	11778	73.627363454724	0.023748184197
0	11786	73.651111638921	0.067164909864
0	11793	73.718276548785	0.014816564212
0	11798	73.733093112997	0.022574154319
0	11803	73.755667267316	0.014048099633
0	11809	73.769715366949	0.121815099713
0	11820	73.891530466662	0.002397523862
0	11822	73.893927990524	0.010806101878
0	11827	73.904734092402	0.000488672389
0	11829	73.905222764791	0.00047602716
0	11831	73.905698791951	0.084928394569
0	11852	73.99062718652	0.023140938944
0	11857	74.013768125464	0.018690816925
0	11862	74.032458942389	0.010355352252
0	11867	74.042814294641	0.039558429362
0	11874	74.082372724003	0.060748395733
0	11883	74.143121119736	0.021077290292
0	11889	74.164198410028	0.00927402475
0	11894	74.173472434778	0.007837933616
0	11899	74.181310368394	0.013019160295
0	11904	74.194329528689	0.092812671889
0	11914	74.287142200578	0.054827843181
0	11919	74.341970043759	0.004580202752
0	11922	74.346550246511	0.043951910163
0	11930	74.390502156674	0.022980112487
0	11937	74.413482269161	0.028579646588
0	11943	74.442061915749	0.003367402296
0	11945	74.445429318045	0.042721135515
0	11955	74.48815045356	0.009114877432
0	11960	74.497265330992	0.01898328928
0	11968	74.516248620272	0.040477526815
0	11977	74.556726147087	0.000186346944
0	11979	74.556912494031	0.026159653643
0	11988	74.583072147674	0.000399703029
0	11990	74.583471850703	0.027952009065
0	11998	74.611423859768	0.025054625656
0	12006	74.636478485424	0.062482494115
0	12016	74.698960979539	0.003043781219
0	12018	74.702004760758	0.002194625029
0	12020	74.704199385787	0.00183491066
0	12022	74.706034296447	0.082321955978
0	12040	74.788356252425	0.117854740927
0	12046	74.906210993352	0.036866746474
0	12051	74.943077739826	0.068565494217
0	12060	75.011643234043	0.035846117265
0	12065	75.047489351308	0.005771736458
0	12068	75.053261087766	0.001073585649
0	12070	75.054334673415	2.3255268e-005
0	12072	75.054357928683	0.084306345924
0	12086	75.138664274607	0.099456033455
0	12091	75.238120308062	0.000993333207
0	12093	75.239113641269	0.011416327913
0	12098	75.250529969182	0.007179094143
0	12103	75.257709063325	0.007198419199
0	12108	75.264907482524	0.079187878133
0	12116	75.344095360657	0.041162090453
0	12122	75.38525745111	0.004742773967
0	12124	75.390000225077	0.004035598835
0	12129	75.394035823912	0.01776173574
0	12138	75.411797559652	0.010759285256
0	12144	75.422556844908	0.049956247763
0	12150	75.472513092671	0.129243580242
0	12157	75.601756672913	0.028969563762
0	12162	75.630726236675	0.035705602148
0	12167	75.666431838823	0.045888691228
0	12176	75.712320530051	0.025738378483
0	12182	75.738058908534	0.007498432263
0	12187	75.745557340797	0.017757692963
0	12193	75.76331503376	0.018589113169
0	12199	75.781904146929	0.052130377954
0	12204	75.834034524883	0.024147500013
0	12209	75.858182024896	0.005317790051
0	12211	75.863499814947	0.00977256134
0	12219	75.873272376287	0.119753786116
0	12225	75.993026162403	0.216096897553
0	12234	76.209123059956	0.069095834161
0	12239	76.278218894117	0.038921711022
0	12244	76.317140605139	0.033650298706
0	12249	76.350790903845	0.07532929364
0	12257	76.426120197485	0.001534885508
0	12259	76.427655082993	0.017471011368
0	12268	76.445126094361	0.042239015745
0	12273	76.487365110106	0.090584678323
0	12280	76.577949788429	0.085579229459
0	12285	76.663529017888	0.010144870246
0	12290	76.673673888134	0.026024267056
0	12295	76.69969815519	0.006014307418
0	12297	76.705712462608	0.015305634961
0	12305	76.721018097569	0.054103217312
0	12311	76.775121314881	0.004485200506
0	12313	76.779606515387	0.126438709012
0	12324	76.906045224399	0.049213273097
0	12329	76.955258497496	0.002241523132
0	12331	76.957500020628	0.075705461967
0	12340	77.033205482595	0.003687722233
0	12342	77.036893204828	0.003697409644
0	12344	77.040590614472	0.013390155592
0	12352	77.053980770064	0.049801299152
0	12362	77.103782069216	0.026125556538
0	12367	77.129907625754	0.00060226926
0	12369	77.130509895014	0.042640947166
0	12377	77.17315084218	0.119451964194
0	12384	77.292602806374	0.108969093816
0	12389	77.40157190019	0.033413193387
0	12394	77.434985093577	0.004387560193
0	12396	77.43937265377	0.028137989871
0	12404	77.467510643641	0.015419102306
0	12410	77.482929745947	0.01228169851
0	12415	77.495211444457	0.010837162902
0	12420	77.506048607359	0.092721717335
0	12428	77.598770324694	0.057653260106
0	12434	77.6564235848	0.010819119157
0	12439	77.667242703957	0.006250966507
0	12441	77.673493670464	0.061638974027
0	12449	77.735132644491	0.073299360664
0	12456	77.808432005155	0.14724418171
0	12462	77.955676186865	0.052007888923
0	12468	78.007684075788	0.053539060213
0	12474	78.061223136001	0.075341098687
0	12480	78.136564234688	0.025615346383
0	12485	78.162179581071	0.121771796927
0	12490	78.283951377998	0.002392542423
0	12492	78.286343920421	0.02982040171
0	12500	78.316164322131	0.022380504769
0	12507	78.3385448269	0.021463768253
0	12512	78.360008595153	0.020184813428
0	12517	78.380193408581	0.023227668633
0	12523	78.403421077214	0.007932565145
0	12528	78.411353642359	0.079054220846
0	12534	78.490407863205	0.019282619109
0	12539	78.509690482314	0.00819199662
0	12544	78.517882478934	0.015497647272
0	12549	78.533380126206	0.016469756667
0	12554	78.549849882873	0.00625621687
0	12556	78.556106099743	0.035868113572
0	12565	78.591974213315	0.02037963659
0	12570	78.612353849905	0.04406136018
0	12576	78.656415210085	0.010671359801
0	12581	78.667086569886	0.002030820091
0	12583	78.669117389977	0.025839629512
0	12591	78.694957019489	0.133830395078
0	12599	78.828787414567	0.001252757045
0	12601	78.830040171612	0.014092643764
0	12609	78.844132815376	0.08284239156
0	12616	78.926975206936	0.008076314294
0	12621	78.93505152123	0.059318049859
0	12626	78.994369571089	0.012844120726
0	12631	79.007213691815	0.028149117424
0	12637	79.035362809239	0.146462760866
0	12646	79.181825570105	0.066823767148
0	12652	79.248649337253	0.038652608391
0	12657	79.287301945644	0.114821706268
0	12664	79.402123651912	0.009849200703
0	12669	79.411972852615	0.004099229367
0	12671	79.416072081982	0.007858007923
0	12676	79.423930089905	0.034877602916
0	12684	79.458807692821	0.002724687197
0	12686	79.461532380018	0.217406503174
0	12697	79.678938883192	0.015796255495
0	12702	79.694735138687	0.154477928647
0	12709	79.849213067334	0.060755442329
0	12715	79.909968509663	0.032362152192
0	12721	79.942330661855	0.011275962839
0	12726	79.953606624694	0.004794642704
0	12728	79.958401267398	0.016087505982
0	12736	79.97448877338	0.030629605495
0	12741	80.005118378875	0.050159220367
0	12747	80.055277599242	7.2336805e-005
0	12749	80.055349936047	0.041669347887
0	12757	80.097019283934	0.007762427727
0	12759	80.104781711661	0.018611807612
0	12767	80.123393519273	0.109422902542
0	12772	80.232816421815	0.00628280436
0	12774	80.239099226175	0.014039737235
0	12782	80.25313896341	0.078476112999
0	12788	80.331615076409	0.035601625246
0	12793	80.367216701655	0.029953396209
0	12798	80.397170097864	0.011539448198
0	12803	80.408709546062	0.010386137503
0	12808	80.419095683565	0.103358225072
0	12813	80.522453908637	0.009457773483
0	12818	80.53191168212	0.045640332255
0	12823	80.577552014375	0.020821715868
0	12828	80.598373730243	0.013998496414
0	12833	80.612372226657	0.018062965399
0	12838	80.630435192056	0.054917479655
0	12845	80.685352671711	0.002497866372
0	12847	80.687850538083	0.004006615529
0	12849	80.691857153612	0.100352212545
0	12860	80.792209366157	0.017433678559
0	12865	80.809643044716	0.054118674525
0	12870	80.863761719241	0.008750849995
0	12875	80.872512569236	0.024019350513
0	12880	80.896531919749	0.040290171745
0	12885	80.936822091494	0.013855289789
0	12890	80.950677381283	0.003782880755
0	12892	80.954460262038	0.007008853422
0	12898	80.96146911546	0.017705832577
0	12906	80.979174948037	0.006365419973
0	12908	80.98554036801	0.011335159757
0	12916	80.996875527767	0.009627880982
0	12922	81.006503408749	0.024706996085
0	12924	81.031210404834	0.008719861331
[...]
23	48702	307.987599800091	0.55895739720434
23	48803	308.546557197295	1.0263212538081
23	49002	309.572878451103	0.55837282414016
23	49124	310.131251275243	0.5785309012101
23	49231	310.709782176453	0.32466061734193
23	49290	311.034442793795	4.2615685077941
23	50037	315.296011301589	0.517538354055
23	50115	315.813549655644	0.27882963253486
23	50160	316.092379288179	4.630933818017
23	50927	320.723313106196	0.84543106870632
23	51065	321.568744174902	0.58975630804491
23	51155	322.158500482947	1.425492140159
23	51385	323.583992623106	0.5183302827941
23	51472	324.1023229059	0.26497494524904
23	51526	324.367297851149	0.67788637243832
23	51638	325.045184223587	0.13278845117369
23	51680	325.177972674761	1.3512587130827
23	51849	326.529231387844	0.5754570948023
23	51980	327.104688482646	0.84352752051243
23	52126	327.948216003158	0.021864909637454
23	52132	327.970080912795	0.60230434367264
23	52228	328.572385256468	0.33861933965901
23	52281	328.911004596127	0.45233368372738
23	52355	329.363338279854	0.5852866115323
23	52423	329.948624891386	4.746309517976
23	53307	334.694934409362	0.20672061599297
23	53346	334.901655025355	1.6139552336879
23	53658	336.515610259043	0.74411958513031
23	53789	337.259729844173	0.98503870975712
23	54003	338.24476855393	0.027455464941022
23	54012	338.272224018871	1.3577046061901
23	54286	339.629928625061	0.6472881294183
23	54380	340.277216754479	0.0081198671748602
23	54381	340.285336621654	1.0132907083054
23	54532	341.298627329959	0.59914789807117
23	54655	341.89777522803	1.408230117987
23	54834	343.306005346017	0.72617607225663
23	54922	344.032181418274	0.6548199859832
23	55031	344.687001404257	0.91209028285143
23	55156	345.599091687108	0.11524233257907
23	55172	345.714334019687	1.0228765555257
23	55320	346.737210575213	1.9962373149076
23	55656	348.733447890121	0.17021467250113
23	55698	348.903662562622	1.5468095761447
23	55876	350.450472138767	0.56602689336054
23	55964	351.016499032128	0.033439875726896
23	55967	351.049938907855	0.34007282905863
23	56043	351.390011736914	0.47363325734462
23	56155	351.863644994259	0.090785769099708
23	56174	351.954430763359	1.8265866338605
23	56470	353.78101739722	0.094352484795462
23	56496	353.875369882015	1.0511333437237
23	56706	354.926503225739	0.17500759288793
23	56742	355.101510818627	0.4986761719883
23	56808	355.600186990615	0.11180903654053
23	56838	355.711996027156	0.47975445988931
23	56895	356.191750487045	0.27881425264275
23	56926	356.470564739688	1.0088564673468
23	57032	357.479421207035	0.0094297455291515
23	57035	357.488850952564	0.27731784998994
23	57056	357.766168802554	0.57459928934381
23	57120	358.340768091898	0.83765261516914
23	57268	359.178420707067	3.0747713588692
23	57741	362.253192065936	2.2815816397705
23	58115	364.534773705707	0.30854419027933
23	58195	364.843317895986	2.6218223263402
23	58604	367.465140222326	0.63031172488637
23	58697	368.095451947212	0.85270331730344
23	58794	368.948155264515	0.77376400468018
23	58907	369.721919269195	0.078639366660445
23	58920	369.800558635855	0.11981330170305
23	58956	369.920371937558	0.67106998074287
23	59074	370.591441918301	0.86018950827604
23	59189	371.451631426577	0.044944678907242
23	59196	371.496576105484	1.0401903620623
23	59332	372.536766467546	0.56378927749546
23	59419	373.100555745041	0.62075277463987
23	59543	373.721308519681	0.74260640570068
23	59678	374.463914925382	0.3992392274992
23	59721	374.863154152881	1.852328525256
23	59946	376.715482678137	1.2686556552804
23	60175	377.984138333417	1.5897698638956
23	60399	379.573908197313	0.4210678388266
23	60488	379.99497603614	4.9306444668776
23	61216	384.925620503018	0.35923964885634
23	61261	385.284860151874	1.10915280706
23	61450	386.394012958934	1.3745705658817
23	61642	387.768583524816	2.8208554080057
23	62161	390.589438932822	0.45157763164851
23	62210	391.041016564471	1.6618504877112
23	62468	392.702867052182	2.5752290277002
23	62875	395.278096079882	1.8137552924469
23	63115	397.091851372329	0.18171281510329
23	63151	397.273564187432	1.3113902506107
23	63334	398.584954438043	2.7772557168719
24	2380	14.694997286335	0.43967405442543
24	2432	15.13467134076	0.87391368060988
24	2576	16.00858502137	2.458953234254
24	3007	18.467538255624	1.0831760170536
24	3130	19.550714272678	0.14381749864963
24	3141	19.694531771328	0.64787444522696
24	3220	20.342406216555	0.91374390912158
24	3353	21.256150125677	0.42501177435329
24	3396	21.68116190003	2.2551838808788
24	3819	23.936345780909	0.7688490026619
24	3946	24.705194783571	1.2023761550254
24	4167	25.907570938596	0.33631747386842
24	4225	26.243888412464	0.026738453737199
24	4226	26.270626866201	0.79739014047039
24	4323	27.068017006671	1.0308922230364
24	4487	28.098909229707	1.6038809522826
24	4802	29.70279018199	0.019167659521677
24	4804	29.721957841512	1.1039074314704
24	4977	30.825865272982	0.95517338546873
24	5090	31.781038658451	1.3620390347451
24	5312	33.143077693196	1.5010455147374
24	5509	34.644123207933	0.5352208710624
24	5600	35.179344078995	1.3340835296095
24	5838	36.513427608604	1.8451455877055
24	6182	38.358573196309	3.3461597666097
24	6680	41.704732962919	0.13378121731505
24	6699	41.838514180234	1.6354305130042
24	6950	43.473944693238	1.4106403630445
24	7103	44.884585056283	0.25956152164633
24	7169	45.144146577929	0.19169675516239
24	7207	45.335843333091	0.1609628772843
24	7226	45.496806210375	1.0284868503347
24	7397	46.52529306071	0.30040318238211
24	7427	46.825696243092	1.1789525800171
24	7639	48.004648823109	1.4368942026365
24	7899	49.441543025746	0.23145140511917
24	7937	49.672994430865	1.9083310872842
24	8279	51.581325518149	1.3021846350405
24	8507	52.88351015319	0.45552742292915
24	8596	53.339037576119	1.1846688142406
24	8736	54.52370639036	1.0982746432218
24	8900	55.621981033582	0.56586821992889
24	9019	56.187849253511	0.62259414149864
24	9142	56.81044339501	0.30207856352281
24	9187	57.112521958533	0.28710848763945
24	9230	57.399630446172	2.894239018021
24	9753	60.293869464193	0.47481906243599
24	9814	60.768688526629	1.1819955072578
24	10018	61.950684033887	0.44241683776017
24	10063	62.393100871647	0.45454931891953
24	10142	62.847650190567	0.22646036263016
24	10163	63.074110553197	0.29202058535558
24	10209	63.366131138553	1.4689553163513
24	10428	64.835086454904	0.32887675279091
24	10480	65.163963207695	1.4887143856679
24	10706	66.652677593363	0.74059383642616
24	10809	67.393271429789	1.0636546405962
24	10965	68.456926070385	2.3252868339298
24	11304	70.782212904315	0.10366043279066
24	11326	70.885873337106	2.3418059020736
24	11672	73.22767923918	0.10102625884345
24	11694	73.328705498023	0.17695610968153
24	11743	73.505661607705	0.26730608724886
24	11811	73.772967694954	0.35599127566208
24	11881	74.128958970616	1.540569013254
24	12169	75.66952798387	0.01893631190737
24	12175	75.688464295777	0.036440956845967
24	12181	75.724905252623	0.4173503927332
24	12233	76.142255645356	0.61278315833401
24	12310	76.75503880369	0.71631084956748
24	12406	77.471349653257	0.66275855237338
24	12479	78.13410820563	0.19938836478075
24	12505	78.333496570411	0.38257680013063
24	12596	78.716073370542	2.4027359873877
24	12951	81.11880935793	3.3088835253282
24	13466	84.427692883258	0.045799947292815
24	13473	84.473492830551	0.79051522104153
24	13597	85.264008051593	0.45950411592172
24	13680	85.723512167515	0.83036033772336
24	13786	86.553872505238	0.41206628109016
24	13829	86.965938786328	0.56935441232993
24	13937	87.535293198658	1.6196347301959
24	14178	89.154927928854	1.0601953145557
24	14273	90.21512324341	3.0219480392146
24	14710	93.237071282625	1.2610668953184
24	14893	94.498138177943	0.89619174981765
24	15023	95.394329927761	0.99652273358377
24	15249	96.390852661345	0.70122360129927
24	15365	97.092076262644	0.22800043211589
24	15396	97.32007669476	2.5647648599224
24	15749	99.884841554682	0.2194257901292
24	15788	100.104267344811	0.075074174006745
24	15810	100.179341518818	1.8715023302867
24	16071	102.050843849105	1.6740708157717
24	16325	103.724914664877	0.34313596820716
24	16386	104.068050633084	0.50651879387211
24	16450	104.574569426956	0.80047788627469
24	16556	105.375047313231	0.023379542739996
24	16557	105.398426855971	0.22076592246664
24	16611	105.619192778438	0.61520895590748
24	16722	106.234401734345	0.81563957813097
24	16812	107.050041312476	0.31363213314067
24	16861	107.363673445617	2.0828179506439
24	17157	109.446491396261	0.53071900523094
24	17238	109.977210401492	1.2025960267008
24	17456	111.179806428193	3.3847585772752
24	17953	114.564565005468	1.0970666756907
24	18105	115.661631681159	0.37668555152446
24	18186	116.038317232683	1.0293998116844
24	18373	117.067717044367	0.35904213878779
24	18442	117.426759183155	1.6546686111387
24	18662	119.081427794294	0.8645233433949
24	18819	119.945951137689	0.97827579882918
24	18952	120.924226936518	0.15014531699878
24	18982	121.074372253517	0.22096165563113
24	19027	121.295333909148	0.16655150753998
24	19053	121.461885416688	0.96661869152468
24	19232	122.428504108213	0.12062524160867
24	19255	122.549129349822	1.2619321597628
24	19446	123.811061509585	0.42076903418356
24	19568	124.231830543769	0.59753499212284
24	19664	124.829365535892	0.8900862005824
24	19898	125.719451736474	0.79972053180049
24	20034	126.519172268274	0.002064370661587
24	20035	126.521236638936	0.11136726403573
24	20068	126.632603902972	3.4465875157536
24	20463	130.079191418726	1.7328147055348
24	20712	131.812006124261	1.9551261244179
24	21039	133.767132248679	0.19550659096755
24	21075	133.962638839647	0.46043680483943
24	21161	134.423075644486	0.10039243872885
24	21175	134.523468083215	2.2021118775762
24	21524	136.725579960791	2.4909005567922
24	21953	139.216480517583	0.69920832050737
24	22043	139.91568883809	1.5821694797552
24	22257	141.497858317845	0.19892737080419
24	22288	141.696785688649	0.23957348415343
24	22317	141.936359172802	0.56160576231797
24	22408	142.49796493512	0.99236575872442
24	22576	143.490330693844	4.5408052440417
24	23353	148.031135937886	2.8359861518048
24	23825	150.867122089691	0.7829032118118
24	23912	151.650025301503	2.0518178415507
24	24264	153.701843143054	0.21175914948661
24	24299	153.913602292541	0.34369635332662
24	24348	154.257298645868	0.25374506976215
24	24385	154.51104371563	0.90129391528681
24	24488	155.412337630917	0.75680430359851
24	24614	156.169141934516	0.54432891150694
24	24689	156.713470846023	1.3768623351454
24	24923	158.090333181168	0.50079110488677
24	25005	158.591124286055	1.0713025409
24	25105	159.662426826955	0.24098539849751
24	25142	159.903412225453	0.07284780326741
24	25154	159.97626002872	0.46009424076122
24	25218	160.436354269481	1.4939741345013
24	25394	161.930328403982	1.5469250630909
24	25614	163.477253467073	0.55150367927992
24	25681	164.028757146353	0.090216255147249
24	25690	164.1189734015	0.78864422907128
24	25823	164.907617630571	0.0022114824650703
24	25824	164.909829113036	0.38967957484725
24	25890	165.299508687883	0.63769673071544
24	25958	165.937205418598	0.69746982640828
24	26060	166.634675245006	0.2786331023127
24	26122	166.913308347319	1.4191716668678
24	26330	168.332480014187	1.7716304889801
24	26553	170.104110503167	0.33573195325522
24	26631	170.439842456422	0.013087224662335
24	26632	170.452929681084	0.26129694828606
24	26675	170.71422662937	1.243939162538
24	26929	171.958165791908	0.24326237809894
24	26964	172.201428170007	0.62928176437138
24	27107	172.830709934378	0.13888299362812
24	27165	172.969592928006	0.75121394833068
24	27297	173.720806876337	0.17549031122213
24	27321	173.896297187559	0.25206058943553
24	27351	174.148357776995	3.1601748860203
24	27783	177.308532663015	0.5094635773275
24	27919	177.817996240342	0.74674600786
24	28013	178.564742248202	0.36860803612323
24	28091	178.933350284325	2.0355456767714
24	28455	180.968895961096	1.8784569217655
24	28694	182.847352882862	0.014343611822061
24	28702	182.861696494684	0.94619426153017
24	28826	183.807890756214	0.29386985076195
24	28883	184.101760606976	0.14062126264717
24	28902	184.242381869623	0.23701520978002
24	28936	184.479397079403	0.51290908775787
24	29018	184.992306167161	1.5966678297238
24	29273	186.588973996885	2.9183480702779
24	29718	189.507322067163	1.036747706949
24	29834	190.544069774112	0.44460122537837
24	29933	190.98867099949	0.11285081626084
24	29941	191.101521815751	1.9186828718499
24	30217	193.020204687601	4.1020930957407
24	30853	197.122297783342	1.1439714823622
24	31028	198.266269265704	0.0077133535963422
24	31030	198.2739826193	0.42563441205148
24	31107	198.699617031351	0.07978549046651
24	31147	198.779402521818	3.8911892172735
24	31732	202.670591739091	0.90327891175312
24	31842	203.573870650844	0.66969492051196
24	31952	204.243565571356	0.021341669000509
24	31955	204.264907240357	0.60021525656953
24	32036	204.865122496927	0.86715030005066
24	32190	205.732272796978	0.22992400611357
24	32233	205.962196803092	1.1844831858359
24	32458	207.146679988928	2.0847152987308
24	32741	209.231395287659	0.36300440413605
24	32788	209.594399691795	1.438281901161
24	33019	211.032681592956	0.88520887666374
24	33166	211.91789046962	0.55867712065575
24	33248	212.476567590276	0.025339160955372
24	33254	212.501906751231	4.1017514687894
24	33941	216.60365822002	1.4240492266165
24	34155	218.027707446636	1.536770162383
24	34353	219.564477609019	0.57840377377262
24	34473	220.142881382792	0.59084662944018
24	34541	220.733728012232	1.8122246800499
24	34813	222.545952692282	0.20571318473858
24	34851	222.751665877021	5.2881247296081
24	35768	228.039790606629	1.736366380609
24	36066	229.776156987238	0.89037256484805
24	36224	230.666529552086	0.56651810619065
24	36280	231.233047658277	0.14435578748677
24	36308	231.377403445764	0.7711589101986
24	36403	232.148562355963	1.1613581055114
24	36588	233.309920461474	0.41517290763806
24	36643	233.725093369112	3.8587749080143
24	37230	237.583868277126	0.48501731725522
24	37297	238.068885594381	2.0975816350447
24	37609	240.166467229426	1.2333321209811
24	37745	241.399799350407	1.9450689312616
24	38037	243.344868281669	1.7837545334246
24	38331	245.128622815094	0.92474056271148
24	38512	246.053363377805	0.65734173890445
24	38674	246.710705116709	1.607263945392
24	38895	248.317969062101	0.46617650174654
24	38972	248.784145563848	1.4147091881407
24	39157	250.198854751989	4.1487862986853
24	39931	254.347641050674	0.040019514874955
24	39938	254.387660565549	0.28424401404152
24	39986	254.671904579591	0.023442162593833
24	39992	254.695346742185	0.53883627326766
24	40065	255.234183015453	2.6126667692375
24	40472	257.84684978469	0.095183037582624
24	40491	257.942032822273	0.018965354411358
24	40495	257.960998176684	0.301439627901
24	40582	258.262437804585	1.5689851925308
24	40841	259.831422997116	0.30779299851768
24	40872	260.139215995634	0.37954596121533
24	40936	260.518761956849	3.8050220379814
24	41526	264.32378399483	2.3850012454905
24	41976	266.70878524032	0.22497486266822
24	42003	266.933760102988	1.629010148057
24	42184	268.562770251045	0.45414349797611
24	42258	269.016913749021	2.5625231541937
24	42644	271.579436903215	1.4916391247187
24	42924	273.071076027934	1.6850318563572
24	43220	274.756107884291	0.16172219826826
24	43242	274.917830082559	0.37688421433784
24	43323	275.294714296897	1.5125375378966
24	43582	276.807251834794	1.1695016278856
24	43786	277.97675346268	0.7406399304006
24	43912	278.717393393081	0.1358840676564
24	43933	278.853277460737	0.18194380669387
24	43945	279.035221267431	1.4773792075242
24	44249	280.512600474955	0.49749715049356
24	44315	281.010097625449	0.68524779171804
24	44434	281.695345417167	0.20708425032232
24	44450	281.902429667489	1.2895874497844
24	44653	283.192017117273	0.25326462217148
24	44689	283.445281739444	0.86350039528516
24	44854	284.308782134729	3.5073362183197
24	45385	287.816118353049	0.9639987344029
24	45501	288.780117087452	0.022089883200136
24	45514	288.802206970652	1.5310954843819
24	45772	290.333302455034	0.7346670150558
24	45914	291.06796947009	0.057519463365696
24	45929	291.125488933456	1.0699167774418
24	46084	292.195405710898	0.48936231999092
24	46158	292.684768030889	1.946945755157
24	46496	294.631713786046	1.6221585710215
24	46726	296.253872357067	0.50749174265349
24	46834	296.76136409972	0.6615304535558
24	46988	297.422894553276	3.2078941238656
24	47530	300.630788677142	0.011079071763467
24	47534	300.641867748905	0.32942060628504
24	47587	300.97128835519	0.66001416475114
24	47683	301.631302519941	1.669403694743
24	47971	303.300706214684	0.18962289904295
24	47994	303.490329113727	0.57338799281005
24	48068	304.063717106537	4.7677442572192
24	48843	308.831461363756	1.0787262407006
24	49052	309.910187604457	1.293825823103
24	49310	311.20401342756	0.4554909917481
24	49392	311.659504419308	1.4212390930873
24	49688	313.080743512395	1.3773879856937
24	49894	314.458131498089	3.6632412009744
24	50496	318.121372699063	0.2665354679025
24	50553	318.387908166965	0.21524959759701
24	50568	318.603157764562	1.4326897741784
24	50816	320.03584753874	1.9052929502416
24	51130	321.941140488982	0.70008762335905
24	51248	322.641228112341	0.99967892331654
24	51401	323.640907035658	0.1436517099835
24	51425	323.784558745641	1.2562885250057
24	51637	325.040847270647	2.373320571098
24	52033	327.414167841745	0.36620863377908
24	52086	327.780376475524	0.7124305782309
24	52214	328.492807053755	3.3157478971422
24	52775	331.808554950897	0.00090222306082665
24	52776	331.809457173958	1.2732047157466
24	52977	333.082661889705	0.040118023567567
24	52986	333.122779913273	0.061931472949913
24	52994	333.184711386223	0.66927000394999
24	53137	333.853981390173	1.486589417964
24	53446	335.340570808137	0.27178677620853
24	53495	335.612357584346	3.7934258613122
24	54237	339.405783445658	1.6602100890288
24	54481	341.065993534687	0.63175168053391
24	54611	341.697745215221	0.36197155631365
24	54683	342.059716771535	0.97418794417099
24	54798	343.033904715706	0.20974448128438
24	54830	343.24364919699	1.5594645591906
24	55037	344.803113756181	0.077723082809
24	55039	344.88083683899	0.8896160953299
24	55181	345.77045293432	0.32228241076551
24	55231	346.092735345086	1.2234940387595
24	55443	347.316229383846	3.409458060408
24	55896	350.725687444254	0.22386105096209
24	55943	350.949548495216	2.5564183181861
24	56430	353.505966813402	0.35053678800919
24	56487	353.856503601411	0.19342304202463
24	56537	354.049926643436	0.77102407563944
24	56682	354.820950719075	0.82252851030624
24	56819	355.643479229381	1.2855917792049
24	56999	356.929071008586	1.7733347708792
24	57176	358.702405779465	0.16995933561021
24	57205	358.872365115075	0.48610203345879
24	57319	359.358467148534	1.124410363339
24	57518	360.482877511873	1.0973677775434
24	57660	361.580245289416	0.61862690288173
24	57740	362.198872192298	0.92426228263046
24	57853	363.123134474928	1.0778993872494
24	58061	364.201033862177	3.8874537730683
24	58694	368.088487635245	2.977356381902
24	59140	371.065844017147	3.3728779077365
24	59674	374.438721924884	0.099630004666494
24	59688	374.53835192955	1.3017368666694
24	59838	375.840088796219	0.91150966237242
24	59948	376.751598458591	2.3197351225496
24	60337	379.071333581141	0.63148868194099
24	60426	379.702822263082	0.010527525332926
24	60432	379.713349788415	2.6363555599883
24	60861	382.349705348403	0.48949562505167
24	60911	382.839200973455	0.10050730321371
24	60941	382.939708276669	0.4051681124685
24	60979	383.344876389137	0.050667824391983
24	60987	383.395544213529	0.39547500514541
24	61036	383.791019218674	0.76468179852956
24	61151	384.555701017204	2.1448087596557
24	61490	386.70050977686	0.11026853266299
24	61507	386.810778309523	2.0728173181838
24	61849	388.883595627707	1.1658847216272
24	62064	390.049480349334	0.12128791935148
24	62083	390.170768268685	0.27137072165627
24	62143	390.442138990341	1.6817965604144
24	62365	392.123935550755	0.62268557893382
24	62484	392.746621129689	0.31556510829077
24	62503	393.06218623798	0.66095247382854
24	62599	393.723138711809	1.0476162640535
24	62777	394.770754975862	0.98372595101264
24	62933	395.754480926875	0.90546094481904
24	63066	396.659941871694	0.61537260438181
24	63152	397.275314476076	1.1814623719697
24	63320	398.456776848046	0.17141433155207
24	63337	398.628191179598	2.7404127243163

