file 21225363 1609699282                                        
version 2
run Exponential-selection-capacity-exponential-interarrival-time-9-20210103-19:41:12-21984
attr configname Exponential-selection-capacity-exponential-interarrival-time
attr datetime 20210103-19:41:12
attr experiment Exponential-selection-capacity-exponential-interarrival-time
attr inifile ../simulations/aerocom.ini
attr iterationvars ""
attr iterationvarsf ""
attr measurement ""
attr network Aerocom
attr processid 21984
attr repetition 9
attr replication #9
attr resultdir results
attr runnumber 9
attr seedset 9
param **.t 2s
param **.k 0.05s
param **.dataLink[*].s "70 byte"
param **.dataLink[*].X 8
param **.nDL 1
param **.dataLink[*].dimPoolMax 1500
param **.dataLink[*].dimPoolMin 1400
param **.tDistribution "\"exponential\""
param **.aircraft[*].m 8s
param **.aircraft[*].linkSelector.DLMaxCapacity 0
param **.aircraft[*].linkSelector.trasmitting false
param **.operationMode 0

vector 0 Aerocom.aircraft[0].dataLink[0] waitingTime:vector ETV
attr "" ""
attr source computeWaitingTime
vector 1 Aerocom.aircraft[0].dataLink[0] responseTime:vector ETV
attr "" ""
attr source computeResponseTime
vector 2 Aerocom.aircraft[0].packetGenerator arrivalTime:vector ETV
attr "" ""
attr source computeArrivalTime
vector 3 Aerocom.aircraft[0].dataLink[0] queueLength:vector ETV
attr "" ""
attr source computeQueueLength
2	1330 1434442 1007234 1172407 10000.04403111955 11643.823595544744 32768 7.49592e-07 0.662227156418 1643.8260350894 165.68585317273
3	1435772 1021619 1007236 1172409 10000.04403111955 11643.823595544744 32768 0 51 242697 3781485
0	2457391 1414385 1007232 1172472 10000.036785917044 11644.473369516708 32768 -1e-12 2.51627365073 12220.732695735 9050.0228217015
1	3871776 1434642 1007232 1172472 10000.036785917044 11644.473369516708 32768 0.046760187041 2.564251717899 13806.299189502 10311.584189387
2	5306418 1434472 1172412 1337610 11643.870066208987 13292.221290741894 32768 1.23074e-07 0.474405568667 1648.3579824896 167.36640240212
3	6740890 1020450 1172414 1337612 11643.870066208987 13292.221290741894 32768 0 41 212887 2731687
0	7761340 1413657 1172474 1337824 11644.520507563846 13294.165022284254 32768 -1e-12 1.957327091366 10812.014335067 6604.5459157649
1	9174997 1434700 1172474 1337824 11644.520507563846 13294.165022284254 32768 0.046760187041 2.005904468188 12394.882580137 7726.1841869276
2	10609697 1434394 1337613 1502940 13292.228048698567 14936.841752453259 32768 1.86905e-07 0.547188749841 1644.6217067773 164.47920397467
3	12044091 1020973 1337615 1502942 13292.228048698567 14936.841752453259 32768 0 51 218271 2992889
0	13065064 1414208 1337829 1502989 13294.213599661076 14937.321703621286 32768 -1e-12 2.405635999916 10989.785668046 6997.2817891864
1	14479272 1434704 1337829 1502989 13294.213599661076 14937.321703621286 32768 0.046728971963 2.454382518022 12574.418988015 8137.9478459006
0	15913976 1415028 1503000 1668172 14937.368905239627 16574.806605557869 32768 -3e-12 2.173527643305 11963.887837526 8275.8312886941
1	17329004 1434503 1503000 1668172 14937.368905239627 16574.806605557869 32768 0.046728971963 2.221341850954 13546.380998042 9508.6189691707
2	18763507 1434450 1502943 1668174 14936.849755475841 16574.830330067767 32768 1.042196e-06 0.522324523565 1638.0411909344 164.2049260742
3	20197957 1021876 1502945 1668176 14936.849755475841 16574.830330067767 32768 0 45 238815 3500905
0	21219833 1420 1668177 1668352 16574.855082012163 16577.117134929946 34 -1e-12 0.177982656816 1.805957297609 0.17720016104961
1	21221253 1488 1668177 1668352 16574.855082012163 16577.117134929946 34 0.048577376822 0.226763144621 3.476369745368 0.43649155894182
2	21222741 1537 1668179 1668347 16574.890946410262 16577.062639523525 35 0.001251656952 0.315091215405 2.257156002724 0.32978513513032
3	21224278 1084 1668181 1668349 16574.890946410262 16577.062639523525 35 0 3 32 68

