file 30743683 1609663452                                        
version 2
run Exponential-selection-capacity-exponential-interarrival-time-3-20210103-09:44:05-12448
attr configname Exponential-selection-capacity-exponential-interarrival-time
attr datetime 20210103-09:44:05
attr experiment Exponential-selection-capacity-exponential-interarrival-time
attr inifile aerocom.ini
attr iterationvars $0=5
attr iterationvarsf 5-
attr measurement $0=5
attr network Aerocom
attr processid 12448
attr repetition 0
attr replication #0
attr resultdir results
attr runnumber 3
attr seedset 0
param **.t 0.5s
param **.k 0.5s
param **.dataLink[*].s "70 byte"
param **.dataLink[*].X 5
param **.nDL 1
param **.dataLink[*].dimPoolMax 100
param **.dataLink[*].dimPoolMin 10
param **.tDistribution "\"exponential\""
param **.aircraft[*].m 1s
param **.aircraft[*].linkSelector.DLMaxCapacity 0
param **.aircraft[*].linkSelector.trasmitting false
param **.operationMode 0

vector 0 Aerocom.aircraft[0].dataLink[0] queueLength:vector ETV
attr "" ""
attr source computeQueueLength
vector 1 Aerocom.aircraft[0].dataLink[0] waitingTime:vector ETV
attr "" ""
attr source computeWaitingTime
vector 2 Aerocom.aircraft[0].dataLink[0] responseTime:vector ETV
attr "" ""
attr source computeResponseTime
0	1245 1012514 148731 390711 10000.335380543637 26319.464179132675 32768 0 21 50372 242678
1	1013759 1213826 148731 390726 10000.335380543637 26321 32768 -3e-012 7.643507815116 25152.881142467 49701.909723529
2	2227585 1241138 148731 390726 10000.335380543637 26321 32768 -3e-012 12.16734798706 53357.881142467 156567.5374605
0	3468723 1012584 390724 632455 26320.654348163831 42626.805892038358 32768 0 20 53599 270175
1	4481307 1226465 390739 632473 26321.742462656575 42627.292200011758 32768 -6e-012 9.393274457436 26627.890049069 56063.265360564
2	5707772 1258504 390739 632473 26321.742462656575 42627.292200011758 32768 -6e-012 12.235421003413 55055.89004907 165810.65436968
0	6966276 1012470 632459 873925 42626.988541140419 58847.523085822318 32768 0 19 51653 245671
1	7978746 1231112 632474 873973 42627.292200011758 58851 32768 -4e-012 8.437917250635 26033.230201995 52676.910981419
2	9209858 1264541 632474 873973 42627.292200011758 58851 32768 -4e-012 12.848917672565 54671.230201996 164023.47709542
0	10474399 1028424 873934 1116531 58848.041532348462 75301.923510937212 32768 0 22 51449 249179
1	11502823 1248197 873974 1116532 58851 75301.939255140966 32768 -1.2e-011 9.731242540427 25585.717010356 50783.809604824
2	12751020 1284006 873974 1116532 58851 75301.939255140966 32768 -1.2e-011 11.001490209782 53574.717010356 156833.83894384
0	14035026 1045294 1116542 1359288 75302.243373671363 91769.385324265298 32768 0 19 52387 256769
1	15080320 1265330 1116542 1359289 75302.243373671363 91769.484913320032 32768 -8e-012 8.165423804668 26381.180747637 54005.952172142
2	16345650 1301582 1116542 1359289 75302.243373671363 91769.484913320032 32768 -8e-012 10.409871615952 54754.180747636 163541.53164635
0	17647232 1061865 1359296 1602200 91770.205778160665 108287.039274660405 32768 0 23 50915 247241
1	18709097 1284897 1359306 1602200 91771 108287.039274660405 32768 -8e-012 8.578684965066 25286.546670845 49770.264910828
2	19993994 1321561 1359306 1602200 91771 108287.039274660405 32768 -8e-012 11.927323445641 52761.546670845 152002.91125503
0	21315555 1078178 1602207 1844570 108287.34256221346 124656.625134461921 32768 0 24 51558 252682
1	22393733 1298151 1602229 1844573 108288.327868321463 124657 32768 -8e-012 8.774029415414 25800.573799751 51875.160354908
2	23691884 1333855 1602229 1844573 108288.327868321463 124657 32768 -8e-012 10.828970678283 53750.57379975 159327.23821411
0	25025739 1078005 1844581 2088195 124657.390967877016 141264.539999955219 32768 0 17 48921 221795
1	26103744 1303936 1844581 2088208 124657.390967877016 141265.776019847672 32768 -2.4e-011 7.362693216944 24834.196547628 47312.381451611
2	27407680 1339626 1844581 2088208 124657.390967877016 141265.776019847672 32768 -2.4e-011 11.755412676188 52946.196547627 151448.77205316
0	28747306 576954 2088204 2217770 141265.128028657286 149999.848571743832 17535 0 21 27743 136889
1	29324260 700734 2088209 2217771 141265.776019847672 150000 17527 -2.4e-011 8.9644995944 13828.321690235 28064.176273852
2	30024994 718687 2088209 2217771 141265.776019847672 150000 17527 -2.4e-011 10.76263241207 28862.321690235 85394.123471445

