file 1757836 1613479587                                         
version 2
run Exponential-capacity-46-20210216-13:46:27-4304
attr configname Exponential-capacity
attr datetime 20210216-13:46:27
attr experiment Exponential-capacity
attr inifile aerocom.ini
attr iterationvars "$0=2, $1=50, $2=4, $3=4"
attr iterationvarsf 2,50,4,4-
attr measurement "$0=2, $1=50, $2=4, $3=4"
attr network Aerocom
attr processid 4304
attr repetition 1
attr replication #1
attr resultdir results
attr runnumber 46
attr seedset 1
param **.t 2s
param **.k 50ms
param **.X 4s
param **.m 4s
param **.tDistribution "\"exponential\""
param **.operationMode 0
param **.s "70 byte"
param **.dimPoolMax 10000
param **.dimPoolMin 8000
param **.nDL 10
param **.nA 1
param **.DLMaxCapacity 0
param **.trasmitting false

vector 0 Aerocom.aircraft[0].linkSelector responseTime:vector ETV
attr "" ""
attr source computeResponseTime
vector 1 Aerocom.aircraft[0].dataLink[4] tDistribution:vector ETV
attr "" ""
attr source computeTDistribution
vector 2 Aerocom.aircraft[0].packetGenerator arrivalTime:vector ETV
attr "" ""
attr source computeArrivalTime
vector 3 Aerocom.aircraft[0].linkSelector waitingTime:vector ETV
attr "" ""
attr source computeWaitingTime
vector 4 Aerocom.aircraft[0].linkSelector queueLength:vector ETV
attr "" ""
attr source computeQueueLength
vector 5 Aerocom.aircraft[0].dataLink[9] actualCapacity:vector ETV
attr "" ""
attr source computeActualCapacity
vector 6 Aerocom.aircraft[0].linkSelector serviceTime:vector ETV
attr "" ""
attr source computeServiceTime
vector 7 Aerocom.aircraft[0].dataLink[5] tDistribution:vector ETV
attr "" ""
attr source computeTDistribution
vector 8 Aerocom.aircraft[0].dataLink[0] tDistribution:vector ETV
attr "" ""
attr source computeTDistribution
vector 9 Aerocom.aircraft[0].dataLink[3] tDistribution:vector ETV
attr "" ""
attr source computeTDistribution
vector 10 Aerocom.aircraft[0].dataLink[7] tDistribution:vector ETV
attr "" ""
attr source computeTDistribution
vector 11 Aerocom.aircraft[0].dataLink[0] actualCapacity:vector ETV
attr "" ""
attr source computeActualCapacity
vector 12 Aerocom.aircraft[0].dataLink[1] actualCapacity:vector ETV
attr "" ""
attr source computeActualCapacity
vector 13 Aerocom.aircraft[0].dataLink[2] actualCapacity:vector ETV
attr "" ""
attr source computeActualCapacity
vector 14 Aerocom.aircraft[0].dataLink[3] actualCapacity:vector ETV
attr "" ""
attr source computeActualCapacity
vector 15 Aerocom.aircraft[0].dataLink[4] actualCapacity:vector ETV
attr "" ""
attr source computeActualCapacity
vector 16 Aerocom.aircraft[0].dataLink[5] actualCapacity:vector ETV
attr "" ""
attr source computeActualCapacity
vector 17 Aerocom.aircraft[0].dataLink[6] actualCapacity:vector ETV
attr "" ""
attr source computeActualCapacity
vector 18 Aerocom.aircraft[0].dataLink[7] actualCapacity:vector ETV
attr "" ""
attr source computeActualCapacity
vector 19 Aerocom.aircraft[0].dataLink[8] actualCapacity:vector ETV
attr "" ""
attr source computeActualCapacity
vector 20 Aerocom.aircraft[0].dataLink[8] tDistribution:vector ETV
attr "" ""
attr source computeTDistribution
vector 21 Aerocom.aircraft[0].dataLink[6] tDistribution:vector ETV
attr "" ""
attr source computeTDistribution
vector 22 Aerocom.aircraft[0].dataLink[1] tDistribution:vector ETV
attr "" ""
attr source computeTDistribution
vector 23 Aerocom.aircraft[0].dataLink[2] tDistribution:vector ETV
attr "" ""
attr source computeTDistribution
vector 24 Aerocom.aircraft[0].dataLink[9] tDistribution:vector ETV
attr "" ""
attr source computeTDistribution
0	3604 312923 1144 42933 10.001162723415 399.974601280988 7759 0.007004202522 0.025379386866 62.984585247509 0.53857244939066
1	316527 8314 1147 42930 10.008446666375 399.870380511634 199 0.0033603599120588 10.106333391988 390.75769115755 1518.7517887913
2	324841 312930 1148 42931 10.070387184435 399.966895424537 7758 1.3484563e-005 0.53076813277 390.00950041313 38.629752309698
3	637771 227247 1149 42932 10.070387184435 399.966895424537 7758 0 0.017539763168 4.709896900016 0.028510806291534
4	865018 212967 1149 42932 10.070387184435 399.966895424537 7758 0 2 92 98
5	1077985 17647 1149 42936 10.070387184435 400 626 8107 9910 5820260 54281592532
6	1095632 343901 1149 42932 10.070387184435 399.966895424537 7758 0.0070042025215129 0.0087086339885544 58.266444324539 0.43877856131266
7	1439533 7667 1163 42655 10.133371691378 397.304643787351 183 0.0023472923247129 9.3751301661525 391.24557991949 1543.7139629357
8	1447200 8121 1235 42767 10.758038181612 398.241773057449 193 0.0080597886991908 13.025708690729 390.76032194151 1769.7595019644
9	1455321 8343 1236 42818 11.127954469804 398.670927787943 200 0.0069808127565423 11.419464956956 389.60755438025 1445.3369397577
10	1463664 8452 1283 42856 11.354734675934 399.105386876356 198 0.0032870399373807 10.315111120675 390.42944208713 1433.7465853774
11	1472116 24583 1324 42936 12 400 816 8044 9909 7458912 68369029508
12	1496699 36853 1324 42936 12 400 1217 8015 9978 11442212 107784239508
13	1533552 21668 1324 42936 12 400 726 8038 9966 6656553 61241614233
14	1555220 37111 1324 42936 12 400 1222 8027 9994 11453124 107611966664
15	1592331 26135 1324 42936 12 400 880 8167 9937 8172893 76034823323
16	1618466 31927 1324 42936 12 400 1045 8081 9991 9782566 91829519204
17	1650393 34391 1324 42936 12 400 1134 8046 9953 10755400 102228634912
18	1684784 14799 1324 42936 12 400 510 8110 9974 4624573 42014372263
19	1699583 16449 1324 42936 12 400 562 8198 9984 5134096 47026685492
20	1716032 9176 1382 42691 12.459058151596 397.589374528803 214 0.00443334045868 10.343693525315 388.25726836577 1338.915195965
21	1725208 7925 1600 42715 14.571096670862 397.785445506249 185 0.0072170719136642 11.488160070868 388.69826292889 1534.857858681
22	1733133 8587 1670 42904 15.084597042849 399.55088560518 201 0.009831087575049 9.0649531522795 385.88740723821 1405.0819356417
23	1741720 7896 1671 41944 15.12502430315 391.333015217379 184 0.00076594572858362 11.774546758832 386.1657746068 1677.6481436889
24	1749616 8218 2245 42716 20.647858671329 397.866512771849 192 0.0061108071411756 11.374497544095 379.73795035639 1513.2746863536

