version 2
run Exponential-capacity-19-20210216-13:45:51-18296
attr configname Exponential-capacity
attr datetime 20210216-13:45:51
attr experiment Exponential-capacity
attr inifile aerocom.ini
attr iterationvars "$0=0.5, $1=50, $2=4, $3=0.5"
attr iterationvarsf 0.5,50,4,0.5-
attr measurement "$0=0.5, $1=50, $2=4, $3=0.5"
attr network Aerocom
attr processid 18296
attr repetition 1
attr replication #1
attr resultdir results
attr runnumber 19
attr seedset 1
param **.t 0.5s
param **.k 50ms
param **.X 4s
param **.m 0.5s
param **.tDistribution "\"exponential\""
param **.operationMode 0
param **.s "70 byte"
param **.dimPoolMax 10000
param **.dimPoolMin 8000
param **.nDL 10
param **.nA 1
param **.DLMaxCapacity 0
param **.trasmitting false

vector 0 Aerocom.aircraft[0].dataLink[0] actualCapacity:vector ETV
attr "" ""
attr source computeActualCapacity
vector 1 Aerocom.aircraft[0].dataLink[1] actualCapacity:vector ETV
attr "" ""
attr source computeActualCapacity
vector 2 Aerocom.aircraft[0].dataLink[2] actualCapacity:vector ETV
attr "" ""
attr source computeActualCapacity
vector 3 Aerocom.aircraft[0].dataLink[3] actualCapacity:vector ETV
attr "" ""
attr source computeActualCapacity
vector 4 Aerocom.aircraft[0].dataLink[4] actualCapacity:vector ETV
attr "" ""
attr source computeActualCapacity
vector 5 Aerocom.aircraft[0].dataLink[5] actualCapacity:vector ETV
attr "" ""
attr source computeActualCapacity
vector 6 Aerocom.aircraft[0].dataLink[6] actualCapacity:vector ETV
attr "" ""
attr source computeActualCapacity
vector 7 Aerocom.aircraft[0].dataLink[7] actualCapacity:vector ETV
attr "" ""
attr source computeActualCapacity
vector 8 Aerocom.aircraft[0].dataLink[8] actualCapacity:vector ETV
attr "" ""
attr source computeActualCapacity
vector 9 Aerocom.aircraft[0].dataLink[9] actualCapacity:vector ETV
attr "" ""
attr source computeActualCapacity
vector 10 Aerocom.aircraft[0].linkSelector responseTime:vector ETV
attr "" ""
attr source computeResponseTime
vector 11 Aerocom.aircraft[0].dataLink[2] tDistribution:vector ETV
attr "" ""
attr source computeTDistribution
vector 12 Aerocom.aircraft[0].dataLink[7] tDistribution:vector ETV
attr "" ""
attr source computeTDistribution
vector 13 Aerocom.aircraft[0].dataLink[4] tDistribution:vector ETV
attr "" ""
attr source computeTDistribution
vector 14 Aerocom.aircraft[0].dataLink[3] tDistribution:vector ETV
attr "" ""
attr source computeTDistribution
vector 15 Aerocom.aircraft[0].packetGenerator arrivalTime:vector ETV
attr "" ""
attr source computeArrivalTime
vector 16 Aerocom.aircraft[0].linkSelector waitingTime:vector ETV
attr "" ""
attr source computeWaitingTime
vector 17 Aerocom.aircraft[0].linkSelector queueLength:vector ETV
attr "" ""
attr source computeQueueLength
vector 18 Aerocom.aircraft[0].linkSelector serviceTime:vector ETV
attr "" ""
attr source computeServiceTime
vector 19 Aerocom.aircraft[0].dataLink[6] tDistribution:vector ETV
attr "" ""
attr source computeTDistribution
vector 20 Aerocom.aircraft[0].dataLink[9] tDistribution:vector ETV
attr "" ""
attr source computeTDistribution
vector 21 Aerocom.aircraft[0].dataLink[5] tDistribution:vector ETV
attr "" ""
attr source computeTDistribution
vector 22 Aerocom.aircraft[0].dataLink[1] tDistribution:vector ETV
attr "" ""
attr source computeTDistribution
vector 23 Aerocom.aircraft[0].dataLink[0] tDistribution:vector ETV
attr "" ""
attr source computeTDistribution
vector 24 Aerocom.aircraft[0].dataLink[8] tDistribution:vector ETV
attr "" ""
attr source computeTDistribution
0	1309	10	9537
0	1386	10.5	9776
0	1389	10.541349194667	9796
0	1392	10.548494968452	9799
0	1399	10.598883052641	9823
0	1402	10.606009185187	9827
0	1407	10.613132417099	9830
0	1422	11	9524
0	1488	11.5	8897
0	1524	12	8333
0	1586	12.5	8078
0	1601	13	8067
0	1672	13.5	8055
0	1703	14	8044
0	1808	14.5	8034
0	1840	15	8265
0	1868	15.5	8497
0	1897	16	8707
0	1928	16.5	8886
0	1961	17	9066
0	1995	17.5	9245
0	2034	18	9719
0	2056	18.5	9578
0	2092	19	9376
0	2340	19.5	9174
0	2452	20	8972
0	2522	20.5	8770
0	2597	21	8665
0	2707	21.5	8200
0	2754	22	8917
0	2839	22.5	9476
0	2898	23	9302
0	2938	23.5	9589
0	2939	23.505621257117	9585
0	2940	23.512924334843	9579
0	2943	23.514514954249	9578
0	2944	23.520231986999	9573
0	2947	23.521821843602	9572
0	2948	23.521823369367	9572
0	2951	23.527544219319	9567
0	2954	23.529134839841	9566
0	2957	23.529136365606	9566
0	2960	23.529138661831	9566
0	2961	23.534861037548	9561
0	2964	23.536452422948	9560
0	2967	23.536453948713	9560
0	2970	23.536456244938	9560
0	2973	23.536466202918	9560
0	2978	23.542182447442	9555
0	2983	23.54377459868	9554
0	2986	23.543776124445	9554
0	2989	23.54377842067	9554
0	3010	23.557166584748	9543
0	3021	23.592016648992	9514
0	3035	23.653234980256	9465
0	3048	23.733956556732	9399
0	3053	23.741404157541	9393
0	3056	23.74885651568	9387
0	3063	23.758236905863	9379
0	3073	23.849524462908	9305
0	3085	24	9182
0	3106	24.5	8775
0	3175	25	8368
0	3207	25.5	8141
0	3237	26	8687
0	3276	26.5	9198
0	3310	27	9048
0	3344	27.5	8898
0	3374	28	9257
0	3395	28.5	9646
0	3423	29	9005
0	3467	29.5	9305
0	3698	30	8846
0	3805	30.5	9418
0	3809	30.528290807053	9444
0	3815	30.567464039108	9482
0	3820	30.586854978035	9500
0	3825	30.627605736697	9538
0	3831	30.654464149118	9564
0	3840	30.755922347406	9660
0	3845	30.798248776002	9700
0	3850	30.828323835976	9728
0	3855	30.838185471805	9738
0	3861	30.876468739681	9774
0	3867	30.936542945821	9831
0	3874	30.995257773078	9887
0	3875	31	9891
0	3883	31.025134982092	9882
0	3886	31.032218568411	9878
0	3893	31.056410861553	9862
0	3898	31.084685980814	9844
0	3908	31.254841263908	8750
0	3911	31.262841263908	8686
0	3918	31.270900209337	8622
0	3921	31.279018975285	8557
0	3932	31.334504282304	8113
0	3936	31.34313241	8062
0	3943	31.384057170236	8063
0	3948	31.395824710593	8063
0	3953	31.422086985549	8064
0	3958	31.434294957127	8064
0	3963	31.443287161426	8064
0	3969	31.479595942707	8065
0	3973	31.5	8066
0	4020	32	8078
0	4076	32.5	8091
0	4148	33	8103
0	4203	33.5	8116
0	4231	34	8128
0	4348	34.5	8141
0	4374	35	8136
0	4493	35.5	8126
0	4512	36	9613
0	4513	36.002070984925	9617
0	4514	36.00934976209	9628
0	4517	36.016620223245	9640
0	4529	36.196262432196	9279
0	4535	36.282083308172	9014
0	4544	36.391892359208	9025
0	4550	36.434424614889	9037
0	4553	36.442170548274	9039
0	4558	36.449914767767	9041
0	4566	36.462148536317	9045
0	4573	36.5	9055
0	4603	37	9230
0	4636	37.5	9363
0	4761	38	9405
0	4806	38.5	9588
0	4829	39	9063
0	4868	39.5	8685
0	4911	40	9888
0	4941	40.5	9709
0	4942	40.5	9709
0	4973	41	9505
0	4974	41.007283321194	9502
0	4975	41.014650191327	9498
0	4980	41.022020163953	9495
0	4983	41.029392465164	9491
0	4986	41.036767873446	9488
0	4989	41.04414561375	9484
0	4992	41.051526465711	9481
0	4995	41.058909653138	9477
0	4998	41.066295956821	9474
0	5001	41.073684599422	9470
0	5004	41.081076362886	9467
0	5007	41.088470468727	9463
0	5010	41.095867700049	9460
0	5014	41.103267277216	9456
0	5017	41.110669984492	9453
0	5020	41.118075041088	9449
0	5024	41.125483232431	9445
0	5027	41.132894561176	9442
0	5030	41.140308244718	9438
0	5035	41.147725070317	9435
0	5040	41.155144254207	9431
0	5043	41.162566584819	9428
0	5047	41.169991277225	9424
0	5050	41.177419121028	9421
0	5053	41.184849330135	9417
0	5058	41.192282695326	9414
0	5061	41.199718429339	9410
0	5064	41.207157324132	9406
0	5067	41.214599382393	9403
0	5070	41.222043815021	9399
0	5075	41.22949141583	9396
0	5078	41.236941394544	9392
0	5081	41.244394546162	9389
0	5086	41.251850079233	9385
0	5091	41.259308789942	9382
0	5095	41.266769885657	9378
0	5098	41.274234163755	9374
0	5101	41.281701626951	9371
0	5104	41.289171480755	9367
0	5107	41.296644524419	9364
0	5112	41.304119962266	9360
0	5117	41.311598594745	9357
0	5120	41.31907962499	9353
0	5123	41.326563854649	9349
0	5126	41.33405128646	9346
0	5130	41.341541121684	9342
0	5133	41.349034163859	9339
0	5136	41.356529613051	9335
0	5139	41.364028274004	9331
0	5144	41.371530149473	9328
0	5149	41.379034437638	9324
0	5152	41.386541945146	9321
0	5155	41.394051868974	9317
0	5158	41.401565016983	9314
0	5162	41.409080584945	9310
0	5167	41.416599381937	9306
0	5170	41.424121410736	9303
0	5173	41.431645865213	9299
0	5176	41.439173556363	9296
0	5179	41.446703676845	9292
0	5182	41.454237038877	9288
0	5187	41.461773645251	9285
0	5190	41.469312686716	9281
0	5193	41.476854977417	9278
0	5198	41.484399706885	9274
0	5201	41.491947690495	9270
0	5204	41.499498931056	9267
0	5207	41.5	9266
0	5208	41.5	9266
0	5249	42	8115
0	5290	42.5	9413
0	5421	43	9568
0	5491	43.5	9496
0	5494	43.50717066175	9485
0	5501	43.68958864849	9188
0	5507	43.724382280655	9131
0	5512	43.773242447223	9051
0	5520	43.927359304905	8801
0	5523	43.935312946537	8788
0	5531	43.99766373812	8686
0	5532	44	8682
0	5585	44.5	8430
0	5640	45	9025
0	5682	45.5	9337
0	5804	46	9115
0	5858	46.5	8894
0	5887	47	8672
0	5920	47.5	9195
0	5959	48	8597
0	6118	48.5	8739
0	6144	49	8172
0	6189	49.5	9070
0	6223	50	9909
0	6253	50.5	9770
0	6283	51	9631
0	6486	51.5	8974
0	6547	52	8293
0	6580	52.5	8432
0	6610	53	9755
0	6726	53.5	9022
0	6758	54	9120
0	6840	54.5	9219
0	6897	55	9318
0	6922	55.5	9683
0	6954	56	9636
0	6955	56	9636
0	6991	56.5	9111
0	7133	57	8454
0	7170	57.5	9496
0	7208	58	9375
0	7250	58.5	9937
0	7278	59	9897
0	7279	59	9897
0	7319	59.5	9374
0	7529	60	8583
0	7568	60.5	8237
0	7599	61	9090
0	7637	61.5	8573
0	7749	62	8483
0	7827	62.5	9356
0	7886	63	9310
0	7975	63.5	8856
0	8008	64	9151
0	8044	64.5	9716
0	8181	65	8319
0	8238	65.5	8991
0	8265	66	9189
0	8299	66.5	8922
0	8333	67	8730
0	8373	67.5	9590
0	8408	68	9489
0	8411	68.007186120522	9485
0	8412	68.014566194323	9481
0	8415	68.02194938175	9478
0	8418	68.029334906122	9474
0	8421	68.036723548723	9470
0	8425	68.044115312187	9467
0	8431	68.051509418028	9463
0	8434	68.05890664935	9459
0	8443	68.066307008796	9456
0	8446	68.073709716072	9452
0	8451	68.081115556106	9448
0	8454	68.088524531551	9445
0	8457	68.095935860296	9441
0	8460	68.103350329102	9437
0	8463	68.110767940631	9434
0	8466	68.118187910951	9430
0	8470	68.12561102866	9426
0	8474	68.13303729643	9422
0	8480	68.140466716935	9419
0	8483	68.147898503749	9415
0	8486	68.155333447987	9411
0	8489	68.162771552333	9408
0	8494	68.170212028523	9404
0	8497	68.177655669527	9400
0	8500	68.185102478038	9397
0	8503	68.192551663948	9393
0	8506	68.200004022087	9389
0	8509	68.207459555158	9385
0	8512	68.214918265867	9382
0	8515	68.222379361582	9378
0	8519	68.22984363968	9374
0	8522	68.237311102876	9370
0	8525	68.24478175389	9367
0	8528	68.252254797554	9363
0	8531	68.259731033803	9359
0	8534	68.267210465366	9356
0	8537	68.274692295208	9352
0	8541	68.282177325148	9348
0	8546	68.289665557925	9344
0	8549	68.297156996281	9341
0	8552	68.304650840623	9337
0	8555	68.312147895351	9333
0	8560	68.319648163218	9329
0	8563	68.327151646978	9326
0	8566	68.334657544469	9322
0	8569	68.342166662684	9318
0	8574	68.349679004388	9315
0	8578	68.357193765526	9311
0	8581	68.364711755001	9307
0	8587	68.372232975588	9303
0	8590	68.379757430065	9300
0	8593	68.387284311785	9296
0	8596	68.394814432267	9292
0	8599	68.402347794299	9288
0	8602	68.409884400673	9285
0	8605	68.417423442138	9281
0	8608	68.424965732839	9277
0	8616	68.450313393176	9264
0	8621	68.5	9240
0	8662	69	8654
0	8692	69.5	8910
0	8738	70	8272
0	8912	70.5	8373
0	8971	71	8592
0	9049	71.5	9012
0	9103	72	9722
0	9130	72.5	9314
0	9131	72.5	9314
0	9161	73	9147
0	9301	73.5	8703
0	9381	74	8689
0	9404	74.5	8886
0	9432	75	9082
0	9463	75.5	9278
0	9502	76	9475
0	9536	76.5	9408
0	9731	77	8438
0	9758	77.5	8595
0	9797	78	8823
0	9839	78.5	9212
0	9984	79	8494
0	10040	79.5	8538
0	10093	80	8953
0	10170	80.5	9335
0	10186	81	8250
0	10219	81.5	8943
0	10316	82	8411
0	10386	82.5	8275
0	10415	83	8139
0	10444	83.5	8873
0	10467	84	8777
0	10507	84.5	8682
0	10547	85	8586
0	10740	85.5	8815
0	10769	86	9415
0	10799	86.5	8496
0	10837	87	9200
0	10991	87.5	8987
0	11025	88	8875
0	11089	88.5	8964
0	11148	89	8830
0	11170	89.5	8696
0	11200	90	8562
0	11305	90.5	8429
0	11324	91	9134
0	11358	91.5	9359
0	11397	92	8493
0	11436	92.5	8472
0	11465	93	9606
0	11500	93.5	9312
0	11731	94	9060
0	11765	94.5	8572
0	11805	95	9525
0	11840	95.5	8970
0	11991	96	9267
0	12048	96.5	8437
0	12102	97	8418
0	12184	97.5	8899
0	12211	98	9154
0	12252	98.5	8980
0	12355	99	8782
0	12408	99.5	8177
0	12447	100	8526
0	12491	100.5	9035
0	12519	101	9305
0	12553	101.5	8329
0	12595	102	9227
0	12821	102.5	9260
0	12843	103	9056
0	12868	103.5	8852
0	12908	104	9069
0	13037	104.5	8296
0	13102	105	9411
0	13143	105.5	9701
0	13149	105.511014351773	9697
0	13155	105.566805333655	9674
0	13160	105.575627853297	9671
0	13167	105.632976108967	9634
0	13172	105.686973663022	9459
0	13177	105.715425525471	9366
0	13184	105.798532937412	9160
0	13190	105.824132422573	9350
0	13197	105.886365095321	9319
0	13203	105.904427615912	9310
0	13206	105.911946412904	9306
0	13214	105.983294263258	9270
0	13217	105.990845503819	9266
0	13224	106	9262
0	13272	106.5	9184
0	13311	107	9733
0	13457	107.5	9820
0	13461	107.528152997776	9825
0	13468	107.54330937466	9827
0	13476	107.62455693252	9841
0	13482	107.637332717963	9844
0	13489	107.658913582343	9847
0	13494	107.697031960893	9854
0	13502	107.791000834478	9870
0	13507	107.806304336084	9873
0	13518	107.934548658712	9895
0	13524	108	9906
0	13553	108.5	9794
0	13554	108.5	9794
0	13593	109	9038
0	13594	109	9038
0	13629	109.5	9803
0	13630	109.500559215367	9803
0	13633	109.50769988659	9799
0	13636	109.51484347267	9795
0	13639	109.518233079214	9793
0	13640	109.521989975988	9791
0	13643	109.525381042045	9789
0	13646	109.529139398927	9787
0	13649	109.53253192569	9786
0	13652	109.536291743874	9784
0	13657	109.539685001513	9782
0	13662	109.543446281895	9780
0	13665	109.546841002331	9778
0	13668	109.550603746108	9776
0	13673	109.553999930537	9774
0	13676	109.557764138907	9772
0	13679	109.561161788528	9770
0	13682	109.564927462689	9768
0	13685	109.568326578702	9766
0	13688	109.572093719855	9764
0	13691	109.574041223669	9763
0	13692	109.575494303461	9762
0	13695	109.579262912809	9760
0	13698	109.581211150945	9759
0	13701	109.582664965211	9758
0	13705	109.582865987926	9758
0	13706	109.586435043957	9756
0	13709	109.588384017017	9755
0	13713	109.589838566359	9754
0	13716	109.590039589074	9754
0	13719	109.593610115708	9752
0	13722	109.595559824295	9751
0	13727	109.597015109316	9750
0	13730	109.597216132031	9750
0	13733	109.600788130474	9748
0	13736	109.602738575192	9747
0	13749	109.607974527027	9744
0	13752	109.609920272124	9743
0	13764	109.682248239424	9704
0	13770	109.703644778021	9692
0	13776	109.741752702453	9671
0	13783	109.824528635099	9626
0	13789	109.879505984494	9596
0	13797	109.92905365511	9569
0	13804	109.938006644925	9564
0	13809	109.961498026368	9551
0	13816	110	9530
0	13836	110.5	9161
0	13937	111	8530
0	13961	111.5	9040
0	13989	112	9301
0	14017	112.5	9347
0	14111	113	9242
0	14169	113.5	9471
0	14194	114	8590
0	14195	114	8590
0	14230	114.5	9492
0	14272	115	9472
0	14428	115.5	9358
0	14505	116	9098
0	14570	116.5	9582
0	14603	117	9894
0	14633	117.5	9669
0	14634	117.5	9669
0	14656	118	9627
0	14787	118.5	9601
0	14845	119	9575
0	14873	119.5	9550
0	14901	120	9524
0	14918	120.5	9498
0	14960	121	8161
0	15116	121.5	8219
0	15194	122	8277
0	15209	122.5	8336
0	15273	123	8394
0	15305	123.5	8453
0	15372	124	8511
0	15434	124.5	9294
0	15510	125	8989
0	15537	125.5	8864
0	15576	126	9145
0	15608	126.5	9497
0	15652	127	9850
0	15689	127.5	9827
0	15690	127.5	9827
0	15717	128	9006
0	15718	128	9006
0	15742	128.5	8250
0	15773	129	8688
0	15801	129.5	9046
0	16030	130	9340
0	16199	130.5	8378
0	16257	131	8581
0	16338	131.5	8784
0	16398	132	8987
0	16462	132.5	9029
0	16524	133	8555
0	16573	133.5	9000
0	16600	134	8714
0	16710	134.5	8695
0	16773	135	8289
0	16858	135.5	8106
0	16899	136	9436
0	16942	136.5	8783
0	16970	137	8087
0	17131	137.5	8323
0	17164	138	8292
0	17196	138.5	8018
0	17226	139	8034
0	17375	139.5	8051
0	17431	140	8373
0	17475	140.5	8677
0	17530	141	8973
0	17559	141.5	9387
0	17603	142	8653
0	17757	142.5	9697
0	17760	142.509113443143	9690
0	17766	142.579815751195	9630
0	17771	142.589132247745	9622
0	17777	142.6124257122	9602
0	17780	142.619715860086	9596
0	17787	142.629384633608	9588
0	17793	142.832533116014	9465
0	17796	142.839928784265	9461
0	17801	142.847327579318	9457
0	17806	142.854729503818	9453
0	17814	142.918973409019	9417
0	17819	142.938828876632	9406
0	17825	142.968752158478	9389
0	17831	143	9372
0	17859	143.5	9071
0	17973	144	9740
0	17996	144.5	9271
0	17997	144.5	9271
0	18039	145	9052
0	18064	145.5	9299
0	18216	146	9070
0	18256	146.5	8688
0	18298	147	8467
0	18340	147.5	8847
0	18394	148	9228
0	18428	148.5	9244
0	18662	149	9761
0	18666	149.007506702413	9756
0	18669	149.014681774164	9751
0	18672	149.021860525061	9746
0	18675	149.02904295888	9741
0	18678	149.036229079402	9735
0	18681	149.043419628965	9730
0	18685	149.050613873569	9725
0	18688	149.057811817014	9720
0	18691	149.065013463105	9715
0	18695	149.072218815653	9710
0	18706	149.2707568941	9569
0	18709	149.278072183054	9564
0	18714	149.285391296396	9559
0	18719	149.292714238126	9554
0	18728	149.42012931764	9463
0	18733	149.431817107563	9455
0	18738	149.446331579785	9445
0	18743	149.453853889013	9439
0	18748	149.494947453248	9410
0	18750	149.5	9407
0	18786	150	9052
0	18811	150.5	8698
0	18891	151	8344
0	18965	151.5	8351
0	19048	152	8235
0	19122	152.5	9024
0	19149	153	8073
0	19234	153.5	8146
0	19304	154	8219
0	19377	154.5	8293
0	19419	155	8366
0	19536	155.5	8883
0	19610	156	9656
0	19641	156.5	8416
0	19666	157	9298
0	19699	157.5	9040
0	19741	158	8585
0	19783	158.5	9161
0	19834	159	9754
0	19862	159.5	9568
0	19893	160	8378
0	19923	160.5	8558
0	20163	161	8956
0	20294	161.5	9147
0	20388	162	8948
0	20444	162.5	8611
0	20487	163	9438
0	20541	163.5	9621
0	20625	164	9730
0	20629	164.008222718196	9726
0	20632	164.015419921568	9723
0	20639	164.052669573151	9705
0	20645	164.149202141195	9658
0	20653	164.290507995774	9589
0	20658	164.340218037563	9565
0	20661	164.347536385707	9562
0	20669	164.442974411003	9516
0	20674	164.49004145556	9493
0	20680	164.5	9488
0	20709	165	9246
0	20845	165.5	9113
0	20886	166	9166
0	20911	166.5	9442
0	21052	167	9818
0	21083	167.5	9821
0	21084	167.5	9821
0	21121	168	9805
0	21122	168	9805
0	21144	168.5	9789
0	21145	168.5	9789
0	21188	169	9773
0	21189	169	9773
0	21232	169.5	9262
0	21233	169.5	9262
0	21266	170	9036
0	21494	170.5	8380
0	21538	171	8717
0	21579	171.5	8545
0	21729	172	8894
0	21768	172.5	9400
0	21773	172.562128921895	9375
0	21778	172.569595588562	9371
0	21786	172.605165749565	9349
0	21792	172.661436876977	9314
0	21795	172.668952444939	9309
0	21805	172.815473776231	9275
0	21812	172.854332581823	9276
0	21818	172.888744202952	9276
0	21821	172.89629055914	9276
0	21828	172.911875409359	9276
0	21836	172.94831600301	9277
0	21841	173	9277
0	21913	173.5	8442
0	21966	174	9444
0	22003	174.5	9371
0	22114	175	9235
0	22171	175.5	9345
0	22204	176	8495
0	22251	176.5	8158
0	22301	177	8379
0	22329	177.5	9216
0	22370	178	9336
0	22409	178.5	9456
0	22444	179	9576
0	22477	179.5	9695
0	22501	180	9782
0	22502	180.007773459189	9779
0	22503	180.014931655324	9776
0	22506	180.022092048123	9773
0	22509	180.029254638934	9770
0	22512	180.036419429108	9767
0	22515	180.043586419996	9765
0	22520	180.050754878777	9762
0	22523	180.057925540527	9759
0	22527	180.065098406599	9756
0	22530	180.07227347835	9753
0	22535	180.079450757136	9751
0	22538	180.086629508033	9748
0	22541	180.09381046823	9745
0	22544	180.100993639087	9742
0	22547	180.108179021965	9739
0	22550	180.115366618227	9737
0	22553	180.122555690837	9734
0	22556	180.129746979105	9731
0	22559	180.136940484397	9728
0	22562	180.144136208081	9725
0	22567	180.151334151526	9723
0	22570	180.158533575572	9720
0	22573	180.165735221663	9717
0	22576	180.17293909117	9714
0	22579	180.180145185467	9711
0	22582	180.187353505928	9709
0	22585	180.194563311263	9706
0	22588	180.201775345057	9703
0	22591	180.208989608687	9700
0	22594	180.216206103532	9697
0	22597	180.223424830973	9695
0	22600	180.230645047579	9692
0	22604	180.237867499085	9689
0	22607	180.245092186875	9686
0	22610	180.252319112334	9683
0	22613	180.259548276849	9681
0	22618	180.266778934839	9678
0	22621	180.274011834198	9675
0	22624	180.281246976317	9672
0	22627	180.288484362587	9669
0	22630	180.2957239944	9667
0	22637	180.302965124016	9664
0	22640	180.310208501499	9661
0	22645	180.317454128246	9658
0	22648	180.324702005653	9655
0	22654	180.33195213512	9652
0	22657	180.339204518046	9650
0	22660	180.346458404056	9647
0	22663	180.353714545862	9644
0	22666	180.360972944867	9641
0	22669	180.368233602475	9638
0	22672	180.375496520093	9636
0	22675	180.382760945166	9633
0	22678	180.390027632595	9630
0	22681	180.397296583789	9627
0	22684	180.40456780016	9624
0	22687	180.411841283119	9621
0	22690	180.41911703408	9619
0	22693	180.426394297829	9616
0	22698	180.433673831939	9613
0	22704	180.440955637827	9610
0	22707	180.448239716911	9607
0	22710	180.455526070611	9604
0	22713	180.462814700349	9602
0	22716	180.470104848235	9599
0	22719	180.477397274529	9596
0	22725	180.484691980657	9593
0	22728	180.491988968044	9590
0	22731	180.499288238117	9587
0	22734	180.5	9587
0	22738	180.507782966422	9584
0	22741	180.515086806155	9581
0	22748	180.522392932864	9578
0	22751	180.529701347982	9576
0	22757	180.537011289502	9573
0	22760	180.544323521822	9570
0	22763	180.551638046378	9567
0	22766	180.558954864607	9564
0	22769	180.566273977949	9561
0	22773	180.573595387843	9559
0	22776	180.580918329573	9556
0	22779	180.588243570259	9553
0	22782	180.595571111346	9550
0	22785	180.602900954278	9547
0	22790	180.610233100502	9544
0	22793	180.617567551466	9541
0	22796	180.624904308619	9539
0	22799	180.632242604038	9536
0	22802	180.639583208065	9533
0	22805	180.646926122153	9530
0	22810	180.654271347756	9527
0	22813	180.661618886331	9524
0	22816	180.668968739334	9521
0	22819	180.676320908224	9519
0	22822	180.683674621849	9516
0	22825	180.691030653795	9513
0	22828	180.698389005524	9510
0	22831	180.7057496785	9507
0	22834	180.713112674187	9504
0	22837	180.720477994052	9501
0	22841	180.727845639563	9499
0	22844	180.735214836321	9496
0	22848	180.742586361174	9493
0	22851	180.749960215593	9490
0	22854	180.757336401051	9487
0	22857	180.764714919023	9484
0	22860	180.772095770984	9481
0	22863	180.779478958411	9478
0	22866	180.786864482783	9476
0	22869	180.79425156594	9473
0	22879	180.894042741482	9434
0	22884	180.922595151652	9423
0	22889	181	9393
0	22930	181.5	9198
0	22979	182	9125
0	23068	182.5	9264
0	23134	183	9503
0	23137	183.011426780799	9505
0	23144	183.142425562642	9524
0	23150	183.181288918087	9530
0	23155	183.191749016814	9531
0	23160	183.241855400592	9539
0	23165	183.267506048014	9543
0	23171	183.294358578269	9546
0	23177	183.316648814225	9527
0	23184	183.384778483655	9470
0	23189	183.432677493626	9429
0	23193	183.5	9372
0	23285	184	8948
0	23303	184.5	8761
0	23423	185	9254
0	23467	185.5	9319
0	23577	186	9130
0	23599	186.5	8942
0	23635	187	8753
0	23665	187.5	9077
0	23697	188	8639
0	23727	188.5	8510
0	23761	189	8631
0	23940	189.5	8837
0	23969	190	9043
0	24006	190.5	8797
0	24136	191	8862
0	24212	191.5	8926
0	24287	192	8991
0	24334	192.5	9055
0	24422	193	9094
0	24446	193.5	9008
0	24470	194	9350
0	24595	194.5	9874
0	24621	195	9761
0	24622	195	9761
0	24667	195.5	9467
0	24668	195.5	9467
0	24698	196	9117
0	24739	196.5	8558
0	24771	197	8611
0	24812	197.5	9442
0	25040	198	8726
0	25070	198.5	8814
0	25113	199	8871
0	25264	199.5	9100
0	25339	200	8976
0	25415	200.5	9127
0	25469	201	8191
0	25527	201.5	8324
0	25561	202	8678
0	25646	202.5	8144
0	25683	203	8336
0	25717	203.5	8529
0	25752	204	8721
0	25783	204.5	8914
0	25817	205	9106
0	25857	205.5	9299
0	25884	206	9776
0	25922	206.5	9349
0	25923	206.5	9349
0	25954	207	8737
0	25994	207.5	8238
0	26235	208	8588
0	26372	208.5	8939
0	26430	209	8152
0	26491	209.5	8601
0	26563	210	8589
0	26637	210.5	9593
0	26689	211	8907
0	26763	211.5	9015
0	26803	212	9122
0	26963	212.5	9229
0	27001	213	9337
0	27039	213.5	8290
0	27062	214	8736
0	27092	214.5	9188
0	27133	215	8409
0	27174	215.5	8927
0	27208	216	9359
0	27235	216.5	9121
0	27274	217	8882
0	27514	217.5	8629
0	27679	218	8334
0	27763	218.5	8362
0	27815	219	9413
0	27894	219.5	9385
0	27974	220	8907
0	28057	220.5	8909
0	28095	221	9122
0	28120	221.5	9342
0	28247	222	9384
0	28304	222.5	9924
0	28332	223	9823
0	28333	223	9823
0	28363	223.5	9714
0	28485	224	9327
0	28521	224.5	9419
0	28548	225	9793
0	28600	225.5	8948
0	28631	226	8485
0	28660	226.5	9016
0	28694	227	8132
0	28903	227.5	8835
0	28928	228	9611
0	28963	228.5	8813
0	29064	229	8993
0	29133	229.5	8643
0	29221	230	8771
0	29268	230.5	8821
0	29349	231	8741
0	29398	231.5	8629
0	29495	232	8517
0	29541	232.5	9578
0	29572	233	9481
0	29616	233.5	9384
0	29646	234	9288
0	29671	234.5	8880
0	29708	235	8377
0	29740	235.5	8179
0	29769	236	9067
0	29799	236.5	9637
0	29826	237	9566
0	30062	237.5	9495
0	30207	238	9424
0	30238	238.5	9352
0	30287	239	8940
0	30344	239.5	8859
0	30399	240	9328
0	30463	240.5	9782
0	30469	240.507558578987	9788
0	30474	240.53298323034	9811
0	30480	240.556470047228	9832
0	30485	240.595340892419	9867
0	30491	240.633375220097	9902
0	30497	240.66138752517	9927
0	30503	240.715309127857	9975
0	30510	240.785514865972	9014
0	30515	240.811390784833	8652
0	30520	240.840611162343	8242
0	30526	240.850487716484	8426
0	30531	240.872440894994	9558
0	30538	240.884772694547	9708
0	30546	240.915972652667	9406
0	30551	240.94914624721	9293
0	30556	240.957557348955	9265
0	30561	240.999986446007	9120
0	30563	241	9120
0	30600	241.5	8369
0	30714	242	8767
0	30750	242.5	9165
0	30791	243	9166
0	30825	243.5	8982
0	30857	244	8754
0	30903	244.5	8610
0	31120	245	8471
0	31206	245.5	8324
0	31235	246	8177
0	31272	246.5	8349
0	31380	247	9667
0	31467	247.5	9703
0	31522	248	8689
0	31593	248.5	8832
0	31619	249	8974
0	31645	249.5	8332
0	31674	250	8375
0	31794	250.5	8449
0	31839	251	8780
0	31876	251.5	9690
0	31903	252	8142
0	31932	252.5	8435
0	31960	253	8728
0	32179	253.5	9206
0	32182	253.525025991731	9240
0	32187	253.558987091372	9285
0	32194	253.624036365079	9371
0	32199	253.633868916356	9384
0	32204	253.720350859991	9499
0	32209	253.732515969307	9515
0	32214	253.749776056571	9538
0	32220	253.767996718609	9562
0	32225	253.84505814337	9665
0	32230	253.872817182484	9702
0	32236	253.903219017251	9742
0	32241	253.92710572488	9774
0	32250	254	9845
0	32282	254.5	8235
0	32283	254.5	8235
0	32320	255	8764
0	32448	255.5	9253
0	32505	256	8831
0	32556	256.5	8253
0	32609	257	8366
0	32644	257.5	8588
0	32671	258	8345
0	32714	258.5	8121
0	32843	259	8508
0	32878	259.5	8553
0	32906	260	8598
0	32932	260.5	8674
0	32965	261	8979
0	33000	261.5	9496
0	33226	262	9100
0	33285	262.5	8527
0	33315	263	8519
0	33350	263.5	8510
0	33474	264	8658
0	33508	264.5	8931
0	33549	265	9296
0	33598	265.5	9742
0	33637	266	9634
0	33638	266	9634
0	33674	266.5	9824
0	33675	266.5	9824
0	33703	267	8018
0	33841	267.5	8359
0	33873	268	8936
0	33900	268.5	9351
0	33936	269	8815
0	33978	269.5	8444
0	34009	270	8488
0	34231	270.5	8532
0	34304	271	8576
0	34336	271.5	8620
0	34407	272	9273
0	34469	272.5	8332
0	34527	273	9144
0	34598	273.5	8367
0	34653	274	8690
0	34682	274.5	8705
0	34719	275	8361
0	34818	275.5	8126
0	34851	276	8988
0	34885	276.5	9332
0	34925	277	8407
0	34960	277.5	8726
0	34998	278	9127
0	35187	278.5	9527
0	35246	279	9460
0	35270	279.5	9267
0	35299	280	9509
0	35300	280.007223942208	9493
0	35301	280.014597796627	9476
0	35304	280.021984879784	9459
0	35307	280.02938523923	9443
0	35310	280.036798137673	9426
0	35314	280.044224405443	9409
0	35317	280.051664090851	9392
0	35320	280.059117242469	9376
0	35323	280.066583112776	9359
0	35327	280.074062544339	9342
0	35332	280.081555586514	9325
0	35345	280.23390833408	8981
0	35350	280.280917085602	8875
0	35353	280.288804409546	8857
0	35360	280.305002170246	8821
0	35364	280.312937778454	8803
0	35372	280.328045779183	8769
0	35377	280.338148510329	8746
0	35382	280.454723945986	8483
0	35385	280.462975743699	8464
0	35391	280.5	8381
0	35453	281	8452
0	35502	281.5	9193
0	35554	282	8901
0	35588	282.5	8802
0	35625	283	9180
0	35655	283.5	8752
0	35780	284	9343
0	35810	284.5	9348
0	35851	285	8831
0	35890	285.5	8531
0	35934	286	9266
0	35976	286.5	8608
0	36213	287	8862
0	36271	287.5	8851
0	36298	288	8643
0	36334	288.5	8461
0	36438	289	8321
0	36496	289.5	8181
0	36565	290	8082
0	36639	290.5	8242
0	36654	291	8997
0	36757	291.5	9771
0	36784	292	9292
0	36895	292.5	8813
0	36925	293	8374
0	36965	293.5	8614
0	37006	294	9621
0	37038	294.5	9397
0	37078	295	8843
0	37105	295.5	8610
0	37140	296	8736
0	37173	296.5	9022
0	37204	297	9425
0	37417	297.5	9605
0	37522	298	9683
0	37573	298.5	9761
0	37576	298.56134169953	9771
0	37583	298.666150607563	9787
0	37588	298.68353252701	9790
0	37594	298.726395501646	9796
0	37601	298.769462333943	9803
0	37606	298.816879161599	9811
0	37612	298.856695956489	9817
0	37617	298.867606536472	9819
0	37623	298.893268741436	9823
0	37628	298.904010500196	9824
0	37633	298.922509780176	9827
0	37636	298.929633012088	9828
0	37644	298.96811270043	9834
0	37649	299	9805
0	37653	299.0804246873	9656
0	37662	299.158864348086	9511
0	37669	299.231375385543	9377
0	37677	299.298822856884	9252
0	37684	299.360266048333	9164
0	37689	299.376060275309	9156
0	37693	299.5	9089
0	37778	300	8821
0	37827	300.5	8553
0	37889	301	9115
0	37921	301.5	9159
0	38021	302	9204
0	38049	302.5	9249
0	38079	303	9294
0	38117	303.5	9179
0	38166	304	9368
0	38188	304.5	9375
0	38402	305	9289
0	38430	305.5	9546
0	38463	306	9368
0	38504	306.5	8434
0	38640	307	9550
0	38711	307.5	9185
0	38768	308	9264
0	38826	308.5	9560
0	38861	309	9744
0	38894	309.5	9543
0	38998	310	9176
0	39073	310.5	9262
0	39096	311	9348
0	39143	311.5	8939
0	39181	312	9196
0	39365	312.5	9813
0	39392	313	8622
0	39474	313.5	8431
0	39502	314	8997
0	39537	314.5	9796
0	39567	315	8909
0	39676	315.5	8528
0	39714	316	8881
0	39748	316.5	8608
0	39778	317	9853
0	39817	317.5	9408
0	39944	318	9555
0	39994	318.5	9685
0	40042	319	9691
0	40075	319.5	9700
0	40076	319.5	9700
0	40105	320	9713
0	40151	320.5	9581
0	40290	321	9002
0	40319	321.5	8867
0	40347	322	8733
0	40378	322.5	8406
0	40422	323	8508
0	40447	323.5	8618
0	40612	324	8487
0	40664	324.5	8399
0	40708	325	8620
0	40825	325.5	9668
0	40853	326	9816
0	40928	326.5	9658
0	41002	327	8079
0	41051	327.5	8230
0	41077	328	9498
0	41102	328.5	9802
0	41139	329	8097
0	41140	329	8097
0	41173	329.5	8998
0	41212	330	9473
0	41244	330.5	9262
0	41274	331	8488
0	41320	331.5	9843
0	41347	332	9781
0	41348	332.007867820614	9780
0	41349	332.015025284827	9779
0	41352	332.022183480962	9779
0	41355	332.029341677097	9778
0	41358	332.036500605303	9777
0	41361	332.043660265731	9776
0	41364	332.05082065853	9775
0	41367	332.05798178385	9774
0	41370	332.065143641841	9773
0	41374	332.072306232652	9772
0	41377	332.079469556434	9772
0	41380	332.086632880216	9771
0	41386	332.093796937119	9770
0	41389	332.100961727293	9769
0	41392	332.108127250888	9768
0	41395	332.115293508054	9767
0	41399	332.122460498942	9766
0	41402	332.129628223701	9765
0	41406	332.136796682482	9764
0	41409	332.143965875436	9764
0	41412	332.15113506839	9763
0	41415	332.158304995666	9762
0	41420	332.165475657416	9761
0	41424	332.172647053789	9760
0	41427	332.179819184937	9759
0	41431	332.186992051009	9758
0	41434	332.194165652157	9757
0	41437	332.201339988531	9757
0	41440	332.208514324905	9756
0	41443	332.215689396656	9755
0	41446	332.222865203934	9754
0	41449	332.230041746891	9753
0	41452	332.237219025677	9752
0	41455	332.244397040443	9751
0	41458	332.25157579134	9750
0	41461	332.258755278519	9749
0	41464	332.265935502132	9749
0	41469	332.273115725745	9748
0	41474	332.280296685942	9747
0	41477	332.287478382874	9746
0	41480	332.294660816693	9745
0	41483	332.30184398755	9744
0	41486	332.309027895596	9743
0	41492	332.316212540982	9742
0	41495	332.32339792386	9742
0	41501	332.330583306738	9741
0	41504	332.33776942726	9740
0	41507	332.344956285576	9739
0	41512	332.352143881838	9738
0	41515	332.359332216198	9737
0	41518	332.366521288808	9736
0	41523	332.373711099819	9735
0	41526	332.380901649382	9734
0	41529	332.38809293765	9734
0	41532	332.395284225918	9733
0	41535	332.402476253042	9732
0	41538	332.409669019174	9731
0	41541	332.416862524466	9730
0	41544	332.42405676907	9729
0	41547	332.431251753138	9728
0	41550	332.438447476822	9727
0	41553	332.445643940274	9726
0	41556	332.452841143646	9726
0	41559	332.460038347018	9725
0	41563	332.467236290463	9724
0	41568	332.474434974132	9723
0	41571	332.481634398178	9722
0	41576	332.488834562753	9721
0	41579	332.49603546801	9720
0	41582	332.5	9720
0	41701	333	9647
0	41763	333.5	9457
0	41766	333.507383966245	9454
0	41772	333.568520825462	8624
0	41778	333.643965716085	8056
0	41781	333.652654891855	8062
0	41788	333.674050005807	8076
0	41793	333.718129743674	8107
0	41799	333.780111291832	8149
0	41806	333.89269464252	8226
0	41812	333.901204246216	8232
0	41815	333.909707647577	8238
0	41822	333.920769286378	8246
0	41827	333.930604076314	8252
0	41832	333.959098310905	8272
0	41837	334	8300
0	41895	334.5	8643
0	41941	335	8987
0	41994	335.5	9134
0	42037	336	9023
0	42080	336.5	9056
0	42187	337	8877
0	42247	337.5	8416
0	42288	338	9383
0	42323	338.5	9220
0	42466	339	9399
0	42497	339.5	9649
0	42535	340	9261
0	42536	340	9261
0	42578	340.5	8999
0	42629	341	8473
0	42671	341.5	8325
0	42710	342	8178
0	42948	342.5	8030
0	42979	343	8151
0	43005	343.5	9700
0	43008	343.507491438356	9688
0	43009	343.514716871882	9677
0	43013	343.521950518673	9666
0	43016	343.529192397423	9654
0	43019	343.536443277887	9643
0	43022	343.543702429603	9632
0	43025	343.550969871463	9620
0	43028	343.55824637874	9609
0	43032	343.565531215872	9597
0	43035	343.572825161897	9586
0	43040	343.580127477774	9575
0	43043	343.587438182735	9563
0	43046	343.594758061434	9552
0	43049	343.602086369642	9540
0	43054	343.609423895847	9529
0	43058	343.616769892279	9517
0	43063	343.624125151289	9506
0	43066	343.631488921539	9494
0	43069	343.638861999272	9483
0	43072	343.646243629558	9471
0	43075	343.653634612559	9459
0	43082	343.661034972005	9448
0	43087	343.66844394745	9436
0	43090	343.675862345076	9425
0	43093	343.683289400779	9413
0	43096	343.690725924735	9401
0	43101	343.698171941116	9390
0	43104	343.7056266802	9378
0	43107	343.713090958298	9366
0	43112	343.720564799853	9355
0	43116	343.728047429463	9343
0	43119	343.735539669643	9331
0	43122	343.743041545112	9319
0	43126	343.750553080684	9308
0	43129	343.758073493232	9296
0	43134	343.765603613714	9284
0	43139	343.773143467225	9272
0	43146	343.783495256904	9256
0	43151	343.791057918961	9244
0	43154	343.798630398407	9232
0	43159	343.806212720764	9221
0	43164	343.813804088295	9209
0	43172	343.855865066832	9143
0	43178	343.895717834986	9080
0	43183	343.95298264407	8991
0	43188	343.977389594227	8952
0	43193	343.992747759344	8928
0	43194	344	8917
0	43257	344.5	8833
0	43287	345	9644
0	43326	345.5	8403
0	43388	346	9078
0	43441	346.5	9337
0	43593	347	9369
0	43634	347.5	9078
0	43654	348	9306
0	43743	348.5	9444
0	43775	349	8716
0	43812	349.5	9766
0	43848	350	9034
0	43890	350.5	9623
0	43929	351	9444
0	43959	351.5	9144
0	44002	352	8526
0	44040	352.5	8250
0	44064	353	8568
0	44297	353.5	9312
0	44481	354	9124
0	44539	354.5	9694
0	44542	354.507186858316	9693
0	44548	354.522971046585	9690
0	44553	354.556741720235	9684
0	44558	354.564479042504	9682
0	44563	354.598511616042	9676
0	44568	354.680817667313	9660
0	44580	354.844459095275	9629
0	44588	355	9600
0	44658	355.5	9376
0	44722	356	8964
0	44794	356.5	8895
0	44859	357	8610
0	44889	357.5	9111
0	45038	358	9081
0	45116	358.5	8616
0	45140	359	8195
0	45172	359.5	9009
0	45196	360	8958
0	45228	360.5	8939
0	45259	361	9197
0	45306	361.5	8562
0	45345	362	8671
0	45377	362.5	8563
0	45417	363	9464
0	45642	363.5	9458
0	45646	363.50706143448	9456
0	45647	363.514464141756	9454
0	45650	363.521868415079	9451
0	45653	363.529275038717	9449
0	45656	363.53668323006	9447
0	45661	363.544092989772	9445
0	45664	363.551504318517	9443
0	45667	363.55891721696	9441
0	45670	363.566331685766	9439
0	45673	363.573747725601	9437
0	45676	363.58116533713	9434
0	45679	363.58858530745	9432
0	45682	363.596006851131	9430
0	45685	363.60342996884	9428
0	45689	363.610854661246	9426
0	45692	363.618280929016	9424
0	45695	363.625708772819	9422
0	45698	363.633138193324	9420
0	45703	363.640569191201	9417
0	45706	363.648002556392	9415
0	45709	363.65543750063	9413
0	45712	363.662874024586	9411
0	45717	363.670312128932	9409
0	45720	363.67775181434	9407
0	45723	363.685193081481	9405
0	45729	363.692635931029	9402
0	45734	363.700081155449	9400
0	45737	363.70752796396	9398
0	45744	363.717545692217	9395
0	45747	363.724996463904	9393
0	45754	363.732448822043	9391
0	45764	363.86847532166	9352
0	45770	363.889253069824	9346
0	45779	363.936049297794	9333
0	45784	363.944161829964	9330
0	45791	363.976868783562	9321
0	45795	364	9314
0	45854	364.5	9954
0	45857	364.508010069802	9984
0	45866	364.598951011114	9610
0	45871	364.616938456256	9534
0	45876	364.6289671922	9483
0	45881	364.651813653499	9387
0	45886	364.717766463923	9110
0	45891	364.864405305159	8494
0	45898	364.896296543216	8434
0	45901	364.904596282367	8443
0	45908	365	8556
0	45982	365.5	9948
0	45991	365.659295211129	9934
0	45998	365.707926596789	9930
0	46003	365.722822580684	9928
0	46010	365.751226650531	9926
0	46015	365.759990640496	9925
0	46022	365.800799681459	9922
0	46031	365.931260843112	9847
0	46036	366	9801
0	46039	366.025698071665	9783
0	46046	366.210425767056	9658
0	46051	366.263520470393	9622
0	46058	366.328331076137	9578
0	46063	366.407169570853	9525
0	46068	366.418620905054	9517
0	46073	366.429991349727	9509
0	46079	366.457486947385	9490
0	46083	366.5	9462
0	46129	367	9123
0	46155	367.5	9098
0	46237	368	8568
0	46270	368.5	8415
0	46312	369	9164
0	46351	369.5	9060
0	46392	370	9303
0	46436	370.5	9435
0	46471	371	9518
0	46717	371.5	9122
0	46751	372	8727
0	46786	372.5	8914
0	46912	373	8294
0	46956	373.5	8998
0	47004	374	9356
0	47055	374.5	8920
0	47105	375	8518
0	47130	375.5	8730
0	47232	376	8392
0	47311	376.5	8444
0	47344	377	8496
0	47386	377.5	8548
0	47415	378	8538
0	47453	378.5	8741
0	47492	379	8929
0	47521	379.5	9116
0	47555	380	9304
0	47595	380.5	9498
0	47626	381	9721
0	47627	381.007059298104	9721
0	47628	381.014260203361	9722
0	47631	381.021460367936	9722
0	47634	381.028660532511	9723
0	47637	381.035859956557	9724
0	47642	381.043058640226	9724
0	47645	381.050257323895	9725
0	47648	381.05745526734	9725
0	47651	381.064653210785	9726
0	47654	381.071850414157	9727
0	47657	381.079046877609	9727
0	47660	381.086243341061	9728
0	47663	381.093439064745	9728
0	47666	381.100634788429	9729
0	47672	381.107829772497	9730
0	47675	381.115024017101	9730
0	47678	381.122218261705	9731
0	47682	381.129411766997	9732
0	47686	381.136604533129	9732
0	47690	381.143797299261	9733
0	47693	381.150989326385	9733
0	47696	381.158181353509	9734
0	47699	381.165372641777	9735
0	47702	381.17256319134	9735
0	47705	381.179753740903	9736
0	47708	381.186943551914	9736
0	47711	381.194133362925	9737
0	47714	381.201322435535	9738
0	47717	381.208510769895	9738
0	47720	381.215699104255	9739
0	47723	381.222886700517	9739
0	47726	381.230074296779	9740
0	47731	381.237261155095	9741
0	47736	381.244447275617	9741
0	47739	381.251633396139	9742
0	47742	381.258818779017	9742
0	47746	381.266004161895	9743
0	47749	381.273188807281	9744
0	47752	381.280372715327	9744
0	47758	381.287556623373	9745
0	47761	381.29473979423	9745
0	47764	381.301922965087	9746
0	47767	381.309105398906	9747
0	47771	381.316287095838	9747
0	47774	381.32346879277	9748
0	47777	381.330649752967	9748
0	47780	381.337830713164	9749
0	47783	381.345010936777	9750
0	47786	381.352190423956	9750
0	47789	381.359369911135	9751
0	47793	381.366548662032	9751
0	47796	381.373727412929	9752
0	47799	381.380905427695	9753
0	47802	381.388082706481	9753
0	47805	381.395259985267	9754
0	47808	381.402436528224	9754
0	47812	381.409613071181	9755
0	47815	381.416788878459	9756
0	47820	381.42396395021	9756
0	47825	381.431139021961	9757
0	47828	381.438313358335	9758
0	47831	381.445486959483	9758
0	47834	381.452660560631	9759
0	47837	381.459833426703	9759
0	47840	381.467006292775	9760
0	47844	381.474178423923	9761
0	47847	381.481349820296	9761
0	47850	381.488521216669	9762
0	47854	381.495691878419	9762
0	47857	381.5	9763
0	47862	381.507495449192	9763
0	47863	381.514665376468	9764
0	47866	381.521834569422	9765
0	47871	381.529003028203	9765
0	47874	381.536171486984	9766
0	47877	381.543339211743	9766
0	47880	381.550506936502	9767
0	47883	381.55767392739	9768
0	47888	381.564840184556	9768
0	47891	381.572006441722	9769
0	47894	381.579171965317	9769
0	47897	381.586337488912	9770
0	47900	381.593502279086	9771
0	47903	381.600666335989	9771
0	47908	381.607830392892	9772
0	47911	381.614993716674	9772
0	47914	381.622157040456	9773
0	47918	381.629319631267	9767
0	47923	381.636486622155	9726
0	47926	381.643683825527	9685
0	47929	381.650911497184	9644
0	47932	381.658169896189	9603
0	47937	381.665459284922	9561
0	47946	381.67660658038	9497
0	47952	381.699200245635	9369
0	47959	381.766707099858	9246
0	47964	381.838713870583	9201
0	47970	381.894712469438	9216
0	47976	381.934047019747	9297
0	47981	382	9433
0	48062	382.5	9889
0	48068	382.544894559317	9891
0	48075	382.575734149172	9893
0	48080	382.587177290109	9894
0	48087	382.7012060953	9899
0	48093	382.717805667648	9900
0	48101	382.772235962866	9902
0	48107	382.792126783118	9903
0	48110	382.799195348199	9904
0	48119	382.837225052881	9906
0	48125	382.908979637638	9909
0	48130	382.935859117514	9910
0	48135	383	9914
0	48138	383.020452283446	9914
0	48144	383.060196388218	9916
0	48149	383.150780791876	9921
0	48156	383.354685687771	9931
0	48161	383.364320410053	9931
0	48166	383.403526471047	9933
0	48172	383.470116399292	9936
0	48175	383.477161487859	9937
0	48182	383.5	9938
0	48187	383.561694938968	9941
0	48194	383.667418259154	9946
0	48200	383.731576738255	9949
0	48207	383.821662945444	9953
0	48210	383.828696000804	9954
0	48222	383.905725074572	9957
0	48227	383.939077042093	9959
0	48232	383.972913848939	9961
0	48236	384	9962
0	48241	384.18257173544	9971
0	48248	384.276336885757	9975
0	48253	384.330200817773	9978
0	48258	384.362190713028	9979
0	48265	384.440989176493	9983
0	48269	384.5	9986
0	48273	384.52085566882	9987
0	48279	384.532840831027	9988
0	48284	384.592049980988	9991
0	48292	384.667610409528	8581
0	48298	384.710589948353	8220
0	48306	384.861869363337	8815
0	48309	384.86981037298	8846
0	48318	384.940210924644	9123
0	48321	384.947883839255	9153
0	48328	384.962109312199	9209
0	48334	384.998643864346	9114
0	48336	385	9081
0	48369	385.5	8141
0	48496	386	8145
0	48522	386.5	8149
0	48607	387	8153
0	48636	387.5	9056
0	48681	388	8787
0	48724	388.5	8517
0	48772	389	8370
0	48988	389.5	8797
0	49023	390	9224
0	49051	390.5	8818
0	49079	391	8083
0	49232	391.5	8708
0	49309	392	9337
0	49359	392.5	8423
0	49416	393	8721
0	49445	393.5	8211
0	49479	394	9078
0	49595	394.5	9572
0	49674	395	9312
0	49704	395.5	8320
0	49780	396	9497
0	49802	396.5	9523
0	49833	397	9225
0	49941	397.5	8927
0	50007	398	9150
0	50047	398.5	8458
0	50078	399	9878
0	50079	399.005364750324	9872
0	50080	399.012455512074	9864
0	50084	399.019552024645	9855
0	50088	399.026655018049	9847
0	50091	399.03376378214	9839
0	50094	399.040878326301	9831
0	50097	399.047998659939	9823
0	50101	399.055124792485	9814
0	50104	399.062257460103	9806
0	50108	399.069395946744	9798
0	50113	399.07654026191	9790
0	50116	399.083690415128	9782
0	50120	399.090846415946	9773
0	50123	399.098009006757	9765
0	50126	399.105177465538	9757
0	50130	399.112351801912	9749
0	50133	399.119532025525	9740
0	50136	399.126718883841	9732
0	50139	399.133911649973	9724
0	50143	399.141110333642	9716
0	50147	399.148314944593	9707
0	50150	399.155526235414	9699
0	50158	399.252126991281	9588
0	50163	399.299136673873	9534
0	50169	399.339764137192	9487
0	50175	399.380120619792	9441
0	50180	399.40513249985	9412
0	50185	399.42632735532	9387
0	50190	399.447407576172	9363
0	50193	399.454883812421	9355
0	50202	399.5	9303
0	50229	400	8727
1	1309	10	8926
1	1386	10.5	8872
1	1422	11	9596
1	1488	11.5	9516
1	1524	12	8561
1	1586	12.5	8033
1	1601	13	8065
1	1672	13.5	9233
1	1703	14	9492
1	1808	14.5	9544
1	1840	15	9693
1	1868	15.5	9679
1	1897	16	9177
1	1928	16.5	8911
1	1961	17	8819
1	1995	17.5	9641
1	2034	18	9450
1	2056	18.5	9055
1	2092	19	8661
1	2340	19.5	9406
1	2452	20	9720
1	2457	20.074892443984	9720
1	2462	20.104404844628	9720
1	2467	20.122678182596	9719
1	2470	20.129880569673	9719
1	2477	20.142910890629	9719
1	2480	20.150113277706	9719
1	2487	20.158859552095	9719
1	2492	20.197554931107	9719
1	2497	20.224814268933	9718
1	2500	20.232017397149	9718
1	2505	20.239220525365	9718
1	2510	20.246423653581	9718
1	2520	20.493168772283	9569
1	2522	20.5	9550
1	2597	21	8334
1	2707	21.5	8798
1	2754	22	9315
1	2839	22.5	8670
1	2898	23	8385
1	2938	23.5	8274
1	3085	24	8404
1	3106	24.5	9326
1	3175	25	9775
1	3206	25.5	9541
1	3207	25.5	9541
1	3236	26	9313
1	3237	26	9313
1	3276	26.5	9230
1	3310	27	9551
1	3344	27.5	9128
1	3374	28	8933
1	3395	28.5	8605
1	3423	29	8113
1	3467	29.5	9321
1	3698	30	8963
1	3805	30.5	8905
1	3875	31	8015
1	3973	31.5	8278
1	4020	32	8592
1	4076	32.5	8778
1	4148	33	8492
1	4203	33.5	8789
1	4231	34	9086
1	4348	34.5	9384
1	4374	35	9503
1	4493	35.5	9411
1	4512	36	8847
1	4573	36.5	8283
1	4603	37	9471
1	4636	37.5	9439
1	4761	38	8817
1	4806	38.5	8406
1	4829	39	8757
1	4868	39.5	8257
1	4911	40	8936
1	4942	40.5	8723
1	4973	41	8980
1	5208	41.5	8661
1	5249	42	8343
1	5290	42.5	8366
1	5421	43	8546
1	5491	43.5	8348
1	5532	44	8195
1	5585	44.5	8916
1	5640	45	8558
1	5682	45.5	9017
1	5804	46	9321
1	5858	46.5	9363
1	5887	47	9404
1	5920	47.5	9417
1	5959	48	8874
1	6118	48.5	9317
1	6144	49	9860
1	6189	49.5	8902
1	6223	50	9039
1	6253	50.5	9756
1	6283	51	9680
1	6486	51.5	9150
1	6547	52	8210
1	6580	52.5	8590
1	6610	53	9220
1	6726	53.5	9769
1	6733	53.626677764196	9819
1	6736	53.633806799739	9810
1	6744	53.701595926808	9725
1	6749	53.816570704326	9581
1	6758	54	9592
1	6840	54.5	9625
1	6897	55	9445
1	6922	55.5	9181
1	6955	56	8917
1	6991	56.5	8582
1	7133	57	8245
1	7170	57.5	9010
1	7208	58	8613
1	7250	58.5	9436
1	7279	59	9409
1	7319	59.5	9171
1	7529	60	8738
1	7568	60.5	8306
1	7599	61	9009
1	7637	61.5	8205
1	7749	62	8914
1	7827	62.5	9653
1	7830	62.517052262533	9679
1	7836	62.628865157006	9844
1	7841	62.650840947862	9876
1	7848	62.659138399739	9889
1	7851	62.66621697189	9899
1	7859	62.699241218953	9741
1	7865	62.756335954764	9409
1	7870	62.805004408825	9273
1	7875	62.826974897996	9212
1	7882	62.976408322278	8794
1	7886	63	8728
1	7975	63.5	9918
1	8007	64	9741
1	8008	64	9741
1	8044	64.5	9563
1	8181	65	9341
1	8190	65.200580896024	9246
1	8193	65.208151737469	9242
1	8204	65.275152857164	8152
1	8211	65.314631131952	8144
1	8217	65.332006836825	8141
1	8223	65.355276549612	8136
1	8233	65.486443493475	8216
1	8238	65.5	8242
1	8265	66	9202
1	8299	66.5	9492
1	8332	67	8551
1	8333	67	8551
1	8373	67.5	8567
1	8408	68	8965
1	8621	68.5	9357
1	8661	69	8134
1	8662	69	8134
1	8692	69.5	8393
1	8738	70	8638
1	8912	70.5	8882
1	8971	71	9126
1	9049	71.5	9053
1	9103	72	8923
1	9131	72.5	8793
1	9161	73	9861
1	9163	73.008605851979	9863
1	9164	73.015703084058	9864
1	9167	73.022799596629	9866
1	9172	73.02989467062	9867
1	9175	73.03698902554	9869
1	9180	73.044081942756	9870
1	9183	73.051174141338	9872
1	9186	73.058264903088	9873
1	9189	73.065354946641	9875
1	9192	73.072443554236	9876
1	9197	73.07953144407	9878
1	9200	73.086617898818	9879
1	9203	73.093703636241	9881
1	9206	73.100787939449	9882
1	9209	73.107871525768	9884
1	9212	73.114953678743	9885
1	9215	73.122035115263	9886
1	9221	73.129115835473	9888
1	9225	73.136195123499	9889
1	9228	73.14327369565	9891
1	9233	73.150350836485	9892
1	9240	73.174808138944	9898
1	9246	73.181880274729	9899
1	9249	73.188951696085	9900
1	9256	73.210715611366	9905
1	9263	73.247040380968	9891
1	9268	73.261570007264	9834
1	9273	73.296984128346	9694
1	9277	73.304205089765	9666
1	9286	73.418770849418	9214
1	9290	73.426367984213	9184
1	9297	73.483313380467	8960
1	9301	73.5	8894
1	9381	74	9287
1	9403	74.5	9917
1	9404	74.5	9917
1	9432	75	9393
1	9463	75.5	9016
1	9502	76	8357
1	9536	76.5	8968
1	9731	77	9224
1	9758	77.5	9250
1	9797	78	9328
1	9839	78.5	9406
1	9984	79	9210
1	10040	79.5	9115
1	10093	80	8868
1	10170	80.5	8741
1	10186	81	8748
1	10219	81.5	8793
1	10316	82	9926
1	10320	82.009447827804	9937
1	10326	82.026451343292	9913
1	10331	82.041489787066	9892
1	10337	82.099438580076	9811
1	10347	82.208020907957	9658
1	10353	82.223519411777	9636
1	10360	82.300359843529	9528
1	10365	82.353203428568	9454
1	10371	82.39829764231	9423
1	10376	82.413124282334	9429
1	10381	82.444085797126	9440
1	10386	82.5	9460
1	10415	83	9640
1	10444	83.5	9820
1	10467	84	9715
1	10507	84.5	9135
1	10547	85	8555
1	10740	85.5	8899
1	10769	86	8595
1	10799	86.5	8007
1	10837	87	8278
1	10991	87.5	8557
1	11025	88	8837
1	11089	88.5	8663
1	11148	89	8527
1	11170	89.5	9054
1	11200	90	9542
1	11201	90.007599609163	9544
1	11202	90.014934060127	9546
1	11206	90.022266974437	9549
1	11209	90.029597584972	9551
1	11212	90.036926660461	9553
1	11215	90.044254201548	9556
1	11218	90.051579442234	9558
1	11221	90.058903150123	9560
1	11224	90.066225325855	9563
1	11227	90.073545204554	9565
1	11230	90.080863552698	9567
1	11233	90.088180370927	9570
1	11236	90.095494895483	9572
1	11241	90.102807891722	9574
1	11246	90.110119360283	9577
1	11249	90.117428538523	9579
1	11258	90.16209597148	9351
1	11261	90.169581801872	9348
1	11270	90.303483289464	9286
1	11278	90.367855537188	9478
1	11283	90.381103843554	9551
1	11288	90.393007539456	9616
1	11294	90.435789995293	9638
1	11297	90.443052912911	9639
1	11305	90.5	9646
1	11310	90.689560008667	9672
1	11317	90.787186609113	9685
1	11324	91	9713
1	11358	91.5	9780
1	11396	92	9757
1	11397	92	9757
1	11435	92.5	9442
1	11436	92.5	9442
1	11465	93	8156
1	11500	93.5	9735
1	11501	93.507474639616	9733
1	11502	93.51466666674	9732
1	11505	93.521859432872	9730
1	11508	93.529053677476	9728
1	11511	93.53624940116	9726
1	11514	93.543446604532	9725
1	11517	93.550644547977	9723
1	11520	93.557843972023	9721
1	11523	93.56504487728	9719
1	11526	93.572247264357	9718
1	11529	93.579450392573	9716
1	11534	93.586655003524	9714
1	11537	93.593861097821	9712
1	11540	93.601068676075	9711
1	11544	93.608276996536	9709
1	11547	93.615486801871	9707
1	11554	93.622698092692	9705
1	11558	93.629910869611	9704
1	11561	93.637124389809	9702
1	11564	93.644339397024	9700
1	11567	93.651555891869	9698
1	11570	93.658773874958	9697
1	11573	93.665992602399	9695
1	11576	93.673212819005	9693
1	11581	93.680434525391	9691
1	11588	93.687657722172	9690
1	11591	93.69488166438	9688
1	11595	93.702107097906	9686
1	11601	93.709334023365	9684
1	11604	93.716562441374	9683
1	11607	93.723791605889	9681
1	11610	93.731022263879	9679
1	11613	93.738254415961	9677
1	11616	93.745488062752	9676
1	11619	93.75272245713	9674
1	11624	93.759958347144	9672
1	11627	93.767195733414	9670
1	11630	93.774434616558	9669
1	11635	93.781674248371	9667
1	11638	93.788915377987	9665
1	11641	93.796158006026	9663
1	11646	93.803402133109	9662
1	11652	93.810647009946	9660
1	11655	93.817893386758	9658
1	11658	93.825141264165	9656
1	11662	93.83239064279	9655
1	11665	93.839640772257	9653
1	11669	93.846892403874	9651
1	11672	93.854145538264	9649
1	11677	93.86140017605	9648
1	11682	93.868655565768	9646
1	11685	93.875912459817	9644
1	11688	93.883170858822	9642
1	11691	93.890430763406	9640
1	11696	93.897692174194	9639
1	11699	93.904954338319	9637
1	11702	93.912218009586	9635
1	11705	93.919483188621	9633
1	11708	93.92674987605	9632
1	11711	93.93401731791	9630
1	11718	93.944440664175	9627
1	11724	93.971742161911	9621
1	11731	94	9614
1	11764	94.5	9617
1	11765	94.5	9617
1	11805	95	9656
1	11840	95.5	9694
1	11991	96	9732
1	11994	96.072640160616	9737
1	11999	96.114515570852	9741
1	12005	96.133805292538	9742
1	12010	96.200234221537	9747
1	12013	96.207415918469	9748
1	12018	96.214596878666	9748
1	12023	96.221777838863	9749
1	12033	96.268065116104	9752
1	12038	96.292777001564	9754
1	12044	96.412402334398	9685
1	12048	96.5	9508
1	12102	97	8497
1	12184	97.5	9560
1	12210	98	8757
1	12211	98	8757
1	12252	98.5	8452
1	12355	99	8314
1	12408	99.5	9417
1	12447	100	8915
1	12491	100.5	9439
1	12519	101	9537
1	12553	101.5	9768
1	12595	102	9216
1	12821	102.5	8006
1	12843	103	8157
1	12868	103.5	9294
1	12908	104	9208
1	13037	104.5	9020
1	13102	105	9724
1	13109	105.19617655492	9623
1	13115	105.272670720214	9583
1	13120	105.28054576903	9579
1	13125	105.296521501396	9571
1	13130	105.318918223006	9560
1	13133	105.326240398738	9556
1	13141	105.493167451903	9470
1	13143	105.5	9466
1	13224	106	9209
1	13272	106.5	8951
1	13311	107	8694
1	13457	107.5	8436
1	13524	108	8180
1	13554	108.5	8536
1	13594	109	9677
1	13629	109.5	9089
1	13816	110	9146
1	13836	110.5	9342
1	13937	111	9538
1	13961	111.5	9734
1	13988	112	9795
1	13989	112	9795
1	14017	112.5	9868
1	14018	112.507147233	9869
1	14019	112.514240150216	9870
1	14022	112.521332348798	9872
1	14026	112.528423110548	9873
1	14029	112.535513154101	9874
1	14032	112.542602479602	9875
1	14035	112.549691087197	9876
1	14038	112.556778977031	9877
1	14041	112.563866149249	9878
1	14044	112.570952603997	9879
1	14047	112.57803834142	9880
1	14050	112.585123361663	9882
1	14053	112.592206947982	9883
1	14056	112.599289817556	9884
1	14059	112.606371970531	9885
1	14062	112.613453407051	9886
1	14071	112.682097213639	9897
1	14076	112.762288394171	9909
1	14081	112.824783653534	9919
1	14087	112.870063035829	9926
1	14092	112.887963727469	9929
1	14100	112.945935516398	9883
1	14105	112.953624694597	9876
1	14111	113	9831
1	14169	113.5	9354
1	14195	114	8876
1	14230	114.5	8729
1	14272	115	9175
1	14428	115.5	9621
1	14505	116	9965
1	14510	116.058113074297	9830
1	14518	116.202707396837	9414
1	14523	116.227525903337	9391
1	14526	116.234979848604	9383
1	14534	116.271666532474	9348
1	14539	116.315874076642	9306
1	14544	116.350372188809	9273
1	14551	116.410735656757	9215
1	14554	116.418331967121	9208
1	14565	116.471275697198	9157
1	14570	116.5	9130
1	14603	117	8735
1	14634	117.5	9203
1	14656	118	9672
1	14787	118.5	9685
1	14845	119	9363
1	14873	119.5	8463
1	14901	120	9258
1	14918	120.5	9984
1	14960	121	9974
1	14961	121.008451044308	9974
1	14962	121.015469291751	9974
1	14965	121.022487539194	9974
1	14968	121.029505786637	9974
1	14971	121.03652403408	9973
1	14974	121.043542985248	9973
1	14977	121.050561936416	9973
1	14980	121.057580887584	9973
1	14983	121.064599838752	9973
1	14986	121.07161878992	9973
1	14991	121.078637741088	9973
1	14994	121.085656692256	9973
1	14997	121.092675643424	9972
1	15000	121.099695298458	9972
1	15007	121.106714953492	9972
1	15010	121.113734608526	9972
1	15013	121.12075426356	9972
1	15016	121.127773918594	9972
1	15019	121.134793573628	9972
1	15022	121.141813228662	9971
1	15025	121.148833587703	9971
1	15029	121.155853946744	9971
1	15032	121.162874305785	9971
1	15036	121.169894664826	9971
1	15039	121.176915023867	9971
1	15044	121.183935382908	9971
1	15047	121.190955741949	9971
1	15050	121.19797610099	9970
1	15053	121.20499716418	9970
1	15056	121.21201822737	9970
1	15061	121.21903929056	9970
1	15064	121.22606035375	9970
1	15067	121.23308141694	9970
1	15074	121.247526719968	9969
1	15081	121.26704696466	9969
1	15084	121.274068732139	9969
1	15091	121.292919674052	9969
1	15097	121.352886423389	9967
1	15102	121.378580545948	9967
1	15107	121.394016975767	9967
1	15112	121.481168977763	9965
1	15116	121.5	9965
1	15119	121.521007593246	9964
1	15126	121.577417718106	9963
1	15132	121.605152358262	9963
1	15138	121.697408918025	9961
1	15143	121.708338280762	9961
1	15150	121.839453273825	9958
1	15155	121.864566710795	9958
1	15160	121.883637433346	9957
1	15166	121.899197174185	9957
1	15171	121.919905104611	9957
1	15177	121.958553840748	9956
1	15183	121.981570307626	9955
1	15188	121.989681819077	9955
1	15194	122	9955
1	15209	122.5	9946
1	15210	122.505586919204	9946
1	15212	122.512624924432	9945
1	15222	122.564723968429	9944
1	15228	122.653018103021	9943
1	15237	122.68061811023	9547
1	15249	122.745806808106	8625
1	15255	122.782957847537	9179
1	15260	122.797402701264	9395
1	15267	122.870618207179	9910
1	15273	123	9828
1	15305	123.5	9509
1	15306	123.507311468561	9505
1	15307	123.514676013537	9500
1	15311	123.52204443459	9495
1	15314	123.529416735801	9490
1	15317	123.536792921259	9486
1	15320	123.544172217063	9481
1	15323	123.55155540449	9476
1	15328	123.558942487647	9472
1	15331	123.56633269035	9467
1	15334	123.573726796191	9462
1	15337	123.581124809296	9458
1	15340	123.588525951186	9453
1	15347	123.631088203276	9426
1	15352	123.642739567143	9418
1	15357	123.849644036214	9287
1	15363	123.952491481997	9221
1	15368	123.990384716353	9197
1	15372	124	9191
1	15434	124.5	9642
1	15510	125	9741
1	15536	125.5	8239
1	15537	125.5	8239
1	15576	126	9693
1	15608	126.5	9670
1	15651	127	9768
1	15652	127	9768
1	15690	127.5	9684
1	15718	128	8627
1	15742	128.5	8237
1	15773	129	8837
1	15801	129.5	8775
1	16030	130	9266
1	16199	130.5	9441
1	16257	131	9277
1	16338	131.5	9726
1	16341	131.521814786189	9751
1	16349	131.640072089229	9599
1	16356	131.694534923673	9502
1	16361	131.718625227984	9459
1	16366	131.740938657503	9419
1	16371	131.798968414572	9315
1	16377	131.882370921541	9166
1	16382	131.89000784059	9152
1	16386	131.897656441989	9138
1	16394	131.959285896076	9028
1	16398	132	8955
1	16462	132.5	8595
1	16524	133	9833
1	16530	133.014580450857	9842
1	16535	133.091898200608	9887
1	16542	133.252238190443	9696
1	16547	133.285193921266	9420
1	16552	133.314520945136	9174
1	16560	133.371143802253	8699
1	16567	133.395753590666	8600
1	16573	133.5	8616
1	16600	134	8717
1	16710	134.5	8690
1	16773	135	8548
1	16858	135.5	8406
1	16899	136	8496
1	16942	136.5	8819
1	16970	137	8484
1	17131	137.5	9538
1	17164	138	9616
1	17196	138.5	9454
1	17226	139	9127
1	17375	139.5	9092
1	17431	140	9215
1	17475	140.5	8737
1	17530	141	9079
1	17559	141.5	9282
1	17603	142	9461
1	17757	142.5	9679
1	17831	143	9627
1	17859	143.5	9576
1	17973	144	9253
1	17997	144.5	9101
1	18039	145	9211
1	18064	145.5	8700
1	18216	146	8188
1	18256	146.5	8537
1	18298	147	8191
1	18340	147.5	8518
1	18394	148	8231
1	18428	148.5	8161
1	18662	149	8091
1	18750	149.5	8071
1	18786	150	8225
1	18811	150.5	8433
1	18891	151	8934
1	18965	151.5	9377
1	19048	152	9048
1	19122	152.5	9602
1	19149	153	9782
1	19150	153.001983598867	9783
1	19151	153.009138868212	9785
1	19154	153.014681774164	9787
1	19155	153.016292675059	9788
1	19158	153.021834119111	9790
1	19161	153.021860525061	9790
1	19162	153.02344428928	9790
1	19165	153.028984272329	9792
1	19168	153.029010678279	9792
1	19171	153.02904295888	9792
1	19177	153.034864978775	9795
1	19199	153.129010347614	9829
1	19204	153.157572418586	9839
1	19213	153.273979707689	9881
1	19220	153.288882146349	9886
1	19234	153.5	9912
1	19237	153.544021634608	9861
1	19242	153.580886795385	9818
1	19247	153.615911412936	9777
1	19252	153.696251348556	9684
1	19257	153.714447067112	9662
1	19262	153.740868075662	9632
1	19268	153.815639143773	9545
1	19274	153.873886926057	9477
1	19278	153.88127322974	9468
1	19283	153.888666554624	9460
1	19290	153.901153121156	9445
1	19295	153.925857185016	9416
1	19300	153.9356965498	9405
1	19304	154	9330
1	19377	154.5	9029
1	19419	155	8982
1	19536	155.5	8832
1	19610	156	9072
1	19641	156.5	8463
1	19666	157	9036
1	19699	157.5	9050
1	19741	158	8614
1	19783	158.5	8422
1	19834	159	8745
1	19862	159.5	9176
1	19893	160	9096
1	19923	160.5	9017
1	20163	161	9792
1	20167	161.007495449192	9792
1	20168	161.014644142002	9792
1	20172	161.021792834812	9792
1	20175	161.028941527622	9793
1	20178	161.036089490453	9793
1	20181	161.043237453284	9793
1	20184	161.050385416115	9793
1	20187	161.057533378946	9793
1	20190	161.064681341777	9794
1	20193	161.071828574777	9794
1	20196	161.078975807777	9794
1	20199	161.086123040777	9794
1	20202	161.093270273777	9794
1	20205	161.100417506777	9795
1	20208	161.107564010095	9795
1	20211	161.114710513413	9795
1	20214	161.121857016731	9795
1	20217	161.129003520049	9795
1	20220	161.136150023367	9796
1	20223	161.143295797152	9796
1	20226	161.150441570937	9796
1	20229	161.157587344722	9796
1	20233	161.164733118507	9796
1	20236	161.171878892292	9797
1	20239	161.179023936693	9797
1	20245	161.186168981094	9797
1	20248	161.193314025495	9797
1	20251	161.200459069896	9797
1	20254	161.207604114297	9798
1	20257	161.214748429463	9798
1	20260	161.221892744629	9798
1	20263	161.229037059795	9798
1	20272	161.270613855426	9799
1	20279	161.420565262418	9804
1	20284	161.443647448707	9804
1	20290	161.462148942255	9805
1	20294	161.5	9806
1	20297	161.558110386868	9808
1	20305	161.675592901445	9811
1	20312	161.682727750084	9811
1	20317	161.689862598723	9811
1	20320	161.696997447362	9812
1	20323	161.704131568846	9812
1	20330	161.715278210285	9812
1	20336	161.729275196088	9813
1	20341	161.776858346804	9814
1	20344	161.783991014422	9814
1	20352	161.836085386795	9816
1	20358	161.859916741778	9816
1	20364	161.876887351878	9817
1	20369	161.892926530972	9817
1	20376	161.943781425998	9819
1	20383	161.984560390451	9820
1	20388	162	9820
1	20391	162.010466926986	9821
1	20396	162.142346606824	9824
1	20402	162.151748934884	9825
1	20409	162.226613425955	9179
1	20412	162.234239529016	9173
1	20419	162.298468525213	9123
1	20426	162.31258152734	9111
1	20431	162.363799343674	9071
1	20438	162.475325982565	8984
1	20443	162.497106867299	8967
1	20444	162.5	8965
1	20487	163	9728
1	20541	163.5	9477
1	20625	164	9048
1	20680	164.5	9015
1	20709	165	9168
1	20845	165.5	8503
1	20886	166	8199
1	20911	166.5	8917
1	21052	167	9636
1	21084	167.5	9338
1	21122	168	9016
1	21145	168.5	8776
1	21189	169	8887
1	21233	169.5	9312
1	21266	170	9624
1	21494	170.5	8829
1	21538	171	8311
1	21579	171.5	9200
1	21729	172	9052
1	21768	172.5	9124
1	21841	173	9104
1	21913	173.5	9621
1	21916	173.507557762902	9629
1	21923	173.661865976868	9789
1	21929	173.69957495179	9828
1	21934	173.733816466965	9863
1	21940	173.82196221802	9945
1	21945	173.851477942029	9903
1	21952	173.876871391364	9868
1	21959	173.921182015438	9806
1	21966	174	9676
1	22003	174.5	8564
1	22114	175	8723
1	22171	175.5	9738
1	22203	176	9005
1	22204	176	9005
1	22251	176.5	9014
1	22301	177	9435
1	22329	177.5	9452
1	22370	178	8329
1	22409	178.5	8353
1	22444	179	8266
1	22477	179.5	8117
1	22501	180	9447
1	22734	180.5	9095
1	22889	181	9121
1	22930	181.5	8352
1	22979	182	9227
1	22982	182.007477034822	9240
1	22991	182.147963998789	9486
1	22997	182.172040329507	9528
1	23003	182.201264713118	9579
1	23008	182.210788718816	9596
1	23015	182.234234712076	9534
1	23018	182.241576855982	9453
1	23025	182.276722404713	9067
1	23031	182.30601773512	8745
1	23036	182.314346219904	8653
1	23040	182.322435899784	8565
1	23049	182.402975090372	8374
1	23052	182.411334297442	8422
1	23059	182.420741500401	8476
1	23064	182.432889320285	8546
1	23068	182.5	8931
1	23134	183	9152
1	23193	183.5	8414
1	23285	184	8713
1	23303	184.5	9551
1	23304	184.506589792305	9553
1	23305	184.513917333392	9554
1	23308	184.515086806155	9554
1	23309	184.521244107518	9555
1	23312	184.522392932864	9556
1	23325	184.54157952102	9559
1	23336	184.56207726285	9563
1	23346	184.60034699214	9570
1	23357	184.633445426914	9576
1	23367	184.663503952135	9582
1	23370	184.668968739334	9583
1	23380	184.679632117076	9585
1	23403	184.787137970472	9605
1	23411	184.819392930067	9612
1	23421	184.993344740176	9644
1	23423	185	9646
1	23467	185.5	9740
1	23469	185.505379206646	9741
1	23470	185.512565327168	9742
1	23475	185.518570249559	9743
1	23476	185.519750710046	9744
1	23481	185.525754894945	9745
1	23485	185.526934618092	9745
1	23488	185.532938065802	9746
1	23491	185.534117788949	9746
1	23494	185.540120499621	9748
1	23497	185.541300222768	9748
1	23500	185.547301459818	9749
1	23503	185.548481182965	9749
1	23506	185.554481683431	9750
1	23509	185.555661406578	9750
1	23512	185.56166117061	9752
1	23515	185.562840893757	9752
1	23518	185.568839185376	9753
1	23530	185.605126681999	9742
1	23535	185.626917415759	9735
1	23541	185.728840303186	9701
1	23547	185.740469373415	9697
1	23553	185.754393966545	9692
1	23556	185.761616418051	9690
1	23566	185.862093958298	9656
1	23571	185.935541891734	9631
1	23577	186	9610
1	23598	186.5	9476
1	23599	186.5	9476
1	23634	187	9369
1	23635	187	9369
1	23665	187.5	9448
1	23697	188	9001
1	23727	188.5	8687
1	23761	189	8828
1	23940	189.5	8890
1	23969	190	8947
1	24006	190.5	9004
1	24136	191	9060
1	24212	191.5	9173
1	24287	192	9344
1	24334	192.5	9516
1	24422	193	8838
1	24446	193.5	9523
1	24470	194	8167
1	24595	194.5	9360
1	24622	195	9452
1	24668	195.5	9270
1	24698	196	9403
1	24739	196.5	9535
1	24771	197	9668
1	24812	197.5	8429
1	25040	198	9208
1	25070	198.5	9289
1	25113	199	9371
1	25264	199.5	9452
1	25339	200	9534
1	25415	200.5	9615
1	25469	201	9697
1	25527	201.5	9795
1	25561	202	9133
1	25646	202.5	9149
1	25683	203	9523
1	25716	203.5	9896
1	25717	203.5	9896
1	25752	204	9302
1	25783	204.5	8508
1	25817	205	8901
1	25857	205.5	9332
1	25884	206	9254
1	25923	206.5	9176
1	25954	207	9098
1	25994	207.5	8228
1	26235	208	8220
1	26372	208.5	8516
1	26430	209	9307
1	26491	209.5	8156
1	26563	210	8376
1	26637	210.5	8574
1	26689	211	8762
1	26763	211.5	8949
1	26803	212	9136
1	26963	212.5	9305
1	27001	213	9361
1	27039	213.5	8416
1	27062	214	8908
1	27092	214.5	8246
1	27133	215	8473
1	27174	215.5	8700
1	27208	216	8849
1	27235	216.5	8944
1	27274	217	9039
1	27514	217.5	9135
1	27679	218	9230
1	27763	218.5	9325
1	27815	219	8494
1	27894	219.5	9029
1	27974	220	8472
1	28057	220.5	8310
1	28095	221	8660
1	28120	221.5	9562
1	28121	221.504765988098	9571
1	28123	221.512079748416	9584
1	28126	221.514807958502	9589
1	28128	221.519383588149	9597
1	28131	221.521932640436	9602
1	28132	221.522107989788	9602
1	28135	221.526677534174	9610
1	28138	221.529053698422	9615
1	28139	221.529222788322	9615
1	28161	221.571774910627	9692
1	28164	221.578804266218	9704
1	28205	221.762845245317	9834
1	28212	221.778400994444	9795
1	28217	221.801985642434	9735
1	28223	221.82784962528	9669
1	28228	221.842242835117	9632
1	28233	221.856458364051	9596
1	28243	221.992207985643	9251
1	28247	222	9231
1	28304	222.5	9066
1	28333	223	9047
1	28363	223.5	9426
1	28485	224	9602
1	28521	224.5	9778
1	28547	225	9518
1	28548	225	9518
1	28600	225.5	8725
1	28631	226	9213
1	28660	226.5	9234
1	28694	227	9040
1	28903	227.5	8846
1	28928	228	8652
1	28963	228.5	9530
1	29064	229	9403
1	29133	229.5	8449
1	29221	230	8518
1	29268	230.5	8160
1	29349	231	8741
1	29398	231.5	9622
1	29495	232	9700
1	29505	232.145924016882	9529
1	29513	232.261161956357	9296
1	29518	232.28808695085	9242
1	29524	232.337277293076	9142
1	29530	232.38182613328	9052
1	29541	232.5	8814
1	29572	233	8930
1	29616	233.5	9807
1	29646	234	8136
1	29671	234.5	8878
1	29708	235	9621
1	29740	235.5	9345
1	29769	236	8749
1	29799	236.5	8958
1	29826	237	9287
1	30062	237.5	9562
1	30207	238	8680
1	30238	238.5	9354
1	30287	239	9804
1	30290	239.012993224984	9826
1	30296	239.045478615316	9808
1	30301	239.086393216275	9770
1	30307	239.126063825015	9733
1	30313	239.186001646813	9678
1	30324	239.381840581056	9498
1	30329	239.393059169776	9488
1	30334	239.408198974718	9474
1	30339	239.444893332985	9440
1	30344	239.5	9389
1	30349	239.542392203206	9338
1	30354	239.554056160567	9323
1	30359	239.568602615766	9303
1	30367	239.780754904955	9022
1	30372	239.792919802684	9006
1	30379	239.817617539491	8973
1	30382	239.825418720813	8963
1	30389	239.905623374738	8856
1	30395	239.919247087783	8838
1	30399	240	8731
1	30463	240.5	8493
1	30563	241	8318
1	30600	241.5	9500
1	30714	242	8747
1	30750	242.5	8216
1	30791	243	9088
1	30825	243.5	9080
1	30857	244	8860
1	30903	244.5	8872
1	31120	245	9229
1	31206	245.5	9586
1	31234	246	9783
1	31235	246	9783
1	31272	246.5	9567
1	31273	246.508196721311	9564
1	31275	246.515515834653	9561
1	31278	246.522837244547	9557
1	31281	246.530161718754	9554
1	31284	246.53748849288	9551
1	31290	246.544817568369	9548
1	31293	246.552148946668	9545
1	31296	246.559482629224	9542
1	31299	246.566818617486	9538
1	31302	246.574157682279	9535
1	31305	246.581499056165	9532
1	31308	246.588842740596	9529
1	31312	246.596188737028	9526
1	31315	246.603537046917	9522
1	31318	246.610888443682	9519
1	31321	246.618242157307	9516
1	31324	246.625598189253	9513
1	31327	246.632956540982	9510
1	31330	246.640317213958	9507
1	31333	246.647680209645	9503
1	31340	246.734815155372	9466
1	31345	246.758116367687	9456
1	31351	246.774212146204	9449
1	31356	246.784375575622	9444
1	31363	246.880047832554	9403
1	31371	246.961649211476	9368
1	31376	246.990626874005	9355
1	31380	247	9351
1	31467	247.5	9135
1	31522	248	8884
1	31593	248.5	8579
1	31619	249	8275
1	31645	249.5	9546
1	31674	250	9441
1	31794	250.5	9549
1	31838	251	9400
1	31839	251	9400
1	31876	251.5	9252
1	31903	252	9103
1	31932	252.5	8954
1	31960	253	8805
1	32179	253.5	8656
1	32250	254	8508
1	32283	254.5	8576
1	32320	255	8906
1	32448	255.5	8987
1	32505	256	8734
1	32556	256.5	9305
1	32609	257	9346
1	32644	257.5	9387
1	32671	258	9548
1	32714	258.5	8706
1	32843	259	9431
1	32877	259.5	8493
1	32878	259.5	8493
1	32906	260	8956
1	32932	260.5	9585
1	32965	261	8665
1	33000	261.5	9340
1	33226	262	8860
1	33285	262.5	8381
1	33315	263	8805
1	33350	263.5	9310
1	33474	264	9629
1	33478	264.053724013793	9682
1	33481	264.060953924968	9689
1	33491	264.253386868551	9877
1	33496	264.281041165459	9904
1	33504	264.395347322019	9911
1	33508	264.5	9867
1	33513	264.621403773372	9815
1	33519	264.716995397982	9775
1	33525	264.781258140592	9748
1	33533	264.889011125731	9702
1	33538	264.897070251594	9699
1	33541	264.904287490485	9696
1	33549	265	9655
1	33598	265.5	9364
1	33638	266	8681
1	33675	266.5	8898
1	33703	267	9397
1	33841	267.5	9288
1	33873	268	9515
1	33900	268.5	8376
1	33936	269	8244
1	33978	269.5	8614
1	34009	270	9544
1	34231	270.5	9581
1	34304	271	9619
1	34336	271.5	9641
1	34337	271.5026432017	9641
1	34338	271.509903859308	9641
1	34341	271.517164516916	9642
1	34344	271.5244244215	9642
1	34348	271.531684326084	9642
1	34353	271.538944230668	9642
1	34357	271.546204135252	9642
1	34360	271.553464039836	9642
1	34368	271.604197331512	9643
1	34374	271.643401895876	9644
1	34377	271.650660294881	9644
1	34386	271.755091372285	9473
1	34391	271.85809978637	9118
1	34396	271.888774392595	9012
1	34402	271.973957758237	8718
1	34407	272	8628
1	34469	272.5	8218
1	34527	273	9133
1	34598	273.5	9256
1	34653	274	9604
1	34682	274.5	9742
1	34719	275	9416
1	34818	275.5	8630
1	34851	276	8748
1	34885	276.5	8639
1	34925	277	8680
1	34960	277.5	9230
1	34998	278	8689
1	35187	278.5	8490
1	35246	279	8251
1	35270	279.5	8048
1	35299	280	8565
1	35391	280.5	8739
1	35453	281	9597
1	35457	281.075942283415	9582
1	35462	281.097253581702	9561
1	35465	281.104574991596	9554
1	35472	281.136507574359	9524
1	35477	281.144898109659	9516
1	35482	281.159720592352	9502
1	35490	281.221847675706	9443
1	35502	281.5	9179
1	35554	282	9104
1	35587	282.5	8777
1	35588	282.5	8777
1	35625	283	8526
1	35655	283.5	8375
1	35780	284	9557
1	35810	284.5	8682
1	35851	285	9527
1	35890	285.5	8516
1	35934	286	9502
1	35976	286.5	9593
1	36213	287	8729
1	36271	287.5	9071
1	36298	288	9440
1	36334	288.5	9074
1	36438	289	9671
1	36443	289.031626950902	9742
1	36450	289.125171386808	9475
1	36457	289.216089934559	9180
1	36463	289.287135803305	9218
1	36469	289.304562562687	9228
1	36475	289.339955911247	9247
1	36482	289.390631713577	9274
1	36487	289.437831946207	9300
1	36492	289.458115112146	9311
1	36496	289.5	9333
1	36565	290	9604
1	36569	290.036238483567	9623
1	36574	290.112749569663	9664
1	36582	290.21004128155	9717
1	36587	290.250175667451	9739
1	36594	290.297584012263	9764
1	36601	290.367181763328	9802
1	36607	290.389700667365	9814
1	36610	290.396833334983	9818
1	36618	290.421867979383	9831
1	36624	290.473014386753	9859
1	36629	290.480114498326	9863
1	36632	290.487211730405	9867
1	36639	290.5	9874
1	36654	291	9554
1	36757	291.5	9229
1	36784	292	8903
1	36895	292.5	9310
1	36925	293	9939
1	36964	293.5	8234
1	36965	293.5	8234
1	37006	294	8357
1	37038	294.5	8481
1	37078	295	8628
1	37105	295.5	8691
1	37140	296	9117
1	37173	296.5	8779
1	37204	297	8489
1	37417	297.5	8449
1	37522	298	8410
1	37573	298.5	8370
1	37649	299	8331
1	37693	299.5	8418
1	37778	300	8342
1	37827	300.5	8612
1	37889	301	8627
1	37921	301.5	8239
1	38021	302	8292
1	38049	302.5	8358
1	38079	303	8042
1	38117	303.5	8361
1	38166	304	8554
1	38188	304.5	8592
1	38402	305	8630
1	38430	305.5	8668
1	38463	306	8706
1	38504	306.5	8744
1	38640	307	9137
1	38711	307.5	8653
1	38768	308	8588
1	38826	308.5	9658
1	38861	309	9025
1	38894	309.5	8991
1	38998	310	8402
1	39073	310.5	8714
1	39096	311	9467
1	39143	311.5	9878
1	39181	312	8187
1	39365	312.5	8169
1	39392	313	8238
1	39474	313.5	8308
1	39502	314	8377
1	39537	314.5	8528
1	39567	315	8834
1	39676	315.5	9145
1	39714	316	9457
1	39748	316.5	8793
1	39778	317	8799
1	39817	317.5	8842
1	39944	318	8688
1	39994	318.5	8533
1	40042	319	9323
1	40076	319.5	9537
1	40105	320	9583
1	40151	320.5	9629
1	40290	321	8905
1	40319	321.5	8638
1	40347	322	9477
1	40378	322.5	8531
1	40422	323	8746
1	40447	323.5	9254
1	40612	324	9586
1	40616	324.058458112491	9596
1	40627	324.258693962284	9632
1	40632	324.2924169226	9639
1	40637	324.319260012778	9643
1	40642	324.341598731394	9647
1	40647	324.354436406801	9650
1	40653	324.415865926141	9661
1	40658	324.46258189745	9669
1	40664	324.5	9676
1	40708	325	9299
1	40825	325.5	9553
1	40853	326	9200
1	40928	326.5	8878
1	41002	327	8723
1	41051	327.5	9031
1	41077	328	9339
1	41102	328.5	9647
1	41140	329	8898
1	41173	329.5	8826
1	41212	330	8515
1	41244	330.5	9660
1	41274	331	9516
1	41320	331.5	8934
1	41347	332	8697
1	41582	332.5	9095
1	41701	333	9493
1	41763	333.5	9401
1	41837	334	9205
1	41895	334.5	8996
1	41941	335	9189
1	41994	335.5	8324
1	42037	336	9053
1	42080	336.5	8950
1	42187	337	9737
1	42205	337.291678767105	8541
1	42208	337.299874528725	8567
1	42219	337.412340880146	8926
1	42224	337.43114175138	8986
1	42229	337.440581027693	9016
1	42234	337.452883810538	9056
1	42239	337.467029078611	9101
1	42247	337.5	9206
1	42288	338	9723
1	42323	338.5	9424
1	42324	338.502852402828	9419
1	42328	338.510284189642	9408
1	42331	338.517724665832	9397
1	42334	338.525173851742	9385
1	42337	338.532632562451	9374
1	42340	338.540100025647	9363
1	42343	338.547576261896	9351
1	42346	338.555062092288	9340
1	42350	338.562556738969	9328
1	42355	338.570061027134	9317
1	42358	338.574250283458	9311
1	42359	338.577574175143	9306
1	42362	338.581768272933	9299
1	42366	338.585096203942	9294
1	42369	338.589295964083	9288
1	42372	338.59262794485	9283
1	42375	338.596832570457	9276
1	42378	338.600168610583	9271
1	42382	338.604378926645	9265
1	42385	338.607719036643	9260
1	42389	338.611934242349	9253
1	42392	338.615278431891	9248
1	42395	338.619499356366	9242
1	42398	338.622847636043	9237
1	42401	338.627073474522	9230
1	42406	338.630425854079	9225
1	42409	338.634657439852	9219
1	42425	338.810386315087	8951
1	42430	338.828652144963	8924
1	42435	338.836496161099	8912
1	42438	338.844350739196	8900
1	42448	338.88039451989	8863
1	42459	338.946886994222	9093
1	42466	339	9277
1	42497	339.5	9201
1	42536	340	8504
1	42578	340.5	8627
1	42629	341	9311
1	42671	341.5	8863
1	42710	342	8805
1	42948	342.5	8745
1	42979	343	8685
1	43005	343.5	8608
1	43194	344	8518
1	43257	344.5	8427
1	43287	345	8915
1	43326	345.5	8717
1	43388	346	8924
1	43441	346.5	8719
1	43593	347	9084
1	43634	347.5	8694
1	43654	348	8804
1	43743	348.5	9330
1	43775	349	8945
1	43812	349.5	8148
1	43848	350	8654
1	43890	350.5	8921
1	43929	351	9194
1	43959	351.5	9346
1	44002	352	9500
1	44039	352.5	9656
1	44040	352.5	9656
1	44064	353	9672
1	44065	353.008613264427	9672
1	44066	353.015850650697	9672
1	44070	353.023088036967	9672
1	44073	353.030325423237	9673
1	44076	353.037562061302	9673
1	44079	353.044798699367	9673
1	44082	353.052035337432	9673
1	44085	353.059271975497	9673
1	44088	353.066508613562	9674
1	44091	353.073744503576	9674
1	44094	353.08098039359	9674
1	44099	353.088216283604	9674
1	44102	353.095452173618	9674
1	44105	353.102688063632	9675
1	44110	353.109923205751	9675
1	44113	353.11715834787	9675
1	44118	353.124393489989	9675
1	44121	353.131628632108	9675
1	44124	353.138863774227	9676
1	44127	353.146098168605	9676
1	44130	353.153332562983	9676
1	44135	353.160566957361	9676
1	44139	353.167801351739	9676
1	44146	353.175035746117	9676
1	44149	353.182270140495	9677
1	44152	353.189503787286	9677
1	44155	353.196737434077	9677
1	44158	353.203971080868	9677
1	44162	353.211204727659	9677
1	44165	353.21843837445	9678
1	44168	353.225671273809	9678
1	44171	353.232904173168	9678
1	44174	353.240137072527	9678
1	44177	353.247369971886	9678
1	44180	353.254602871245	9679
1	44183	353.261835023327	9679
1	44186	353.269067175409	9679
1	44189	353.276299327491	9679
1	44193	353.283531479573	9679
1	44196	353.290763631655	9680
1	44199	353.297995036614	9680
1	44202	353.305226441573	9680
1	44205	353.312457846532	9680
1	44208	353.319689251491	9680
1	44213	353.32692065645	9681
1	44218	353.33415131444	9681
1	44223	353.34138197243	9681
1	44226	353.34861263042	9681
1	44229	353.35584328841	9681
1	44232	353.3630739464	9682
1	44235	353.370303857575	9682
1	44238	353.37753376875	9682
1	44243	353.384763679925	9682
1	44246	353.3919935911	9682
1	44249	353.399223502275	9683
1	44252	353.40645266679	9683
1	44255	353.413681831305	9683
1	44259	353.42091099582	9683
1	44262	353.428140160335	9683
1	44267	353.43536932485	9684
1	44270	353.442597742859	9684
1	44273	353.449826160868	9684
1	44276	353.457054578877	9684
1	44279	353.464282996886	9684
1	44282	353.471511414895	9684
1	44287	353.478739832904	9685
1	44291	353.485967504561	9685
1	44294	353.493195176218	9685
1	44297	353.5	9685
1	44481	354	8441
1	44539	354.5	8370
1	44588	355	9251
1	44658	355.5	9024
1	44722	356	8657
1	44794	356.5	9275
1	44859	357	9382
1	44889	357.5	9635
1	45038	358	9546
1	45041	358.013644177077	9537
1	45048	358.105081947846	9482
1	45051	358.111584691778	9478
1	45062	358.174617513163	9452
1	45068	358.201137596712	9485
1	45074	358.213742817414	9501
1	45081	358.269492734508	9504
1	45090	358.337464131042	9487
1	45096	358.375583597353	9478
1	45103	358.432202553573	9464
1	45111	358.476006339615	9453
1	45116	358.5	9447
1	45140	359	8808
1	45172	359.5	8883
1	45196	360	8768
1	45228	360.5	8602
1	45259	361	9589
1	45306	361.5	9203
1	45345	362	8818
1	45377	362.5	8395
1	45417	363	9268
1	45642	363.5	8926
1	45795	364	8615
1	45854	364.5	8963
1	45908	365	9311
1	45982	365.5	9659
1	46036	366	9416
1	46083	366.5	9432
1	46129	367	8974
1	46155	367.5	8697
1	46237	368	9194
1	46270	368.5	9697
1	46312	369	9521
1	46351	369.5	8544
1	46392	370	8691
1	46436	370.5	9199
1	46471	371	8880
1	46717	371.5	8886
1	46751	372	8803
1	46786	372.5	8971
1	46912	373	9257
1	46915	373.008272959885	9252
1	46922	373.156653087028	9161
1	46928	373.261725198971	9097
1	46933	373.274628915682	9089
1	46938	373.282671519702	9084
1	46946	373.402845394722	9011
1	46951	373.456868161337	8978
1	46956	373.5	8951
1	47004	374	8646
1	47055	374.5	8340
1	47105	375	8470
1	47130	375.5	9787
1	47131	375.504025324451	9791
1	47132	375.507206094297	9795
1	47133	375.51117474739	9799
1	47137	375.514352597615	9803
1	47140	375.51831833347	9808
1	47143	375.521493268838	9811
1	47146	375.525455364465	9816
1	47149	375.528628117477	9819
1	47156	375.534624777271	9826
1	47170	375.669095475881	9742
1	47175	375.69074207621	9684
1	47181	375.724350498374	9595
1	47186	375.735067188982	9567
1	47192	375.759090701048	9503
1	47198	375.781477227796	9443
1	47203	375.803701313012	9385
1	47208	375.820273833926	9341
1	47217	375.932261158451	8442
1	47223	375.976287846116	8472
1	47228	375.990184345613	8481
1	47232	376	8488
1	47311	376.5	8597
1	47344	377	9126
1	47386	377.5	8855
1	47415	378	8823
1	47453	378.5	9502
1	47492	379	8982
1	47521	379.5	9402
1	47555	380	8982
1	47595	380.5	9329
1	47626	381	8600
1	47857	381.5	9329
1	47981	382	9458
1	48062	382.5	9587
1	48135	383	9464
1	48182	383.5	9080
1	48236	384	8614
1	48269	384.5	9072
1	48336	385	9135
1	48369	385.5	8732
1	48496	386	8328
1	48522	386.5	8992
1	48607	387	9271
1	48636	387.5	8305
1	48681	388	8314
1	48724	388.5	8324
1	48772	389	9465
1	48988	389.5	9055
1	49023	390	9162
1	49051	390.5	9190
1	49079	391	8754
1	49232	391.5	8643
1	49309	392	8387
1	49359	392.5	8109
1	49416	393	8252
1	49445	393.5	9892
1	49479	394	9487
1	49480	394.007833482543	9474
1	49482	394.015222125144	9460
1	49485	394.022621702311	9447
1	49488	394.030031462023	9434
1	49491	394.037451432343	9421
1	49494	394.04488164145	9408
1	49497	394.05232211764	9395
1	49500	394.059772889327	9382
1	49503	394.067233985042	9368
1	49506	394.074706230986	9355
1	49509	394.082188860596	9342
1	49512	394.089681902771	9329
1	49515	394.097185386531	9315
1	49520	394.104700147669	9302
1	49523	394.112225411053	9289
1	49526	394.119761206079	9276
1	49529	394.127307562267	9262
1	49532	394.134865325169	9249
1	49542	394.178833863211	9173
1	49547	394.188288179193	9172
[...]
24	20232	161.161822883152	0.68949721796286
24	20356	161.851320101115	0.58068041786221
24	20435	162.432000518977	0.72867273341029
24	20494	163.160673252387	0.087287907191354
24	20505	163.247961159578	0.20194787529327
24	20540	163.449909034871	0.51436931856091
24	20619	163.964278353432	0.74758509166156
24	20695	164.711863445094	0.90829522335234
24	20859	165.620158668446	0.10237003353983
24	20866	165.722528701986	0.1694270203225
24	20874	165.891955722309	1.0996269341596
24	21049	166.991582656469	0.62248431758293
24	21092	167.614066974052	0.94516415871619
24	21149	168.559231132768	0.39038687271583
24	21183	168.949618005484	0.47569667266423
24	21226	169.425314678148	0.53985644925174
24	21261	169.9651711274	0.21298573605454
24	21341	170.178156863455	0.27509219950117
24	21473	170.453249062956	0.56561706237076
24	21542	171.018866125327	1.6351821382025
24	21790	172.65404826353	0.077662762558247
24	21802	172.731711026088	0.21472568497951
24	21834	172.946436711068	0.22129905731859
24	21859	173.167735768387	0.91700694150783
24	21972	174.084742709895	0.56089210645888
24	22060	174.645634816354	0.48859874109722
24	22130	175.134233557451	0.9015307165272
24	22209	176.035764273978	0.8585544188564
24	22296	176.894318692834	0.35307623379963
24	22312	177.247394926634	0.37587288112363
24	22344	177.623267807758	0.2643778896946
24	22361	177.887645697453	0.29088329977197
24	22391	178.178528997225	1.5884910363113
24	22487	179.767020033536	0.12714885172907
24	22492	179.894168885265	1.0537167935347
24	22888	180.9478856788	0.46547634835514
24	22927	181.413362027155	0.16467960764011
24	22940	181.578041634795	0.27052171016235
24	22963	181.848563344957	0.68946059191905
24	23080	182.538023936876	0.2034075311684
24	23109	182.741431468044	1.0389201385726
24	23250	183.780351606617	0.21451861744953
24	23283	183.994870224067	0.75033392294788
24	23394	184.745204147015	0.4829427358386
24	23440	185.228146882854	0.11923453164922
24	23461	185.347381414503	1.1741042441306
24	23603	186.521485658634	0.61003729139043
24	23648	187.131522950024	1.4228155922319
24	23733	188.554338542256	0.15308315175673
24	23747	188.707421694013	0.41919510764319
24	23816	189.126616801656	0.96761852116825
24	23979	190.094235322824	0.40243914322559
24	24005	190.49667446605	0.198345324933
24	24069	190.695019790983	0.84334260154727
24	24217	191.53836239253	1.0475134546559
24	24354	192.585875847186	0.04812718692933
24	24356	192.634003034115	0.2241343743047
24	24407	192.85813740842	0.11270735309315
24	24415	192.970844761513	0.35565587441757
24	24436	193.326500635931	0.37322856136773
24	24459	193.699729197299	0.3897389284212
24	24511	194.08946812572	0.55677427711468
24	24604	194.646242402835	0.063643403316937
24	24605	194.709885806152	0.063096056535223
24	24611	194.772981862687	0.066499046221122
24	24614	194.839480908908	0.41036105908979
24	24649	195.249841967998	0.15541437897494
24	24662	195.405256346973	0.031537369032533
24	24663	195.436793716006	0.11555734846497
24	24677	195.552351064471	1.358488637629
24	24766	196.9108397021	0.17354569039311
24	24776	197.084385392493	0.16754970401825
24	24785	197.251935096511	0.26413033173986
24	24819	197.516065428251	0.081668443214859
24	24855	197.597733871466	0.34365956919736
24	25006	197.941393440663	0.9725783915817
24	25107	198.913971832245	0.029990370222165
24	25110	198.943962202467	0.1050970655943
24	25132	199.049059268061	0.10869439202804
24	25182	199.157753660089	0.5948419732976
24	25310	199.752595633387	1.2734843240378
24	25472	201.026079957425	0.25285360464812
24	25496	201.278933562073	0.09590273080967
24	25514	201.374836292883	0.32185205349308
24	25540	201.696688346376	2.2182222665274
24	25749	203.914910612903	0.37349563644271
24	25763	204.288406249346	0.7022128377264
24	25814	204.990619087072	0.072459390197626
24	25828	205.06307847727	0.43393938566253
24	25855	205.497017862933	0.72385655423205
24	25900	206.220874417165	0.082568476812538
24	25905	206.303442893978	0.02194431474299
24	25907	206.325387208721	0.083159295385534
24	25910	206.408546504107	0.061655411319932
24	25917	206.470201915427	1.5057967361328
24	26222	207.97599865156	1.4436484689005
24	26484	209.41964712046	0.16207657836357
24	26523	209.581723698824	0.2425812128142
24	26545	209.824304911638	0.005710919114994
24	26547	209.830015830753	0.1543190279729
24	26562	209.984334858726	1.1460793590599
24	26703	211.130414217786	0.065818878293406
24	26710	211.196233096079	0.09028317745349
24	26750	211.286516273532	0.55579300052249
24	26792	211.842309274054	0.67872740817018
24	26964	212.521036682224	0.46745275190213
24	26996	212.988489434126	0.4772197007531
24	27036	213.465709134879	0.73896830587664
24	27081	214.204677440756	1.3494318856489
24	27181	215.554109326405	0.6463790054334
24	27214	216.200488331838	0.77739669498644
24	27271	216.977885026824	0.25445018030658
24	27377	217.232335207131	0.09860309775025
24	27432	217.330938304881	0.61703673850213
24	27669	217.947975043383	0.034698521845479
24	27675	217.982673565228	0.8041237811437
24	27790	218.786797346372	0.2954620573484
24	27837	219.08225940372	0.14668071235722
24	27854	219.228940116077	0.1305446957492
24	27881	219.359484811826	0.61332079742202
24	27962	219.972805609248	0.34115522706751
24	28029	220.313960836316	0.11061982736535
24	28051	220.424580663681	0.24292783631939
24	28066	220.6675085	1.5258477362209
24	28264	222.193356236221	0.11946766841329
24	28278	222.312823904634	0.10443383767791
24	28294	222.417257742312	1.3245990539051
24	28448	223.741856796217	0.09215545968102
24	28464	223.834012255898	0.015518128990424
24	28469	223.849530384888	0.27848035942512
24	28495	224.128010744313	0.23933722929094
24	28511	224.367347973604	0.39139128295929
24	28535	224.758739256563	0.3719357727955
24	28570	225.130675029359	0.32569474422029
24	28596	225.456369773579	0.0182802864514
24	28597	225.47465006003	0.61087739155554
24	28641	226.085527451586	0.70224797485029
24	28681	226.787775426436	0.10106095227145
24	28688	226.888836378707	0.17040950568591
24	28717	227.059245884393	0.90727139094253
24	28924	227.966517275336	0.15061869103704
24	28936	228.117135966373	0.071795577473784
24	28941	228.188931543847	0.37008760176286
24	28989	228.55901914561	0.41643391668418
24	29063	228.975453062294	0.14866239553454
24	29086	229.124115457829	0.37516062765712
24	29132	229.499276085486	1.127889069454
24	29287	230.62716515494	0.47791295140928
24	29362	231.105078106349	0.15799768806577
24	29375	231.263075794415	0.012719325594832
24	29377	231.27579512001	0.34122699890488
24	29454	231.617022118915	0.53206822673809
24	29506	232.149090345653	0.21790413822064
24	29528	232.366994483874	0.67033000746297
24	29581	233.037324491337	0.83226513427475
24	29635	233.869589625612	0.2368682983206
24	29655	234.106457923933	0.50241250147484
24	29680	234.608870425408	0.27213490613194
24	29697	234.88100533154	0.97638014223562
24	29761	235.857385473776	0.44717523075374
24	29789	236.30456070453	1.0957008893082
24	30017	237.400261593838	0.003954962109418
24	30018	237.404216555947	0.63211915229265
24	30229	238.03633570824	1.2124673686845
24	30319	239.248803076925	1.7711953402418
24	30568	241.019998417167	0.88867861561439
24	30692	241.908677032781	0.20569217654746
24	30720	242.114369209328	0.064850433483059
24	30726	242.179219642811	0.47299305784367
24	30767	242.652212700655	0.49183425539696
24	30801	243.144046956052	0.10860927523447
24	30807	243.252656231286	0.40333373981452
24	30832	243.655989971101	0.16491415133965
24	30843	243.820904122441	0.52934231728932
24	30892	244.35024643973	0.63131588674672
24	31118	244.981562326477	0.21389566609934
24	31138	245.195457992576	0.071036186040671
24	31146	245.266494178617	0.9773569069185
24	31250	246.243851085536	0.061193584474481
24	31255	246.30504467001	0.16203616639693
24	31264	246.467080836407	0.41688160459872
24	31365	246.883962441006	0.29581370541136
24	31407	247.179776146417	0.63408144842709
24	31506	247.813857594844	0.78044816468702
24	31596	248.594305759531	0.44693966395947
24	31623	249.04124542349	0.74737061167233
24	31663	249.788616035162	1.2498579173098
24	31845	251.038473952472	0.39483828669769
24	31871	251.43331223917	0.41646877364038
24	31896	251.84978101281	0.32640542437775
24	31920	252.176186437188	0.021945368862558
24	31924	252.198131806051	1.4159276665284
24	32192	253.614059472579	0.59081007340396
24	32272	254.204869545983	0.78047788658256
24	32317	254.985347432566	0.12362419378583
24	32363	255.108971626352	0.33639128563618
24	32447	255.445362911988	0.24417211436135
24	32469	255.689535026349	0.065113860816087
24	32475	255.754648887165	0.80712293537917
24	32563	256.561771822544	0.20213792792395
24	32587	256.763909750468	0.18599327709547
24	32597	256.949903027563	0.64085929360191
24	32650	257.590762321165	0.30966205153735
24	32666	257.900424372702	0.41807218612984
24	32693	258.318496558832	0.58409477051252
24	32826	258.902591329345	0.31821519378328
24	32854	259.220806523128	0.12166135310392
24	32863	259.342467876232	0.84434876684927
24	32918	260.186816643081	0.24796258574445
24	32928	260.434779228825	0.78365891719539
24	32972	261.21843814602	0.47788260761082
24	33102	261.696320753631	0.18750425108118
24	33188	261.883825004712	0.22157635681095
24	33236	262.105401361523	0.41141786969086
24	33286	262.516819231214	0.28559137692455
24	33308	262.802410608139	0.44236272762008
24	33334	263.244773335759	0.16033474688652
24	33342	263.405108082646	0.8893567699638
24	33500	264.29446485261	0.54509506148127
24	33530	264.839559914091	2.3842588805094
24	33795	267.2238187946	0.11410508909001
24	33813	267.33792388369	0.58262186932898
24	33865	267.920545753019	0.44885458205794
24	33893	268.369400335077	0.36089552846272
24	33919	268.73029586354	1.9374762479267
24	34252	270.667772111467	0.86217031172264
24	34347	271.52994242319	2.3871945467973
24	34648	273.917136969987	0.4683420006662
24	34674	274.385478970653	0.11582640817109
24	34683	274.501305378824	0.13676002483396
24	34693	274.638065403658	0.56179004375593
24	34793	275.199855447414	0.011336281401598
24	34794	275.211191728816	0.6871482265985
24	34846	275.898339955415	1.016022747472
24	34921	276.914362702887	0.32836910545068
24	34944	277.242731808338	0.71371292696322
24	34985	277.956444735301	0.70315918347428
24	35207	278.659603918775	0.55329270893036
24	35261	279.212896627705	0.38856420982637
24	35276	279.601460837531	0.4670149816274
24	35326	280.068475819158	1.1519777504538
24	35488	281.220453569612	0.052360005030645
24	35494	281.272813574643	1.1851649976719
24	35586	282.457978572315	0.090572136984612
24	35593	282.5485507093	1.7538049214135
24	35801	284.302355630713	0.078071928187711
24	35806	284.380427558901	0.77823056683302
24	35870	285.158658125734	1.1161966392311
24	35953	286.274854764965	0.12605963107008
24	35967	286.400914396035	0.11008900178464
24	35980	286.51100339782	1.3013686572658
24	36285	287.812372055086	0.15468382712948
24	36289	287.967055882215	0.17127247874208
24	36310	288.138328360957	0.021527348459279
24	36311	288.159855709416	1.1439718834975
24	36467	289.303827592914	0.37341408158964
24	36531	289.677241674504	0.046380389441741
24	36539	289.723622063946	1.1165997723367
24	36648	290.840221836283	1.213889743017
24	36810	292.0541115793	0.66704563031127
24	36903	292.721157209611	2.1237838984877
24	37069	294.844941108099	1.6508853937327
24	37171	296.495826501832	0.72023585970954
24	37297	297.216062361542	0.57828538160906
24	37505	297.794347743151	0.55249269948785
24	37556	298.346840442639	0.24109283744054
24	37581	298.58793328008	0.57235446859687
24	37663	299.160287748677	0.38940134399568
24	37700	299.549689092673	0.23361578279389
24	37743	299.783304875467	0.4444578671597
24	37805	300.227762742627	0.030972129809301
24	37807	300.258734872436	0.077640833942174
24	37808	300.336375706378	0.31100619579805
24	37846	300.647381902176	0.36400952191005
24	37890	301.011391424086	0.21178394698225
24	37904	301.223175371068	0.051393568236014
24	37911	301.274568939304	0.028462452232218
24	37913	301.303031391536	0.019323257013456
24	37914	301.322354648549	0.21462523158674
24	37948	301.536979880136	0.54889879277601
24	38026	302.085878672912	0.46669222943786
24	38053	302.55257090235	0.22383341570491
24	38064	302.776404318055	0.52873592997551
24	38103	303.305140248031	0.028637032918592
24	38106	303.33377728095	0.37572124730831
24	38141	303.709498528258	0.73027892708557
24	38187	304.439777455344	0.56366088240244
24	38403	305.003438337746	0.059846677763759
24	38407	305.06328501551	0.53386451258871
24	38436	305.597149528099	0.2416144377135
24	38456	305.838763965813	0.29639880782211
24	38474	306.135162773635	0.50584751269004
24	38569	306.641010286325	0.19499424965112
24	38628	306.836004535976	0.69069467702988
24	38713	307.526699213006	0.081268537364844
24	38720	307.607967750371	0.62060524354175
24	38788	308.228572993913	0.25332018395542
24	38824	308.481893177868	0.29348399007134
24	38844	308.775377167939	0.60678828163312
24	38885	309.382165449572	0.33742016589518
24	38962	309.719585615467	0.32802042759642
24	39005	310.047606043063	0.0020090028857295
24	39006	310.049615045949	0.13469626492054
24	39038	310.18431131087	0.022271009996399
24	39044	310.206582320866	0.92020104457141
24	39113	311.126783365437	1.6687142726571
24	39380	312.795497638094	0.24035774049004
24	39403	313.035855378584	0.1063964787773
24	39429	313.142251857361	0.21237086951486
24	39463	313.354622726876	0.81581491928617
24	39513	314.170437646162	0.11586294241007
24	39519	314.286300588572	0.30214136519096
24	39543	314.588441953763	0.62193547041412
24	39656	315.210377424177	0.45290403660932
24	39699	315.663281460786	0.88302980136816
24	39752	316.546311262154	0.038764043044896
24	39758	316.585075305199	0.12932251071714
24	39763	316.714397815916	0.31041973820182
24	39785	317.024817554118	0.21157534214318
24	39794	317.236392896261	0.55777550253341
24	39923	317.794168398794	0.075219723875654
24	39937	317.86938812267	0.10691579238775
24	39943	317.976303915058	2.3929259296656
24	40140	320.369229844724	0.62481623053438
24	40287	320.994046075258	0.64764921556825
24	40328	321.641695290826	0.48238993373492
24	40359	322.124085224561	0.8362679591885
24	40416	322.96035318375	1.1867526308314
24	40623	324.147105814581	0.33036005407135
24	40662	324.477465868652	0.20247331411612
24	40681	324.679939182768	0.021499120947791
24	40686	324.701438303716	0.47081277501841
24	40769	325.172251078734	0.70210994479786
24	40847	325.874361023532	0.72825465244013
24	40938	326.602615675972	0.52656964730284
24	41014	327.129185323275	0.85757943757255
24	41075	327.986764760848	0.30011738748127
24	41093	328.286882148329	0.15697138985709
24	41098	328.443853538186	0.79866377599916
24	41158	329.242517314185	1.1080312147899
24	41234	330.350548528975	0.0018753544044786
24	41238	330.352423883379	1.8145951930132
24	41423	332.167019076392	0.60515759449009
24	41660	332.772176670882	0.61629200773544
24	41750	333.388468678617	0.040285003912975
24	41757	333.42875368253	0.53256102894136
24	41833	333.961314711471	0.25862104387164
24	41872	334.219935755343	0.15458192382955
24	41879	334.374517679173	0.081693643307178
24	41882	334.45621132248	1.3006189365045
24	42009	335.756830258984	0.25757359448286
24	42039	336.014403853467	0.86645085052522
24	42176	336.880854703992	0.58906623750004
24	42240	337.469920941492	0.90452969360545
24	42314	338.374450635097	0.36557989271692
24	42420	338.740030527814	0.40787590367718
24	42475	339.147906431491	0.74716333770428
24	42524	339.895069769195	0.061284785606295
24	42528	339.956354554801	0.65413806509255
24	42588	340.610492619894	0.11272578143748
24	42597	340.723218401331	0.71734077698565
24	42666	341.440559178317	0.28232078474545
24	42688	341.722879963062	0.066497499855523
24	42692	341.789377462918	0.46868897618917
24	42831	342.258066439107	0.14812507807046
24	42902	342.406191517177	1.0580524830184
24	43001	343.464244000195	0.19101773790787
24	43080	343.655261738103	0.0056837366612264
24	43081	343.660945474764	0.22930220798674
24	43176	343.890247682751	0.24150748871802
24	43226	344.131755171469	0.1154498585857
24	43237	344.247205030055	0.056953355453153
24	43243	344.304158385508	0.16371013874545
24	43251	344.467868524253	0.98100238397729
24	43325	345.44887090823	1.3509332847493
24	43549	346.799804192979	0.81271012569542
24	43639	347.612514318674	1.8346949825074
24	43810	349.447209301181	2.0466262069211
24	43956	351.493835508102	0.87330304810298
24	44028	352.367138556205	0.1172933681897
24	44036	352.484431924395	1.4984002695772
24	44477	353.982832193972	1.9564500389383
24	44716	355.93928223291	0.45644519978184
24	44778	356.395727432692	0.30837607153755
24	44828	356.70410350423	0.11056146585442
24	44834	356.814664970084	0.073552717568345
24	44852	356.888217687652	0.30419339858724
24	44877	357.192411086239	0.22662820210752
24	44885	357.419039288347	1.2585353095606
24	45127	358.677574597908	0.16184288584104
24	45132	358.839417483749	0.93497254503206
24	45193	359.774390028781	0.31221193013987
24	45203	360.086601958921	1.5832290705611
24	45322	361.669831029482	0.046481339408794
24	45328	361.716312368891	0.1688999961712
24	45337	361.885212365062	0.030963383892163
24	45340	361.916175748954	1.8741153346028
24	45760	363.790291083557	0.10387891615072
24	45772	363.894169999708	0.14131449408447
24	45804	364.035484493792	0.47948157928823
24	45859	364.51496607308	0.5990225228961
24	45930	365.113988595976	0.14257060898673
24	45951	365.256559204963	0.23433280072716
24	45981	365.49089200569	0.1151384154174
24	45986	365.606030421107	0.0047050710134019
24	45987	365.61073549212	0.14975760218099
24	46016	365.760493094301	0.51243614271405
24	46055	366.272929237015	1.1804306507049
24	46151	367.45335988772	0.46292497466422
24	46230	367.916284862384	0.046832994249503
24	46234	367.963117856634	0.079288266363365
24	46239	368.042406122997	0.074817555235946
24	46246	368.117223678233	0.32995994738958
24	46268	368.447183625623	0.42224426240942
24	46306	368.869427888032	0.05314582722561
24	46308	368.922573715258	1.0812689241689
24	46393	370.003842639427	0.16497240471664
24	46412	370.168815044144	0.21696492384745
24	46429	370.385779967991	0.1966120373908
24	46444	370.582392005382	1.0873008890285
24	46729	371.669692894411	0.32554102160308
24	46747	371.995233916014	0.63574471110817
24	46844	372.630978627122	0.077864921243611
24	46870	372.708843548366	1.0830079856075
24	46984	373.791851533974	0.7695369614745
24	47060	374.561388495448	0.85593919737999
24	47126	375.417327692828	0.80264752714987
24	47260	376.219975219978	0.65685797688007
24	47336	376.876833196858	0.47347705078755
24	47378	377.350310247646	2.1803161468269
24	47527	379.530626394473	0.14013111561513
24	47540	379.670757510088	0.39947152777352
24	47561	380.070229037862	0.081970780191597
24	47565	380.152199818054	0.015994289889767
24	47566	380.168194107944	0.96277157958
24	47685	381.130965687524	0.17896261344903
24	47770	381.309928300973	2.2253039078439
24	48185	383.535232208817	0.88228897207052
24	48262	384.417521180888	0.086741396209631
24	48270	384.504262577098	1.1232901572067
24	48438	385.627552734305	0.51387762040767
24	48503	386.141430354713	1.3023603291572
24	48630	387.44379068387	0.48594990107876
24	48668	387.929740584949	0.18769089080536
24	48695	388.117431475754	0.21570383189535
24	48715	388.333135307649	0.51483947296272
24	48763	388.847974780612	0.30241608081844
24	48846	389.15039086143	0.10856504537867
24	48896	389.258955906809	0.011902185516311
24	48903	389.270858092325	0.31732200534736
24	48995	389.588180097672	0.44623642316173
24	49027	390.034416520834	0.18476233671152
24	49040	390.219178857546	0.5280368486947
24	49066	390.747215706241	0.80092050852561
24	49242	391.548136214767	0.19203438561789
24	49262	391.740170600385	0.17882130874294
24	49292	391.918991909128	0.85277307533486
24	49384	392.771764984463	1.2410035773603
24	49481	394.012768561823	0.7543669818929
24	49640	394.767135543716	2.7130676989691
24	49927	397.480203242685	0.44678211737792
24	49992	397.926985360063	0.47734121436385
24	50042	398.404326574427	0.27589122230124
24	50057	398.680217796728	0.33323198072604
24	50083	399.013449777454	0.48354738681094
24	50200	399.496997164265	0.19015421095722
24	50216	399.687151375222	1.7615944196922

