version 2
run Exponential-capacity-10-20210217-10:20:41-1044
attr configname Exponential-capacity
attr datetime 20210217-10:20:41
attr experiment Exponential-capacity
attr inifile aerocom.ini
attr iterationvars "$0=35, $1=2.5"
attr iterationvarsf 35,2.5-
attr measurement "$0=35, $1=2.5"
attr network Aerocom
attr processid 1044
attr repetition 0
attr replication #0
attr resultdir results
attr runnumber 10
attr seedset 0
param **.t 3s
param **.k 35ms
param **.X 0.5s
param **.m 2.5s
param **.tDistribution "\"exponential\""
param **.operationMode 0
param **.s "70 byte"
param **.dimPoolMax 10000
param **.dimPoolMin 8000
param **.nDL 10
param **.nA 1
param **.DLMaxCapacity 0
param **.trasmitting false

vector 0 Aerocom.aircraft[0].dataLink[0] actualCapacity:vector ETV
attr "" ""
attr source computeActualCapacity
vector 1 Aerocom.aircraft[0].dataLink[1] actualCapacity:vector ETV
attr "" ""
attr source computeActualCapacity
vector 2 Aerocom.aircraft[0].dataLink[2] actualCapacity:vector ETV
attr "" ""
attr source computeActualCapacity
vector 3 Aerocom.aircraft[0].dataLink[3] actualCapacity:vector ETV
attr "" ""
attr source computeActualCapacity
vector 4 Aerocom.aircraft[0].dataLink[4] actualCapacity:vector ETV
attr "" ""
attr source computeActualCapacity
vector 5 Aerocom.aircraft[0].dataLink[5] actualCapacity:vector ETV
attr "" ""
attr source computeActualCapacity
vector 6 Aerocom.aircraft[0].dataLink[6] actualCapacity:vector ETV
attr "" ""
attr source computeActualCapacity
vector 7 Aerocom.aircraft[0].dataLink[7] actualCapacity:vector ETV
attr "" ""
attr source computeActualCapacity
vector 8 Aerocom.aircraft[0].dataLink[8] actualCapacity:vector ETV
attr "" ""
attr source computeActualCapacity
vector 9 Aerocom.aircraft[0].dataLink[9] actualCapacity:vector ETV
attr "" ""
attr source computeActualCapacity
vector 10 Aerocom.aircraft[0].packetGenerator arrivalTime:vector ETV
attr "" ""
attr source computeArrivalTime
vector 11 Aerocom.aircraft[0].linkSelector waitingTime:vector ETV
attr "" ""
attr source computeWaitingTime
vector 12 Aerocom.aircraft[0].linkSelector queueLength:vector ETV
attr "" ""
attr source computeQueueLength
vector 13 Aerocom.aircraft[0].linkSelector serviceTime:vector ETV
attr "" ""
attr source computeServiceTime
vector 14 Aerocom.aircraft[0].linkSelector responseTime:vector ETV
attr "" ""
attr source computeResponseTime
vector 15 Aerocom.aircraft[0].dataLink[4] tDistribution:vector ETV
attr "" ""
attr source computeTDistribution
vector 16 Aerocom.aircraft[0].dataLink[6] tDistribution:vector ETV
attr "" ""
attr source computeTDistribution
vector 17 Aerocom.aircraft[0].dataLink[1] tDistribution:vector ETV
attr "" ""
attr source computeTDistribution
vector 18 Aerocom.aircraft[0].dataLink[5] tDistribution:vector ETV
attr "" ""
attr source computeTDistribution
vector 19 Aerocom.aircraft[0].dataLink[8] tDistribution:vector ETV
attr "" ""
attr source computeTDistribution
vector 20 Aerocom.aircraft[0].dataLink[0] tDistribution:vector ETV
attr "" ""
attr source computeTDistribution
vector 21 Aerocom.aircraft[0].dataLink[2] tDistribution:vector ETV
attr "" ""
attr source computeTDistribution
vector 22 Aerocom.aircraft[0].dataLink[7] tDistribution:vector ETV
attr "" ""
attr source computeTDistribution
vector 23 Aerocom.aircraft[0].dataLink[9] tDistribution:vector ETV
attr "" ""
attr source computeTDistribution
vector 24 Aerocom.aircraft[0].dataLink[3] tDistribution:vector ETV
attr "" ""
attr source computeTDistribution
0	1534	10	8175
0	1903	12.5	8285
0	2244	15	8730
0	2625	17.5	9092
0	2968	20	9179
0	3371	22.5	9561
0	3845	25	8619
0	4167	27.5	8414
0	4578	30	8687
0	4891	32.5	8912
0	5285	35	9078
0	5701	37.5	8993
0	6017	40	8909
0	6376	42.5	8825
0	6723	45	8891
0	7129	47.5	8372
0	7565	50	8902
0	8026	52.5	9290
0	8401	55	9354
0	8777	57.5	9414
0	9204	60	9639
0	9235	60.5	9671
0	9236	60.507238134629	9671
0	9241	60.514476269258	9671
0	9244	60.521714403887	9671
0	9247	60.528952538516	9672
0	9250	60.536189924786	9672
0	9253	60.543427311056	9672
0	9258	60.550664697326	9672
0	9261	60.557902083596	9672
0	9266	60.565139469866	9673
0	9271	60.572376107931	9673
0	9274	60.579612745996	9673
0	9277	60.586849384061	9673
0	9280	60.594086022126	9674
0	9285	60.60132191214	9674
0	9289	60.608557802154	9674
0	9292	60.615793692168	9674
0	9295	60.623029582182	9675
0	9300	60.630264724301	9675
0	9303	60.63749986642	9675
0	9310	60.73880008004	9678
0	9315	60.769631846645	9679
0	9318	60.776863998727	9680
0	9325	60.785468075332	9680
0	9330	60.795861222389	9680
0	9335	60.803715474513	9681
0	9340	60.876094155544	9683
0	9345	60.911644099101	9684
0	9350	60.935341259033	9685
0	9355	60.985398936222	9687
0	9361	61.065627673127	9689
0	9366	61.081199119541	9690
0	9369	61.088423061749	9690
0	9376	61.131574019119	9691
0	9382	61.158199100183	9692
0	9387	61.189181689746	9693
0	9393	61.203004074969	9694
0	9398	61.261054843511	9696
0	9403	61.274375524987	9696
0	9408	61.282364156799	9696
0	9413	61.303090274938	9697
0	9418	61.358795648896	9699
0	9423	61.37865928933	9700
0	9428	61.38950236404	9700
0	9433	61.404977620058	9701
0	9438	61.417374571551	9701
0	9444	61.503641176326	9704
0	9450	61.637501114301	9708
0	9455	61.683554612413	9710
0	9458	61.690763675235	9710
0	9465	61.730713436696	9711
0	9470	61.738078028309	9712
0	9475	61.750060922759	9712
0	9480	61.775813689204	9713
0	9485	61.805985846159	9714
0	9490	61.822491696375	9714
0	9495	61.875355865029	9716
0	9500	61.885057985377	9716
0	9505	61.940625010442	9718
0	9510	61.98100674216	9720
0	9515	61.995790862889	9720
0	9521	62.034513220163	9721
0	9526	62.086084942346	9723
0	9531	62.202182300566	9727
0	9536	62.248781452832	9729
0	9541	62.322584814698	9731
0	9544	62.32977831999	9731
0	9551	62.5	9737
0	9920	65	9820
0	9946	65.5	9836
0	9947	65.507116714111	9836
0	9950	65.514233428222	9837
0	9953	65.52134941887	9837
0	9956	65.528465409518	9837
0	9961	65.535581400166	9837
0	9966	65.542697390814	9838
0	9969	65.549812658145	9838
0	9974	65.556927925476	9838
0	9977	65.564043192807	9838
0	9982	65.571158460138	9839
0	9985	65.578273004299	9839
0	9988	65.58538754846	9839
0	9991	65.592502092621	9839
0	9994	65.599616636782	9840
0	9997	65.60673045792	9840
0	10002	65.613844279058	9840
0	10007	65.620958100196	9840
0	10014	65.645405180192	9841
0	10020	65.667996972178	9842
0	10025	65.717461415713	9843
0	10030	65.777483724357	9845
0	10035	65.787620973784	9846
0	10040	65.800014081787	9846
0	10046	65.894255077155	9849
0	10049	65.901362397695	9850
0	10057	66.073652902699	9855
0	10062	66.087683570177	9856
0	10065	66.094785842904	9856
0	10072	66.152823067097	9858
0	10077	66.177998454127	9859
0	10080	66.1850985657	9859
0	10088	66.252986861901	9861
0	10093	66.262014944926	9861
0	10098	66.276968611497	9862
0	10101	66.284066563231	9862
0	10106	66.291164514965	9862
0	10113	66.332004004279	9864
0	10119	66.377969026716	9850
0	10124	66.3955709613	9839
0	10129	66.52839709298	9761
0	10134	66.54142695539	9753
0	10139	66.565950441866	9739
0	10144	66.610332959201	9713
0	10149	66.627773067803	9702
0	10154	66.642103443746	9694
0	10159	66.659514892956	9684
0	10164	66.705053835281	9657
0	10169	66.760435758041	9624
0	10174	66.819532482022	9589
0	10179	66.862385888281	9564
0	10184	66.870977320156	9559
0	10189	66.884419825165	9551
0	10194	67.011914664246	9476
0	10199	67.140454249729	9400
0	10202	67.14790105824	9396
0	10209	67.224416156198	9351
0	10214	67.236444794673	9344
0	10219	67.278692285305	9319
0	10222	67.286203820877	9315
0	10229	67.305971587133	9303
0	10234	67.320807819044	9294
0	10239	67.328938506789	9289
0	10244	67.351830031477	9276
0	10249	67.390103209677	9253
0	10254	67.415951148473	9238
0	10259	67.465020341618	9209
0	10263	67.5	9189
0	10583	70	8767
0	11028	72.5	8822
0	11462	75	8289
0	11804	77.5	8436
0	12154	80	8584
0	12567	82.5	8731
0	12946	85	8359
0	13308	87.5	8124
0	13626	90	8088
0	13980	92.5	8813
0	14274	95	8703
0	14683	97.5	8545
0	15035	100	9644
0	15057	100.5	9861
0	15058	100.507098671534	9861
0	15061	100.514197343068	9861
0	15064	100.521296014602	9861
0	15067	100.528394686136	9861
0	15072	100.53549335767	9861
0	15075	100.542592029204	9861
0	15078	100.549690700738	9861
0	15083	100.556789372272	9861
0	15088	100.563888043806	9861
0	15095	100.57098671534	9861
0	15098	100.578085386874	9861
0	15103	100.585184058408	9861
0	15106	100.592282729942	9861
0	15109	100.599381401476	9861
0	15112	100.60648007301	9861
0	15119	100.663206008569	9861
0	15122	100.670304680103	9861
0	15129	100.695815836226	9861
0	15132	100.70291450776	9861
0	15137	100.710013179294	9861
0	15144	100.824481456807	9861
0	15149	100.863674277405	9861
0	15154	100.876329383143	9861
0	15159	100.912500190709	9861
0	15164	100.923356258242	9861
0	15167	100.930454929776	9861
0	15174	100.979518688061	9860
0	15179	100.990038463485	9860
0	15184	101.016339370238	9860
0	15187	101.023438761719	9860
0	15195	101.090730202547	9860
0	15200	101.098974303095	9860
0	15206	101.408051123778	9860
0	15209	101.415150515259	9860
0	15214	101.42224990674	9860
0	15221	101.429349298221	9860
0	15224	101.436448689702	9860
0	15231	101.469350373276	9860
0	15236	101.569678349182	9860
0	15239	101.576777740663	9860
0	15246	101.583877132144	9860
0	15253	101.590976523625	9860
0	15256	101.598075915106	9860
0	15259	101.605175306587	9860
0	15267	101.659079028841	9860
0	15272	101.672399636714	9859
0	15275	101.679499748287	9859
0	15282	101.687495567372	9859
0	15288	101.801805582621	9859
0	15293	101.812111566295	9859
0	15298	101.862101365621	9859
0	15303	101.910696880105	9859
0	15309	101.928834700777	9859
0	15314	102.146747087758	9859
0	15317	102.153847199331	9859
0	15324	102.175827108771	9859
0	15329	102.219348108312	9859
0	15334	102.320359161564	9859
0	15339	102.349884622486	9859
0	15346	102.367566332602	9859
0	15349	102.374666444175	9859
0	15354	102.381766555748	9859
0	15361	102.411808267393	9858
0	15366	102.430202749654	9858
0	15371	102.467684347688	9858
0	15376	102.479974892689	9858
0	15380	102.5	9858
0	15404	103	9858
0	15405	103.007100831812	9858
0	15408	103.014201663624	9858
0	15411	103.021302495436	9858
0	15414	103.028403327248	9858
0	15419	103.03550415906	9858
0	15422	103.042604990872	9858
0	15425	103.049705822684	9858
0	15428	103.056806654496	9858
0	15431	103.063907486308	9858
0	15434	103.07100831812	9858
0	15437	103.078109149932	9858
0	15444	103.122415562693	9857
0	15449	103.14596100501	9857
0	15454	103.162324377777	9857
0	15457	103.169425929973	9857
0	15464	103.218954406853	9857
0	15469	103.2366595331	9857
0	15474	103.251194250738	9857
0	15479	103.293850616101	9857
0	15484	103.302462865094	9857
0	15489	103.314198807596	9857
0	15494	103.32712618737	9857
0	15497	103.334227739566	9857
0	15504	103.355720422043	9857
0	15509	103.439190649557	9857
0	15514	103.447966807492	9857
0	15519	103.491178039407	9857
0	15524	103.537005030482	9857
0	15529	103.570438087448	9857
0	15532	103.577539639644	9857
0	15539	103.628205421906	9857
0	15544	103.656411998004	9857
0	15549	103.719612647672	9857
0	15554	103.749697664341	9857
0	15560	103.772818685691	9857
0	15565	103.786094758538	9857
0	15570	103.860652284083	9856
0	15573	103.86775455681	9856
0	15581	103.949112196451	9856
0	15586	103.974244836886	9856
0	15591	103.985334159887	9856
0	15594	103.992436432614	9856
0	15601	104.020379224365	9856
0	15606	104.086329343892	9856
0	15611	104.112501673471	9856
0	15616	104.216913987277	9856
0	15621	104.243936543816	9856
0	15626	104.254710517154	9856
0	15632	104.351842574395	9856
0	15635	104.358944847122	9856
0	15642	104.368327692781	9856
0	15647	104.380153822688	9856
0	15652	104.523667881674	9856
0	15657	104.531331487568	9856
0	15662	104.612675956551	9855
0	15665	104.619778949955	9855
0	15672	104.634472828673	9855
0	15677	104.712144000162	9855
0	15682	104.771670216776	9855
0	15687	104.826129158871	9855
0	15692	104.87742309556	9855
0	15697	104.890050924502	9855
0	15702	104.929701640267	9855
0	15707	104.965931896509	9855
0	15712	104.979421534198	9855
0	15716	105	9855
0	15746	105.5	9854
0	15747	105.507103714228	9854
0	15750	105.514207428456	9854
0	15753	105.521311142684	9854
0	15756	105.528414856912	9854
0	15759	105.53551857114	9854
0	15767	105.542622285368	9854
0	15770	105.549725999596	9854
0	15775	105.556829713824	9854
0	15778	105.563933428052	9854
0	15781	105.57103714228	9854
0	15786	105.578140856508	9854
0	15789	105.585244570736	9854
0	15792	105.592348284964	9854
0	15797	105.599451999192	9854
0	15802	105.60655571342	9854
0	15805	105.613659427648	9854
0	15808	105.620763141876	9854
0	15813	105.627866856104	9854
0	15818	105.634970570332	9854
0	15823	105.64207428456	9854
0	15826	105.649177998788	9854
0	15833	105.658995689677	9854
0	15838	105.702672115603	9854
0	15841	105.709775829831	9854
0	15848	105.771604038919	9854
0	15853	105.779408773591	9854
0	15856	105.786512487819	9854
0	15863	105.811456411333	9854
0	15868	105.823512102044	9854
0	15873	105.844888760675	9854
0	15876	105.851992474903	9854
0	15883	105.890565780027	9854
0	15888	106.000326084462	9854
0	15893	106.022090848112	9853
0	15898	106.060595044393	9853
0	15903	106.073445915674	9853
0	15908	106.189989586678	9853
0	15913	106.225347925757	9853
0	15918	106.25188516972	9853
0	15923	106.274949913978	9853
0	15928	106.331644117069	9853
0	15934	106.464571889794	9853
0	15939	106.480989215526	9853
0	15944	106.490954051816	9853
0	15950	106.506237700425	9853
0	15955	106.545581486503	9853
0	15960	106.562215091353	9853
0	15965	106.715225159569	9853
0	15970	106.752764111957	9852
0	15975	106.843890132628	9852
0	15980	106.859480288388	9852
0	15985	106.869669162065	9852
0	15990	106.95038848361	9852
0	15995	106.994875984748	9852
0	16000	107.138055483513	9852
0	16005	107.155157803056	9852
0	16008	107.162262959369	9852
0	16015	107.206114059336	9852
0	16020	107.213646208607	9852
0	16023	107.22075136492	9852
0	16028	107.227856521233	9852
0	16037	107.349056943582	9852
0	16040	107.356162099895	9852
0	16045	107.363267256208	9852
0	16050	107.370372412521	9852
0	16058	107.407369710586	9852
0	16063	107.428090536662	9852
0	16068	107.442927225352	9852
0	16073	107.5	9851
0	16387	110	9641
0	16724	112.5	8685
0	17122	115	8638
0	17478	117.5	8757
0	17809	120	8713
0	18200	122.5	8519
0	18649	125	8770
0	19021	127.5	9658
0	19046	128	9543
0	19049	128.007335219533	9542
0	19052	128.014671207795	9540
0	19055	128.022008734	9538
0	19058	128.029347798793	9537
0	19061	128.036687633122	9535
0	19066	128.044029007008	9533
0	19069	128.051371921096	9532
0	19072	128.058715605527	9530
0	19075	128.06606083113	9528
0	19078	128.073407598552	9527
0	19081	128.080755137127	9525
0	19084	128.088104218492	9523
0	19087	128.095454843295	9521
0	19094	128.156177971916	9508
0	19100	128.238557201036	9489
0	19105	128.297422783177	9475
0	19110	128.34576466362	9464
0	19115	128.416927517125	9448
0	19120	128.445751115225	9441
0	19123	128.453165584031	9439
0	19130	128.509597826759	9427
0	19135	128.612750378849	9403
0	19140	128.624153369142	9400
0	19145	128.634439852065	9398
0	19151	128.662151204345	9392
0	19156	128.69697244305	9384
0	19161	128.709138353463	9381
0	19166	128.730485132606	9376
0	19172	128.851180081144	9348
0	19178	128.884297529054	9341
0	19183	128.893272825942	9339
0	19188	128.923720330758	9332
0	19191	128.93122140234	9330
0	19198	128.975910905631	9320
0	19203	128.989711749306	9317
0	19208	129.017780165976	9310
0	19213	129.042216417311	9305
0	19218	129.070945747798	9298
0	19221	129.078474248551	9296
0	19228	129.103310511306	9291
0	19233	129.131985087369	9284
0	19238	129.14061011284	9282
0	19244	129.213190317611	9265
0	19249	129.253454271245	9256
0	19254	129.296149808594	9246
0	19259	129.438882020091	9214
0	19264	129.473021931962	9206
0	19269	129.564207040416	9185
0	19274	129.673501426836	9160
0	19279	129.682875555031	9158
0	19285	129.794062108637	9132
0	19290	129.927080481391	9102
0	19295	129.98793800699	9088
0	19299	130	9085
0	19652	132.5	8640
0	20013	135	9329
0	20403	137.5	8790
0	20769	140	9397
0	21115	142.5	9450
0	21559	145	9504
0	21911	147.5	9557
0	22313	150	8751
0	22700	152.5	9154
0	23033	155	8885
0	23376	157.5	8428
0	23695	160	8064
0	24009	162.5	8070
0	24354	165	8076
0	24678	167.5	8081
0	24987	170	8087
0	25391	172.5	9703
0	25450	173.001663199514	9181
0	25451	173.009287641296	9173
0	25456	173.016918732542	9165
0	25461	173.024556484861	9157
0	25466	173.032200909891	9149
0	25469	173.039852019302	9141
0	25474	173.047509824794	9133
0	25477	173.055174338097	9125
0	25481	173.062845570974	9117
0	25484	173.070523535217	9109
0	25487	173.078208242649	9101
0	25490	173.085899705126	9093
0	25493	173.093597934533	9085
0	25497	173.101302942788	9077
0	25500	173.109014741841	9067
0	25503	173.116735046242	9057
0	25506	173.124463874772	9047
0	25509	173.132201246276	9037
0	25512	173.139947179661	9027
0	25515	173.147701693896	9016
0	25520	173.155465669051	9006
0	25523	173.163238265098	8996
0	25526	173.171019501203	8986
0	25531	173.178809396596	8976
0	25534	173.186607970571	8966
0	25539	173.194415242487	8955
0	25542	173.202232104575	8945
0	25545	173.210057705469	8935
0	25548	173.21789206473	8925
0	25551	173.225735201985	8915
0	25554	173.233587136926	8904
0	25557	173.241448772146	8894
0	25560	173.249319246623	8884
0	25563	173.257198580256	8873
0	25571	173.322735762305	8788
0	25576	173.401343837147	8685
0	25581	173.421804629914	8659
0	25584	173.429888704287	8648
0	25591	173.489771013746	8570
0	25601	173.540270814432	8504
0	25607	173.551822937758	8489
0	25610	173.555174338097	8485
0	25620	173.576138791772	8457
0	25628	173.597884734265	8429
0	25641	173.659061414292	8349
0	25644	173.663238265098	8343
0	25658	173.710495005054	8282
0	25671	173.768674200467	8221
0	25676	173.778213513921	8221
0	25683	173.88340603493	8223
0	25688	173.893601953985	8223
0	25691	173.902114662242	8223
0	25699	173.922682002146	8224
0	25708	174.01773413966	8225
0	25718	174.11506434206	8227
0	25724	174.167094432031	8228
0	25728	174.171628532388	8228
0	25736	174.187123580518	8229
0	25742	174.238877434301	8230
0	25750	174.322721338697	8231
0	25755	174.369547394522	8232
0	25760	174.381844379387	8232
0	25769	174.448425033197	8234
0	25774	174.466850400597	8234
0	25780	174.543851515378	8236
0	25783	174.552350786869	8236
0	25791	174.622634323886	8237
0	25797	174.660078964515	8238
0	25805	174.740991486061	8239
0	25808	174.747382902102	8239
0	25818	174.880219692405	8242
0	25824	174.903438848731	8242
0	25829	174.917582710517	8243
0	25835	174.957813771099	8243
0	25841	175	8244
0	26249	177.5	8292
0	26604	180	8340
0	26965	182.5	8367
0	27295	185	8303
0	27692	187.5	8348
0	28020	190	8393
0	28401	192.5	8438
0	28801	195	9513
0	28840	195.501301082568	9466
0	28841	195.508695969532	9464
0	28844	195.516092419236	9462
0	28847	195.523490432341	9460
0	28850	195.530890009508	9458
0	28853	195.538291151398	9456
0	28856	195.545693858674	9454
0	28859	195.553098131997	9452
0	28864	195.560503972031	9450
0	28869	195.567911379438	9448
0	28872	195.575320354883	9446
0	28875	195.582730899029	9444
0	28878	195.59014301254	9442
0	28883	195.597556696082	9440
0	28886	195.604971950319	9438
0	28889	195.612388775918	9436
0	28892	195.619807173544	9434
0	28895	195.627227143864	9432
0	28898	195.634648687545	9430
0	28905	195.645638276648	9427
0	28910	195.655892996939	9424
0	28913	195.663320840742	9422
0	28920	195.739275135894	9401
0	28925	195.841702481342	9373
0	28930	195.856756079578	9369
0	28935	195.878859567606	9363
0	28938	195.886335803855	9361
0	28945	195.899080810019	9357
0	28954	196.036569764629	9320
0	28958	196.044080494243	9317
0	28963	196.045693858674	9317
0	28973	196.065060610352	9312
0	28982	196.094844256638	9304
0	28992	196.13258242732	9293
0	29002	196.181113177847	9280
0	29005	196.188656281295	9278
0	29013	196.278364482275	9253
0	29018	196.291162972458	9250
0	29021	196.298730540026	9248
0	29029	196.358522737336	9231
0	29035	196.384785467539	9224
0	29043	196.421149413134	9214
0	29046	196.428746547929	9212
0	29051	196.436345332124	9210
0	29058	196.485966571375	9196
0	29061	196.493578576595	9194
0	29066	196.501192237678	9192
0	29077	196.582301720357	9170
0	29082	196.591300045786	9168
0	29088	196.603140623152	9164
0	29099	196.829438934872	9102
0	29102	196.837129552319	9100
0	29111	196.901657973111	9083
0	29126	197.259794847457	8984
0	29131	197.296592460832	8974
0	29136	197.309538719196	8971
0	29143	197.345346892703	8961
0	29146	197.353158520869	8959
0	29153	197.381911467664	8951
0	29158	197.403592088634	8945
0	29163	197.5	8919
0	29591	200	8844
0	29908	202.5	9076
0	30220	205	9172
0	30611	207.5	8796
0	30925	210	9420
0	30965	210.503806468636	9709
0	30966	210.511016273971	9708
0	30973	210.518226821973	9708
0	30976	210.525437369975	9707
0	30979	210.532648660796	9707
0	30984	210.539859951617	9706
0	30987	210.547071985411	9706
0	30993	210.554284019205	9705
0	30996	210.561496796124	9704
0	30999	210.568710316322	9704
0	31002	210.57592383652	9703
0	31007	210.58313810015	9703
0	31010	210.59035236378	9702
0	31013	210.597567370995	9702
0	31016	210.60478237821	9701
0	31019	210.611998129164	9701
0	31022	210.619213880118	9700
0	31025	210.626430374963	9700
0	31028	210.633646869808	9699
0	31031	210.640864108699	9699
0	31036	210.64808134759	9698
0	31039	210.655299330679	9698
0	31047	210.66447522536	9697
0	31052	210.702202231377	9694
0	31057	210.795429529706	9687
0	31063	210.85677169107	9683
0	31068	210.869784687052	9682
0	31073	210.907572985109	9679
0	31079	210.991129950373	9673
0	31089	211.041011465905	9669
0	31100	211.089128047972	9666
0	31109	211.112896196367	9664
0	31116	211.128867401465	9663
0	31122	211.136891478096	9662
0	31130	211.158367193644	9661
0	31138	211.216493497014	9656
0	31143	211.288662524148	9651
0	31149	211.318024536125	9649
0	31152	211.325279173911	9648
0	31157	211.332534563629	9648
0	31162	211.339789953347	9647
0	31171	211.393310860022	9643
0	31178	211.422637090211	9641
0	31184	211.534081778659	9633
0	31195	211.674067559113	9623
0	31200	211.68893900758	9622
0	31205	211.713190345174	9620
0	31211	211.725351074783	9619
0	31216	211.758777699225	9617
0	31219	211.76605647639	9616
0	31227	211.796168793645	9614
0	31234	211.834392544841	9611
0	31241	211.875381021926	9608
0	31248	211.987144685071	9600
0	31253	212.026353521978	9597
0	31256	212.033647468003	9596
0	31264	212.104329095343	9591
0	31269	212.12756553922	9590
0	31274	212.14742416269	9588
0	31277	212.154724955347	9588
0	31289	212.25385680064	9580
0	31292	212.261163689993	9580
0	31302	212.307785530014	9576
0	31309	212.34601030582	9574
0	31315	212.357228303354	9573
0	31321	212.428018824243	9568
0	31326	212.439973559635	9567
0	31331	212.454388001586	9566
0	31336	212.472184025598	9564
0	31341	212.5	9562
0	31749	215	9337
0	32152	217.5	8913
0	32505	220	9049
0	32859	222.5	9333
0	33330	225	9535
0	33333	225.036855105966	9537
0	33338	225.081296570062	9539
0	33344	225.108157000598	9541
0	33351	225.206027714749	9547
0	33354	225.213359860973	9547
0	33361	225.225585302524	9548
0	33366	225.28065673502	9551
0	33377	225.345274602123	9555
0	33380	225.352600609449	9555
0	33388	225.415045935238	9559
0	33391	225.422368876968	9559
0	33398	225.450461238867	9561
0	33408	225.515896542196	9565
0	33413	225.545118551713	9566
0	33418	225.559985581919	9567
0	33423	225.590003008827	9569
0	33428	225.73490913362	9577
0	33433	225.747457275744	9578
0	33438	225.756895880938	9579
0	33443	225.790657125031	9581
0	33448	225.871415612472	9585
0	33453	225.881186172544	9586
0	33458	225.911037142337	9587
0	33461	225.918338696525	9588
0	33468	225.935377152535	9589
0	33473	225.954019764292	9590
0	33478	226.005360816911	9593
0	33483	226.048180829264	9595
0	33488	226.112288355912	9599
0	33493	226.146285541929	9601
0	33499	226.159405304925	9602
0	33506	226.276621837107	9617
0	33511	226.299300600767	9623
0	33517	226.335691748176	9634
0	33522	226.375102248416	9645
0	33525	226.382359894865	9647
0	33532	226.422351178945	9658
0	33535	226.429599056352	9660
0	33542	226.441005029696	9663
0	33547	226.448249156779	9665
0	33552	226.455491784818	9667
0	33555	226.462732914434	9669
0	33562	226.47261893519	9672
0	33567	226.504510272702	9681
0	33572	226.519303729596	9685
0	33577	226.583071241282	9703
0	33580	226.590285504912	9705
0	33588	226.664864793476	9726
0	33593	226.682348598593	9731
0	33598	226.700230055721	9736
0	33603	226.729863282601	9744
0	33609	226.758485069208	9752
0	33614	226.954819483026	9807
0	33621	227.012797941272	9824
0	33627	227.06231349428	9838
0	33633	227.075405907597	9841
0	33638	227.089453532933	9845
0	33643	227.121146783284	9854
0	33648	227.139958715225	9859
0	33651	227.147058826798	9861
0	33656	227.154157498332	9863
0	33663	227.173709144527	9869
0	33669	227.230869104167	9885
0	33672	227.237950540687	9887
0	33680	227.266719924172	9894
0	33685	227.288444059533	9881
0	33690	227.310876266052	9868
0	33696	227.328570135039	9858
0	33701	227.349795117024	9845
0	33706	227.369670327373	9834
0	33711	227.378934525139	9828
0	33716	227.388711191463	9823
0	33721	227.399910621758	9816
0	33724	227.407041836102	9812
0	33731	227.418711145398	9805
0	33736	227.429998706481	9799
0	33739	227.437142292561	9794
0	33744	227.444289525561	9790
0	33751	227.466937494923	9777
0	33755	227.5	9758
0	33787	228	9466
0	33788	228.007394886964	9462
0	33793	228.014792900069	9458
0	33798	228.022194041959	9453
0	33801	228.029599098555	9449
0	33804	228.037007289898	9445
0	33809	228.044418618643	9440
0	33812	228.05183387288	9436
0	33815	228.059252270506	9432
0	33818	228.066673814187	9427
0	33822	228.074099294191	9423
0	33827	228.081527926261	9419
0	33830	228.088959713075	9414
0	33833	228.096395447088	9410
0	33836	228.103834341881	9406
0	33839	228.111276400142	9401
0	33842	228.118722416523	9397
0	33847	228.126171602433	9393
0	33850	228.133623960572	9388
0	33853	228.141080287798	9384
0	33861	228.217320097965	9340
0	33867	228.289536901346	9297
0	33872	228.334072208553	9271
0	33877	228.372207512539	9249
0	33882	228.423246849888	9219
0	33888	228.444162714037	9207
0	33893	228.549644169624	9146
0	33898	228.61485019461	9108
0	33903	228.650038174176	9087
0	33908	228.658869264995	9082
0	33913	228.689043205974	9065
0	33918	228.704192184453	9056
0	33923	228.736426190778	9037
0	33928	228.748331182146	9030
0	33933	228.818627394308	8989
0	33938	228.838114308489	8978
0	33943	228.855305777484	8968
0	33948	228.903060806151	8940
0	33953	228.958584343849	8907
0	33956	228.966443331162	8903
0	33963	229.001978122329	8882
0	33968	229.07763992704	8838
0	33973	229.090352877186	8831
0	33978	229.11903884725	8814
0	33981	229.126980757847	8809
0	33988	229.138720623763	8802
0	33993	229.146967360881	8798
0	33996	229.154923714598	8793
0	34004	229.194029550923	8770
0	34009	229.227323479637	8751
0	34014	229.257660201512	8733
0	34020	229.27103618848	8725
0	34026	229.282272054662	8725
0	34032	229.328192284763	8760
0	34037	229.348131635575	8775
0	34042	229.479008848091	8874
0	34047	229.516885642252	8902
0	34050	229.524749043735	8908
0	34057	229.532607148809	8914
0	34060	229.540459964604	8920
0	34067	229.549988580214	8927
0	34072	229.557914408531	8933
0	34077	229.576776739131	8947
0	34082	229.605884107417	8969
0	34087	229.633261080595	8990
0	34090	229.641047509961	8996
0	34097	229.664005090572	9013
0	34102	229.680234433028	9025
0	34107	229.696279606116	9038
0	34110	229.70402468246	9043
0	34117	229.754211937757	9081
0	34122	229.799833781565	9116
0	34131	229.807512588059	9122
0	34134	229.815186343814	9127
0	34137	229.822855895693	9133
0	34142	229.830520408996	9139
0	34145	229.83817989034	9145
0	34152	229.870209511303	9169
0	34157	229.949661688544	9229
0	34161	230	9267
0	34485	232.5	9619
0	34525	233.0061083063	9640
0	34526	233.013369717088	9640
0	34529	233.020631127876	9641
0	34532	233.027891785484	9641
0	34535	233.035152443092	9641
0	34538	233.0424131007	9642
0	34541	233.049673005284	9642
0	34544	233.056932909868	9642
0	34547	233.064192814452	9643
0	34550	233.071451966168	9643
0	34553	233.078711117884	9643
0	34556	233.0859702696	9643
0	34559	233.093229421316	9644
0	34562	233.100487820321	9644
0	34567	233.107746219326	9644
0	34572	233.115004618331	9645
0	34575	233.12226226478	9645
0	34578	233.129519911229	9645
0	34586	233.26552053387	9651
0	34589	233.27277366826	9651
0	34594	233.28002680265	9651
0	34601	233.298923834192	9652
0	34607	233.408075690634	9657
0	34612	233.449538509261	9658
0	34615	233.456786386668	9659
0	34625	233.534101748683	9662
0	34628	233.535152443092	9662
0	34643	233.582976009663	9664
0	34656	233.683775601526	9668
0	34659	233.691015982163	9668
0	34669	233.802627179821	9673
0	34675	233.829438645262	9674
0	34678	233.836674535276	9674
0	34683	233.84391042529	9674
0	34690	233.858351200103	9675
0	34695	233.888117065341	9676
0	34700	233.911966117344	9677
0	34706	233.938269271159	9678
0	34713	234.007153601897	9681
0	34716	234.014384259887	9681
0	34724	234.041984823871	9683
0	34731	234.091043098343	9685
0	34736	234.143183639004	9687
0	34741	234.179080254851	9688
0	34748	234.202312430225	9689
0	34753	234.223476502747	9690
0	34758	234.260062005297	9692
0	34766	234.348013336671	9695
0	34773	234.394548336009	9697
0	34780	234.415638783057	9698
0	34787	234.462502305019	9700
0	34792	234.484140392824	9701
0	34797	234.491356143778	9701
0	34802	234.498571894732	9701
0	34805	234.505787645686	9702
0	34814	234.53236717328	9703
0	34819	234.548187977109	9703
0	34823	234.555402240739	9704
0	34828	234.562615760937	9704
0	34833	234.569829281135	9704
0	34840	234.586726381356	9705
0	34846	234.628771197813	9707
0	34851	234.646046725156	9707
0	34857	234.658834562449	9708
0	34865	234.747337387156	9711
0	34871	234.779655322144	9713
0	34876	234.80895674468	9714
0	34884	234.940548985369	9719
0	34890	234.983436973074	9721
0	34893	234.990637878331	9721
0	34901	235	9722
0	34909	235.061354068651	9724
0	34917	235.078896713008	9725
0	34923	235.09932369644	9726
0	34931	235.179821500389	9729
0	34935	235.187016484457	9729
0	34942	235.21108492142	9730
0	34947	235.222842919676	9731
0	34956	235.322363390865	9735
0	34961	235.381263567733	9737
0	34967	235.486441226914	9742
0	34975	235.567682118573	9745
0	34980	235.629175096697	9748
0	34985	235.644333878495	9748
0	34990	235.65929942399	9749
0	34995	235.671483892055	9749
0	34998	235.678664115668	9750
0	35006	235.762861058256	9753
0	35011	235.87048264198	9757
0	35016	235.88561790832	9758
0	35021	235.893606915035	9758
0	35027	235.930575931612	9760
0	35032	235.940300321174	9760
0	35037	235.951812999082	9761
0	35042	235.990184502556	9762
0	35045	235.997355164306	9763
0	35052	236.036185878917	9764
0	35057	236.060532678958	9765
0	35063	236.172344770959	9770
0	35069	236.262188555531	9773
0	35074	236.293846983407	9775
0	35079	236.327587453767	9776
0	35084	236.347901729436	9777
0	35089	236.356100064792	9777
0	35092	236.36325972522	9778
0	35099	236.400895873994	9779
0	35105	236.469068323108	9782
0	35110	236.52025847623	9784
0	35113	236.527413014251	9784
0	35120	236.535380436989	9785
0	35126	236.602303666225	9787
0	35132	236.630975153295	9789
0	35137	236.645323265747	9789
0	35142	236.685417743827	9791
0	35147	236.768937742742	9794
0	35150	236.776084975742	9795
0	35157	236.841599657575	9797
0	35162	236.958046204047	9802
0	35167	237.000060032219	9804
0	35172	237.021064088576	9805
0	35175	237.028203303262	9805
0	35183	237.158157483154	9810
0	35188	237.199337445896	9812
0	35193	237.206694273489	9812
0	35198	237.235574060905	9813
0	35204	237.258716402047	9814
0	35209	237.268887309098	9815
0	35212	237.276019250005	9815
0	35219	237.305337069689	9816
0	35222	237.312468284033	9816
0	35230	237.371988138706	9820
0	35236	237.381495711057	9821
0	35241	237.389774874247	9822
0	35246	237.407840194705	9825
0	35251	237.422364592	9827
0	35256	237.442108254546	9829
0	35259	237.449230037026	9830
0	35266	237.5	9837
0	35611	240	8499
0	35912	242.5	9474
0	36301	245	8828
0	36707	247.5	8182
0	37007	250	9303
0	37367	252.5	9785
0	37412	253	9746
0	37413	253.007182433819	9745
0	37416	253.014365604676	9745
0	37419	253.021548775533	9744
0	37422	253.028732683579	9744
0	37427	253.035916591625	9743
0	37430	253.043101237011	9743
0	37433	253.050285882397	9742
0	37436	253.057471265275	9741
0	37439	253.064657385797	9741
0	37442	253.071843506319	9740
0	37447	253.079030364635	9740
0	37450	253.086217222951	9739
0	37453	253.093404819213	9739
0	37456	253.100592415475	9738
0	37459	253.107780749835	9738
0	37462	253.114969084195	9737
0	37465	253.122158156805	9736
0	37468	253.129347967816	9736
0	37473	253.136537778827	9735
0	37476	253.14372832839	9735
0	37479	253.150918877953	9734
0	37482	253.158110166221	9734
0	37485	253.165301454489	9733
0	37490	253.172493481613	9732
0	37495	253.179686247745	9732
0	37498	253.186879013877	9731
0	37505	253.20799812157	9730
0	37508	253.215192366174	9729
0	37513	253.222387350242	9729
0	37520	253.241556390071	9727
0	37526	253.296942495689	9723
0	37531	253.307086082455	9722
0	37534	253.31428624703	9721
0	37542	253.36943230068	9717
0	37545	253.376636170187	9716
0	37550	253.383840781138	9716
0	37558	253.436447818846	9712
0	37563	253.450296497527	9711
0	37568	253.466424616774	9709
0	37573	253.473938382785	9709
0	37578	253.487058616418	9708
0	37581	253.49426916442	9707
0	37586	253.501480455241	9707
0	37593	253.53036550614	9704
0	37598	253.544120550297	9703
0	37603	253.597120398152	9699
0	37608	253.611694612998	9698
0	37613	253.671273593131	9693
0	37618	253.712991417113	9690
0	37623	253.753810490544	9687
0	37628	253.763427857319	9686
0	37633	253.813788075196	9682
0	37638	253.827561496968	9681
0	37643	253.848078683301	9680
0	37648	253.900475569965	9675
0	37651	253.907710712084	9675
0	37658	253.990249242332	9668
0	37663	254.001363211642	9668
0	37668	254.034574950813	9665
0	37673	254.063367850887	9663
0	37676	254.07061197797	9662
0	37683	254.160269542923	9655
0	37688	254.187568830764	9653
0	37693	254.227444900733	9650
0	37698	254.262034252111	9647
0	37701	254.269290393917	9647
0	37708	254.28237881752	9646
0	37713	254.304241156023	9644
0	37718	254.365850359616	9639
0	37723	254.429426716329	9634
0	37728	254.482753479545	9630
0	37731	254.490022430739	9629
0	37739	254.516289309133	9627
0	37742	254.523560525504	9627
0	37747	254.530831741875	9626
0	37754	254.621692997669	9619
0	37759	254.663527875534	9616
0	37764	254.735871121904	9610
0	37769	254.814870359807	9604
0	37774	254.834461410145	9602
0	37779	254.844535001355	9602
0	37784	254.889597781038	9598
0	37790	255	9589
0	38143	257.5	9717
0	38558	260	9618
0	38922	262.5	9519
0	39356	265	8930
0	39731	267.5	9272
0	40040	270	8459
0	40401	272.5	8500
0	40791	275	8542
0	41271	277.5	8584
0	41714	280	8983
0	42136	282.5	9890
0	42141	282.57300679855	9889
0	42144	282.580085370701	9889
0	42147	282.580160605397	9889
0	42155	282.59328685268	9889
0	42162	282.662001776951	9888
0	42167	282.677745573338	9888
0	42174	282.74825951173	9887
0	42180	282.776846030858	9887
0	42185	282.784338938389	9887
0	42188	282.791418942435	9887
0	42197	282.8509109882	9886
0	42202	282.85799170841	9886
0	42205	282.86507242862	9886
0	42212	282.879074297376	9886
0	42217	282.886155017586	9886
0	42220	282.893235737796	9886
0	42227	282.914077921017	9885
0	42230	282.921159357537	9885
0	42240	283.033768081021	9884
0	42245	283.050293410606	9884
0	42250	283.072548726645	9884
0	42253	283.07963087962	9884
0	42260	283.091385626378	9884
0	42265	283.108427018499	9883
0	42270	283.132509460664	9883
0	42275	283.142195458815	9883
0	42281	283.297560937558	9881
0	42286	283.304839960868	9881
0	42291	283.34299862527	9881
0	42297	283.361151582483	9881
0	42302	283.38906118883	9880
0	42305	283.396146209073	9880
0	42312	283.448515017259	9880
0	42317	283.463573005874	9880
0	42322	283.486065981611	9879
0	42328	283.506040688607	9879
0	42333	283.530349841615	9879
0	42338	283.592368938017	9878
0	42343	283.644467243064	9878
0	42348	283.738973332747	9877
0	42353	283.76166726595	9876
0	42358	283.774570314051	9876
0	42361	283.781658203885	9876
0	42368	283.791527335745	9876
0	42371	283.798615225579	9876
0	42378	283.821973883511	9876
0	42384	283.858040625454	9875
0	42387	283.865129233049	9875
0	42392	283.872217840644	9875
0	42399	283.882193092733	9875
0	42404	283.958853391502	9874
0	42407	283.965942717003	9874
0	42414	283.98527321042	9874
0	42419	284.001951898376	9874
0	42424	284.009041223877	9874
0	42427	284.016130549378	9874
0	42432	284.023219874879	9874
0	42439	284.046691444451	9873
0	42444	284.077319011521	9873
0	42449	284.113232095996	9873
0	42454	284.127229026997	9873
0	42460	284.27947455014	9871
0	42465	284.296249568904	9871
0	42470	284.303847553246	9871
0	42475	284.382208089354	9870
0	42480	284.390334634374	9870
0	42485	284.426977019671	9869
0	42490	284.530066383729	9868
0	42495	284.540040746217	9868
0	42500	284.610034571068	9867
0	42505	284.682449910777	9867
0	42510	284.715953782931	9866
0	42516	284.780239510359	9866
0	42522	284.844689056892	9865
0	42528	284.880385767093	9864
0	42533	284.888622412195	9864
0	42538	284.898410796263	9864
0	42543	284.970920371489	9864
0	42547	285	9863
0	42579	285.5	8711
0	42580	285.508035816783	8711
0	42583	285.516071633566	8710
0	42588	285.524108372946	8710
0	42593	285.532145112326	8710
0	42596	285.540181851706	8710
0	42599	285.548218591086	8710
0	42602	285.556255330466	8710
0	42605	285.564292069846	8710
0	42608	285.572328809226	8710
0	42611	285.580365548606	8710
0	42614	285.588402287986	8710
0	42619	285.596439027366	8710
0	42622	285.604475766746	8709
0	42625	285.612513428935	8709
0	42629	285.620551091124	8709
0	42632	285.628588753313	8709
0	42639	285.726890376178	8708
0	42642	285.734928961387	8708
0	42649	285.755664758973	8708
0	42654	285.834049325897	8707
0	42659	285.847110187981	8707
0	42664	285.86190440166	8706
0	42670	285.907547567579	8706
0	42675	285.933099363568	8706
0	42680	285.965850288157	8705
0	42685	285.979892307612	8705
0	42690	285.994554407379	8705
0	42695	286.053607879475	8704
0	42700	286.066281597509	8704
0	42703	286.074323876921	8704
0	42708	286.082366156333	8704
0	42715	286.168710988656	8703
0	42718	286.176754192149	8703
0	42724	286.184797395642	8703
0	42731	286.214577947236	8702
0	42736	286.225014390514	8702
0	42741	286.249675383161	8702
0	42744	286.257719510948	8702
0	42751	286.265807336103	8702
0	42756	286.27385146389	8702
0	42759	286.281895591677	8702
0	42766	286.302529465928	8701
0	42769	286.310574518221	8701
0	42776	286.323436978531	8701
0	42781	286.370382668555	8701
0	42786	286.429802940179	8700
0	42789	286.43784891719	8700
0	42796	286.451495597011	8700
0	42801	286.462349919491	8700
0	42806	286.515369271467	8699
0	42809	286.52341617341	8699
0	42817	286.546760530384	8699
0	42820	286.554807432327	8699
0	42827	286.593201256857	8698
0	42832	286.665826855267	8697
0	42837	286.688085117538	8697
0	42842	286.697785443083	8697
0	42847	286.709133496708	8697
0	42852	286.816870695742	8696
0	42857	286.824920373755	8695
0	42860	286.83297097755	8695
0	42865	286.841021581345	8695
0	42870	286.84907218514	8695
0	42877	286.873535312664	8695
0	42882	286.94433186294	8694
0	42887	286.970901938743	8694
0	42892	286.990368458003	8694
0	42897	287.10777351972	8692
0	42902	287.118684458284	8692
0	42907	287.16215711972	8692
0	42912	287.203467657888	8691
0	42917	287.211521966943	8691
0	42920	287.219576275998	8691
0	42927	287.378513919579	8689
0	42932	287.455961629952	8688
0	42937	287.470792517106	8688
0	42941	287.5	8688
0	43290	290	8659
0	43741	292.5	8631
0	44177	295	8698
0	44545	297.5	8778
0	44903	300	8857
0	45245	302.5	8937
0	45716	305	9101
0	46073	307.5	9462
0	46489	310	9181
0	46938	312.5	8165
0	47307	315	8426
0	47681	317.5	8299
0	48060	320	9353
0	48516	322.5	9279
0	48923	325	9204
0	49278	327.5	8118
0	49633	330	8340
0	50046	332.5	8660
0	50461	335	8866
0	50906	337.5	8984
0	51450	340	8469
0	51781	342.5	9163
0	52069	345	9397
0	52481	347.5	9587
0	52489	347.596422301731	9538
0	52494	347.612113519105	9529
0	52497	347.616931317604	9527
0	52510	347.782865203234	9442
0	52519	347.847863541699	9409
0	52524	347.885310673428	9390
0	52527	347.892581308577	9386
0	52532	347.895499259565	9384
0	52543	347.949374696206	9357
0	52548	347.976014569855	9343
0	52554	348.021538542248	9320
0	52557	348.029049271862	9316
0	52565	348.066549091769	9297
0	52570	348.114413831292	9272
0	52576	348.129538829111	9265
0	52581	348.144490014014	9257
0	52586	348.1790144532	9239
0	52589	348.186591030752	9235
0	52597	348.217507126262	9231
0	52600	348.225090270017	9230
0	52608	348.270795916352	9225
0	52611	348.278383992233	9224
0	52619	348.314659880814	9220
0	52624	348.36731873324	9214
0	52629	348.377305191914	9212
0	52634	348.422963728113	9207
0	52639	348.466239924387	9202
0	52644	348.489467277499	9199
0	52649	348.502579928551	9198
0	52654	348.515363067322	9196
0	52659	348.532406226602	9194
0	52664	348.549799191994	9192
0	52669	348.561676774283	9191
0	52674	348.637099262446	9182
0	52679	348.684139497725	9176
0	52682	348.691768094063	9176
0	52690	348.751659266673	9169
0	52693	348.759293687002	9168
0	52698	348.766928940056	9167
0	52703	348.774565026017	9166
0	52710	348.796480821484	9163
0	52715	348.822219772574	9160
0	52720	348.865020867585	9155
0	52723	348.872666962615	9154
0	52730	348.92620191575	9148
0	52733	348.93385386153	9147
0	52740	348.975528529466	9142
0	52745	349.017419259042	9137
0	52748	349.025080416971	9137
0	52755	349.041876368219	9135
0	52760	349.082206705449	9130
0	52765	349.186117338991	9118
0	52770	349.268650808197	9108
0	52776	349.353228290562	9098
0	52781	349.373645965227	9096
0	52786	349.384971843959	9095
0	52791	349.432472235474	9089
0	52796	349.449074785792	9087
0	52802	349.563462008034	9074
0	52807	349.651071645051	9063
0	52812	349.69251363241	9059
0	52817	349.722814339899	9055
0	52822	349.734788032671	9054
0	52827	349.750943827591	9052
0	52832	349.772000407221	9049
0	52837	349.82840197965	9043
0	52842	349.85053742286	9040
0	52847	349.940966117148	9029
0	52852	350	9023
0	53251	352.5	8730
0	53631	355	8438
0	53912	357.5	8145
0	54227	360	9829
0	54271	360.5	9795
0	54272	360.507146503318	9795
0	54275	360.514293006636	9794
0	54280	360.521440239636	9794
0	54285	360.528587472636	9793
0	54288	360.535735435467	9793
0	54291	360.542883398298	9792
0	54294	360.550032091108	9792
0	54298	360.557180783918	9791
0	54301	360.564330206857	9791
0	54304	360.571479629796	9790
0	54307	360.578629783014	9790
0	54310	360.585779936232	9789
0	54313	360.592930819877	9789
0	54316	360.600081703522	9788
0	54320	360.607233317743	9788
0	54323	360.614384931964	9787
0	54326	360.621537276911	9787
0	54329	360.628689621858	9786
0	54334	360.635842697681	9786
0	54337	360.642995773504	9785
0	54340	360.650149580351	9785
0	54343	360.657303387198	9784
0	54346	360.664457925219	9784
0	54353	360.697574864061	9782
0	54358	360.809738408925	9774
0	54363	360.816900266916	9774
0	54366	360.824062124907	9773
0	54373	360.864797845855	9770
0	54378	360.874231742845	9770
0	54384	360.96701968039	9764
0	54389	360.998994978865	9761
0	54392	361.006166375238	9761
0	54401	361.088048056714	9755
0	54406	361.116755970785	9754
0	54411	361.256392433017	9744
0	54416	361.277426782552	9743
0	54421	361.3228822638	9740
0	54426	361.378987575502	9736
0	54431	361.397552033057	9735
0	54436	361.431739477124	9732
0	54441	361.503908540838	9728
0	54446	361.515322353528	9727
0	54451	361.534347530765	9726
0	54454	361.541544734137	9725
0	54461	361.572869352095	9723
0	54466	361.595950332623	9721
0	54471	361.619491893753	9720
0	54476	361.698078929054	9715
0	54481	361.750989225219	9711
0	54486	361.833509024639	9705
0	54491	361.880067322456	9702
0	54494	361.887282329671	9702
0	54501	361.902093046537	9701
0	54506	361.971076649253	9696
0	54511	361.9782961212	9696
0	54514	361.985515593147	9695
0	54521	362.082132220012	9689
0	54524	362.089356907802	9688
0	54531	362.173321044524	9683
0	54536	362.291897912042	9675
0	54539	362.299133054161	9674
0	54546	362.316050726997	9673
0	54551	362.324005483975	9672
0	54554	362.331242870245	9672
0	54561	362.38081886795	9669
0	54566	362.403069690824	9667
0	54571	362.457157232537	9664
0	54574	362.46440061002	9663
0	54580	362.5	9661
0	54937	365	9493
0	55319	367.5	8877
0	55681	370	8164
0	55990	372.5	9039
0	56404	375	9585
0	56747	377.5	9721
0	57124	380	9854
0	57148	380.5	9347
0	57151	380.507489033915	9339
0	57154	380.514984483107	9330
0	57157	380.522487162635	9322
0	57160	380.52999628085	9314
0	57164	380.537511848812	9306
0	57167	380.545033877611	9297
0	57170	380.552563188141	9289
0	57173	380.560098983167	9281
0	57178	380.567641273868	9272
0	57181	380.575190885602	9264
0	57184	380.582747016863	9256
0	57189	380.59030967892	9247
0	57192	380.59787970163	9239
0	57199	380.646393261277	9186
0	57204	380.686467137635	9141
0	57209	380.700369703205	9126
0	57215	380.71684163344	9115
0	57218	380.72452128237	9114
0	57227	380.732201773921	9113
0	57232	380.739883108279	9111
0	57235	380.747566128804	9110
0	57241	380.75524999269	9109
0	57244	380.762934700122	9108
0	57252	380.793065136964	9103
0	57257	380.840583309937	9095
0	57262	380.869182158327	9090
0	57267	381.032349516746	9064
0	57270	381.040072376411	9062
0	57277	381.061104952091	9059
0	57282	381.082081461695	9055
0	57287	381.094311861692	9053
0	57292	381.119166747181	9049
0	57297	381.134065129902	9047
0	57303	381.18673418543	9038
0	57306	381.194479261774	9037
0	57313	381.22068666094	9033
0	57318	381.241618162263	9029
0	57324	381.258190426548	9027
0	57329	381.292718687841	9021
0	57334	381.397151538528	9004
0	57339	381.431348039015	8998
0	57344	381.455789284225	8994
0	57347	381.463572250647	8993
0	57354	381.525443208785	8983
0	57359	381.560596854185	8977
0	57364	381.580995150396	8974
0	57369	381.619343807122	8968
0	57372	381.627149337898	8966
0	57379	381.644273605178	8963
0	57384	381.676530920808	8958
0	57390	381.7779689678	8942
0	57395	381.834726411011	8932
0	57400	381.845172732835	8931
0	57405	381.856857924434	8929
0	57410	381.923707047718	8918
0	57415	381.966594293228	8911
0	57418	381.974449752772	8909
0	57425	381.995085875081	8906
0	57430	382.005717150338	8904
0	57435	382.021012310729	8902
0	57440	382.029037315455	8900
0	57443	382.036902483994	8899
0	57450	382.107003746913	8888
0	57455	382.122387445249	8885
0	57461	382.1776027174	8876
0	57467	382.235501962916	8867
0	57472	382.256457057231	8863
0	57477	382.312057380979	8854
0	57482	382.328677210767	8851
0	57487	382.393324013396	8841
0	57490	382.40124166977	8840
0	57497	382.449917650027	8832
0	57502	382.492283717588	8825
0	57503	382.5	8823
0	57858	385	8553
0	58235	387.5	8756
0	58627	390	8734
0	58993	392.5	8590
0	59338	395	8446
0	59670	397.5	8437
0	59982	400	8672
1	1534	10	9578
1	1903	12.5	9291
1	2244	15	8291
1	2625	17.5	8970
1	2968	20	9105
1	3371	22.5	9202
1	3845	25	9148
1	4167	27.5	9093
1	4578	30	8906
1	4891	32.5	8621
1	5285	35	8336
1	5701	37.5	8115
1	6017	40	9441
1	6376	42.5	9414
1	6723	45	9387
1	7129	47.5	9436
1	7565	50	9512
1	8026	52.5	9431
1	8401	55	8763
1	8777	57.5	8562
1	9204	60	8446
1	9551	62.5	8354
1	9920	65	9119
1	10263	67.5	9165
1	10583	70	8785
1	11028	72.5	8404
1	11462	75	8974
1	11804	77.5	8922
1	12154	80	8677
1	12567	82.5	8297
1	12946	85	8655
1	13308	87.5	9013
1	13626	90	9258
1	13980	92.5	9444
1	14274	95	9365
1	14683	97.5	8664
1	15035	100	9129
1	15380	102.5	8947
1	15716	105	8654
1	16073	107.5	9173
1	16387	110	9709
1	16724	112.5	9713
1	17122	115	9503
1	17478	117.5	9293
1	17809	120	9438
1	18200	122.5	9828
1	18233	123	9906
1	18234	123.007066424389	9907
1	18237	123.014132135502	9908
1	18242	123.021197133483	9909
1	18245	123.028261418476	9910
1	18250	123.035324990625	9911
1	18253	123.042387850074	9912
1	18256	123.049449996967	9913
1	18259	123.056511431447	9914
1	18264	123.063572153658	9916
1	18267	123.070631451762	9917
1	18270	123.077690038028	9918
1	18273	123.084747912599	9919
1	18276	123.091805075619	9920
1	18279	123.098861527232	9921
1	18283	123.105917267581	9904
1	18286	123.112985118954	9876
1	18289	123.120073008788	9847
1	18296	123.132591278205	9797
1	18301	123.165404427308	9666
1	18306	123.173497845083	9633
1	18311	123.189111004751	9571
1	18316	123.245011099997	9347
1	18319	123.252500133912	9317
1	18326	123.309546292658	9088
1	18332	123.339088422496	9054
1	18337	123.430703639213	9005
1	18342	123.458789953814	8990
1	18345	123.46657638318	8985
1	18352	123.572516104889	8928
1	18357	123.581090367686	8924
1	18360	123.588934383822	8919
1	18367	123.628959383294	8898
1	18372	123.70890993449	8855
1	18375	123.71681507283	8850
1	18382	123.807602328084	8801
1	18387	123.8194090171	8795
1	18392	123.829043048149	8790
1	18395	123.837006643143	8785
1	18402	123.844974770633	8781
1	18405	123.852946527836	8777
1	18413	123.909833401913	8746
1	18418	123.932825537815	8734
1	18421	123.940840193185	8729
1	18426	123.948859439376	8725
1	18433	123.961067754049	8718
1	18438	123.974653427747	8711
1	18443	123.995781840569	8700
1	18448	124.015247479332	8689
1	18454	124.02900391462	8691
1	18457	124.037058223675	8693
1	18464	124.049335407512	8695
1	18469	124.066540271162	8698
1	18475	124.079590800815	8701
1	18478	124.087635853108	8703
1	18485	124.109122464977	8707
1	18490	124.132935975784	8711
1	18493	124.140971792567	8713
1	18502	124.195517243406	8724
1	18507	124.226806001812	8730
1	18512	124.286518482141	8742
1	18515	124.29452580312	8743
1	18520	124.302532208244	8745
1	18527	124.426392806636	8769
1	18533	124.458570576121	8775
1	18538	124.494877949829	8783
1	18543	124.557853665918	8795
1	18546	124.56581273357	8796
1	18554	124.573770896371	8798
1	18557	124.581727250088	8800
1	18564	124.619270003821	8807
1	18569	124.63027199426	8809
1	18574	124.707770666668	8824
1	18579	124.758298555314	8834
1	18584	124.815717360769	8846
1	18589	124.823630541868	8847
1	18592	124.831542828519	8849
1	18600	124.861049948723	8855
1	18603	124.868955087063	8856
1	18610	124.889439024604	8860
1	18613	124.897339701805	8862
1	18620	124.916966428642	8865
1	18625	124.928004198601	8868
1	18628	124.935897748443	8869
1	18635	124.968352136272	8876
1	18638	124.976238571603	8877
1	18645	124.986489785154	8879
1	18649	125	8882
1	19021	127.5	9373
1	19299	130	9864
1	19321	130.5	9880
1	19322	130.507085020243	9880
1	19325	130.514170040486	9880
1	19328	130.521255060729	9881
1	19331	130.528339363937	9881
1	19334	130.535423667145	9881
1	19337	130.542507970353	9881
1	19340	130.549592273561	9881
1	19343	130.556676576769	9881
1	19350	130.601522692809	9881
1	19355	130.61236012839	9881
1	19360	130.67201076717	9881
1	19365	130.680200826243	9881
1	19370	130.694775945885	9881
1	19375	130.715599003017	9881
1	19378	130.722683306225	9881
1	19385	130.731469441069	9881
1	19390	130.785115630142	9881
1	19396	130.852129036967	9881
1	19401	130.899810761603	9881
1	19404	130.906895064811	9881
1	19412	131.021362589624	9882
1	19417	131.033308040103	9882
1	19423	131.106044382908	9882
1	19426	131.113127969227	9882
1	19433	131.141281068987	9882
1	19436	131.148364655306	9882
1	19441	131.155448241625	9882
1	19448	131.173603886211	9882
1	19453	131.196727730201	9882
1	19459	131.264265066299	9882
1	19464	131.277440229166	9882
1	19469	131.297466937778	9882
1	19474	131.322606642732	9882
1	19479	131.333397033911	9882
1	19484	131.345965839217	9882
1	19489	131.420809815918	9883
1	19495	131.490082505686	9883
1	19500	131.578979441213	9883
1	19505	131.644079360824	9883
1	19510	131.668747788648	9883
1	19515	131.682013339229	9883
1	19520	131.719579209864	9883
1	19525	131.751612772832	9883
1	19528	131.758695642406	9883
1	19535	131.773519526068	9883
1	19540	131.788137169282	9883
1	19546	131.87206421543	9884
1	19551	131.889343351157	9884
1	19556	131.896604737577	9884
1	19561	131.921250112173	9884
1	19566	131.963125138209	9884
1	19571	132.029210373295	9884
1	19576	132.152380538648	9884
1	19581	132.210426343243	9884
1	19584	132.217508496218	9884
1	19589	132.224590649193	9884
1	19596	132.231672802168	9884
1	19599	132.238754955143	9884
1	19607	132.272735465941	9885
1	19612	132.289306817217	9885
1	19617	132.342166942836	9885
1	19622	132.367278588657	9885
1	19627	132.390883348735	9885
1	19633	132.423570482735	9885
1	19638	132.45649865545	9885
1	19641	132.46358009197	9885
1	19646	132.47066152849	9885
1	19652	132.5	9885
1	19682	133	9886
1	19683	133.00708072021	9886
1	19686	133.01416144042	9886
1	19689	133.02124216063	9886
1	19692	133.02832288084	9886
1	19695	133.03540360105	9886
1	19698	133.04248432126	9886
1	19701	133.04956504147	9886
1	19706	133.05664576168	9886
1	19709	133.06372648189	9886
1	19714	133.0708072021	9886
1	19717	133.07788792231	9886
1	19720	133.08496864252	9886
1	19723	133.09204936273	9886
1	19728	133.09913008294	9886
1	19731	133.10621080315	9886
1	19734	133.11329152336	9886
1	19741	133.126561902507	9886
1	19744	133.133642622717	9886
1	19751	133.23323984777	9887
1	19756	133.258577110726	9887
1	19759	133.265657114772	9887
1	19766	133.312839812223	9887
1	19771	133.400323450949	9887
1	19774	133.407403454995	9887
1	19779	133.414483459041	9887
1	19786	133.423058490762	9887
1	19791	133.445995854906	9887
1	19794	133.453075858952	9887
1	19801	133.470223098781	9887
1	19804	133.477303102827	9887
1	19809	133.484383106873	9887
1	19814	133.491463110919	9887
1	19821	133.501033914787	9887
1	19826	133.51000680557	9887
1	19831	133.531197171964	9887
1	19836	133.552391837544	9887
1	19841	133.622533521018	9888
1	19846	133.677393819272	9888
1	19852	133.785981991526	9888
1	19857	133.826558228304	9888
1	19862	133.852168901087	9888
1	19867	133.883165331465	9888
1	19872	133.954599936986	9888
1	19877	134.105521164337	9889
1	19882	134.138313758257	9889
1	19887	134.160120566653	9889
1	19892	134.175148859882	9889
1	19897	134.261487177048	9889
1	19902	134.269044115237	9889
1	19907	134.283409433047	9889
1	19912	134.302063035744	9889
1	19917	134.32152179597	9889
1	19922	134.347417262936	9889
1	19927	134.365137157482	9889
1	19930	134.372215729633	9889
1	19937	134.398521285976	9889
1	19940	134.405599858127	9889
1	19947	134.498156494782	9890
1	19952	134.530242811002	9890
1	19957	134.581344901312	9890
1	19962	134.590266202039	9890
1	19967	134.653106596522	9890
1	19973	134.716666925049	9890
1	19978	134.771642248987	9890
1	19983	134.785499593909	9890
1	19988	134.891706429805	9890
1	19991	134.898784286226	9891
1	19998	134.905861427061	9891
1	20001	134.912938567896	9891
1	20009	134.961825388795	9891
1	20013	135	9891
1	20052	135.5	9892
1	20053	135.507076425394	9892
1	20056	135.514152850788	9892
1	20059	135.521229276182	9892
1	20062	135.528305701576	9892
1	20065	135.53538212697	9892
1	20068	135.542458552364	9892
1	20071	135.549534977758	9892
1	20074	135.556611403152	9892
1	20079	135.563687828546	9892
1	20082	135.57076425394	9892
1	20085	135.577840679334	9892
1	20088	135.584917104728	9892
1	20091	135.591993530122	9892
1	20094	135.599069955516	9892
1	20099	135.60614638091	9892
1	20106	135.613222806304	9892
1	20109	135.620299231698	9892
1	20112	135.627375657092	9892
1	20115	135.634452082486	9892
1	20120	135.64152850788	9892
1	20123	135.648604933274	9892
1	20130	135.663535955192	9892
1	20133	135.670612380586	9892
1	20140	135.709858865604	9892
1	20146	135.76833677684	9892
1	20151	135.825011307078	9893
1	20156	135.874392426177	9893
1	20159	135.881468136275	9893
1	20166	135.93529674296	9893
1	20171	135.979710685445	9893
1	20177	136.02362475475	9893
1	20182	136.084765109242	9893
1	20187	136.151258975339	9893
1	20192	136.199338794915	9893
1	20197	136.211688928379	9894
1	20202	136.236824374441	9894
1	20207	136.247965836761	9894
1	20212	136.269404315246	9894
1	20215	136.276479310192	9894
1	20222	136.298814171994	9894
1	20227	136.423314450997	9894
1	20232	136.465999501252	9894
1	20237	136.478785567581	9894
1	20243	136.568484877951	9894
1	20248	136.57751574423	9894
1	20253	136.611109172817	9894
1	20256	136.618184167763	9894
1	20264	136.690155703127	9895
1	20270	136.709819024796	9895
1	20275	136.752105012543	9895
1	20280	136.809975142181	9895
1	20283	136.81704942212	9895
1	20290	136.825929786496	9895
1	20295	136.850247958888	9895
1	20302	136.903301342692	9895
1	20307	136.915115722447	9895
1	20312	136.967151162047	9895
1	20317	136.978901271575	9895
1	20322	137.075395762203	9895
1	20327	137.090793804465	9896
1	20332	137.101182071807	9896
1	20337	137.114410195865	9896
1	20342	137.145195752656	9896
1	20347	137.175442628627	9896
1	20353	137.268239020213	9896
1	20358	137.308515367805	9896
1	20363	137.317884086616	9896
1	20368	137.328839053236	9896
1	20371	137.335912618313	9896
1	20377	137.34298618339	9896
1	20384	137.355529429876	9896
1	20387	137.362602994953	9896
1	20394	137.442088471257	9896
1	20399	137.472098838647	9896
1	20403	137.5	9896
1	20431	138	9898
1	20432	138.007072135785	9898
1	20435	138.01414427157	9898
1	20438	138.021216407355	9898
1	20441	138.02828854314	9898
1	20444	138.035360678925	9898
1	20447	138.04243281471	9898
1	20452	138.049504950495	9898
1	20455	138.05657708628	9898
1	20458	138.063649222065	9898
1	20461	138.07072135785	9898
1	20464	138.077793493635	9898
1	20469	138.08486562942	9898
1	20472	138.091937765205	9898
1	20475	138.09900990099	9898
1	20480	138.106082036775	9898
1	20487	138.140417569407	9898
1	20490	138.147489705192	9898
1	20499	138.181963819313	9898
1	20502	138.189035955098	9898
1	20507	138.196108090883	9898
1	20514	138.207004924208	9898
1	20519	138.256582285523	9898
1	20524	138.33244052243	9898
1	20529	138.356073251753	9898
1	20532	138.363145387538	9898
1	20537	138.370217523323	9898
1	20544	138.429805914325	9899
1	20549	138.442871764866	9899
1	20552	138.449943186222	9899
1	20559	138.477314519135	9899
1	20564	138.498712190775	9899
1	20569	138.614971061143	9899
1	20574	138.651158987153	9899
1	20579	138.658451402147	9899
1	20582	138.665522823503	9899
1	20590	138.739611597216	9899
1	20595	138.772997953973	9899
1	20601	138.80942074916	9899
1	20606	138.91055836468	9900
1	20611	138.934642548735	9900
1	20614	138.941713255806	9900
1	20621	138.956937838312	9900
1	20626	139.002714165092	9900
1	20629	139.009784872163	9900
1	20636	139.041440132441	9900
1	20639	139.048510839512	9900
1	20644	139.055581546583	9900
1	20651	139.062652253654	9900
1	20658	139.069722960725	9900
1	20661	139.076793667796	9900
1	20664	139.083864374867	9900
1	20671	139.134643189747	9900
1	20676	139.161225145782	9900
1	20681	139.171066839155	9900
1	20686	139.271196293061	9900
1	20691	139.286624634839	9901
1	20697	139.322802865309	9901
1	20703	139.41686729519	9901
1	20708	139.46071573049	9901
1	20713	139.483623051582	9901
1	20718	139.507456399959	9901
1	20723	139.538841051546	9901
1	20728	139.569361338433	9901
1	20734	139.63112020919	9901
1	20737	139.63819020212	9901
1	20742	139.64526019505	9901
1	20749	139.71453775709	9902
1	20754	139.741241905241	9902
1	20759	139.791306761242	9902
1	20762	139.798376040176	9902
1	20769	140	9902
1	20803	140.5	9903
1	20804	140.507068565081	9903
1	20807	140.514137130162	9903
1	20812	140.521205695243	9903
1	20815	140.528274260324	9903
1	20818	140.535342825405	9903
1	20821	140.542411390486	9903
1	20824	140.549479955567	9903
1	20827	140.556548520648	9903
1	20830	140.563617085729	9903
1	20833	140.57068565081	9903
1	20838	140.577754215891	9903
1	20843	140.584822780972	9903
1	20846	140.591891346053	9904
1	20849	140.598959197426	9904
1	20852	140.606027048799	9904
1	20855	140.613094900172	9904
1	20858	140.620162751545	9904
1	20861	140.627230602918	9904
1	20868	140.635846937501	9904
1	20871	140.642914788874	9904
1	20878	140.702229167877	9904
1	20883	140.818065914939	9904
1	20888	140.859155771084	9904
1	20893	140.871888487479	9904
1	20898	140.921541578695	9904
1	20903	141.020860773155	9904
1	20909	141.073815202281	9882
1	20912	141.0808987886	9879
1	20920	141.125276282809	9858
1	20925	141.146894885564	9848
1	20930	141.164314802165	9839
1	20933	141.171429346326	9836
1	20940	141.178546060437	9833
1	20943	141.185664945823	9829
1	20951	141.299922415664	9776
1	20956	141.328164334381	9762
1	20961	141.338528926085	9757
1	20964	141.345703262459	9754
1	20971	141.480344503335	9691
1	20976	141.525152288379	9670
1	20979	141.532391171523	9666
1	20986	141.570844929754	9648
1	20991	141.632245990329	9619
1	20994	141.639523254078	9616
1	21001	141.647353198636	9612
1	21006	141.746853867937	9565
1	21011	141.809068109959	9536
1	21016	141.853752578221	9515
1	21019	141.861109383266	9511
1	21026	141.868644169441	9508
1	21031	141.939175307764	9475
1	21036	141.982408555853	9454
1	21041	142.001375387128	9445
1	21046	142.047453172484	9424
1	21051	142.138030894445	9381
1	21056	142.152692197697	9374
1	21061	142.188672297504	9357
1	21066	142.205155399469	9349
1	21071	142.230580133032	9337
1	21076	142.246151352899	9330
1	21081	142.275466416992	9316
1	21086	142.309021776278	9301
1	21091	142.335931637495	9288
1	21096	142.41666596261	9250
1	21099	142.424233530178	9246
1	21104	142.431804371623	9243
1	21111	142.467439928766	9226
1	21115	142.5	9211
1	21559	145	8321
1	21911	147.5	8611
1	22313	150	8300
1	22700	152.5	8342
1	23033	155	8366
1	23376	157.5	8390
1	23695	160	8560
1	24009	162.5	8783
1	24354	165	9007
1	24678	167.5	9231
1	24707	168	9275
1	24708	168.007547169811	9276
1	24711	168.015093525999	9277
1	24714	168.022639068739	9277
1	24719	168.030184611479	9278
1	24722	168.037729340947	9279
1	24725	168.045273257317	9279
1	24728	168.052817173687	9280
1	24731	168.060360277135	9281
1	24734	168.067902567836	9281
1	24737	168.075444858537	9282
1	24740	168.082986336667	9283
1	24745	168.0905270024	9284
1	24748	168.098066855911	9284
1	24751	168.105606709422	9285
1	24758	168.147157475846	9289
1	24763	168.168386090404	9290
1	24768	168.26432031642	9299
1	24773	168.278194328249	9300
1	24776	168.285721209969	9301
1	24781	168.293247282434	9302
1	24786	168.300772545818	9302
1	24793	168.33363743756	9305
1	24798	168.353156066905	9307
1	24804	168.393018232771	9311
1	24807	168.400536222246	9311
1	24814	168.486323246525	9319
1	24819	168.493834782097	9320
1	24822	168.501345511711	9320
1	24827	168.508856241325	9321
1	24834	168.549278719747	9325
1	24841	168.572240395612	9327
1	24846	168.599920084617	9329
1	24851	168.610060090366	9330
1	24856	168.631453983032	9332
1	24861	168.7047085632	9338
1	24866	168.753639842385	9343
1	24871	168.767358650398	9344
1	24876	168.800071293988	9347
1	24881	168.890555067916	9355
1	24884	168.898037697526	9356
1	24891	169.023164174271	9367
1	24896	169.042178755544	9369
1	24901	169.063094239803	9371
1	24907	169.253572399781	9388
1	24912	169.262589900745	9388
1	24917	169.313658492369	9393
1	24922	169.32572788299	9394
1	24927	169.376055297668	9399
1	24932	169.42847129621	9403
1	24937	169.517850540954	9411
1	24942	169.529026389109	9412
1	24947	169.574773484084	9416
1	24952	169.591537656176	9418
1	24957	169.657469747288	9424
1	24962	169.680261448899	9426
1	24967	169.698203602157	9427
1	24972	169.728161067805	9430
1	24977	169.746048403905	9432
1	24983	169.940189578302	9449
1	24987	170	9454
1	25391	172.5	9634
1	25841	175	9235
1	25844	175.052350786869	9227
1	25850	175.110656413335	9218
1	25857	175.213839619826	9201
1	25860	175.221447488536	9200
1	25869	175.256087841697	9194
1	25874	175.305185531414	9187
1	25879	175.343419665336	9181
1	25885	175.387858281366	9173
1	25892	175.40339958939	9171
1	25900	175.432099763151	9166
1	25906	175.479968713991	9159
1	25912	175.510720439433	9154
1	25917	175.543015418765	9149
1	25920	175.550666528176	9147
1	25927	175.600379683291	9140
1	25932	175.6324910995	9134
1	25935	175.640154773684	9133
1	25942	175.655141529532	9131
1	25947	175.714123530009	9121
1	25953	175.784885934482	9110
1	25959	175.829865008573	9103
1	25965	175.843009780991	9101
1	25971	175.870643597299	9096
1	25976	175.900723517849	9092
1	25981	175.911248790621	9090
1	25986	175.930713055567	9087
1	25989	175.938416367991	9086
1	25997	176.007445935712	9075
1	26002	176.030660202712	9071
1	26007	176.040912332217	9069
1	26010	176.048630934047	9068
1	26015	176.056350387069	9067
1	26022	176.099461169383	9060
1	26027	176.147793776211	9052
1	26032	176.238247897587	9038
1	26037	176.256887299958	9035
1	26043	176.316967775598	9025
1	26048	176.348096824868	9020
1	26053	176.362137520992	9018
1	26058	176.369899774263	9017
1	26061	176.377662888381	9015
1	26068	176.47495712357	9000
1	26071	176.482734901348	8999
1	26078	176.548756575139	8988
1	26083	176.586893526191	8982
1	26088	176.621117046672	8977
1	26091	176.628914751919	8975
1	26096	176.636714194816	8974
1	26103	176.673116149215	8968
1	26108	176.68973335685	8966
1	26113	176.719717331906	8961
1	26118	176.854593007849	8939
1	26123	176.876814901664	8936
1	26128	176.91684091242	8929
1	26133	176.967907097738	8921
1	26136	176.975753751701	8920
1	26144	177.11288892589	8898
1	26149	177.134494140535	8895
1	26152	177.142363730192	8893
1	26159	177.258428420822	8875
1	26164	177.28641655597	8870
1	26169	177.313194723114	8866
1	26174	177.326345814761	8864
1	26179	177.334242926674	8863
1	26182	177.342140929608	8861
1	26189	177.36205493378	8858
1	26192	177.369957394832	8857
1	26197	177.377860748112	8856
1	26204	177.404335589817	8852
1	26209	177.412243407259	8850
1	26213	177.420153011779	8849
1	26220	177.429056771984	8848
1	26223	177.436968164389	8846
1	26230	177.45924608915	8843
1	26235	177.467161954806	8841
1	26238	177.47507961118	8840
1	26245	177.48804852964	8838
1	26249	177.5	8836
1	26604	180	8850
1	26965	182.5	8534
1	27295	185	8783
1	27692	187.5	9089
1	28020	190	9259
1	28401	192.5	9430
1	28801	195	9095
1	29163	197.5	9128
1	29591	200	9224
1	29908	202.5	9047
1	30220	205	8897
1	30611	207.5	8945
1	30925	210	8993
1	31341	212.5	9041
1	31749	215	9010
1	32152	217.5	9198
1	32505	220	9535
1	32536	220.5	9361
1	32537	220.507477833565	9359
1	32542	220.514957265128	9356
1	32546	220.52243909497	9354
1	32549	220.529922524519	9351
1	32554	220.537408354911	9348
1	32557	220.544896587688	9346
1	32560	220.552386422912	9343
1	32563	220.559878663092	9341
1	32566	220.567372507434	9338
1	32569	220.574868759308	9335
1	32572	220.582367420261	9333
1	32575	220.589867688128	9330
1	32580	220.597370367656	9328
1	32583	220.604874655821	9325
1	32586	220.612381358234	9322
1	32591	220.619890476449	9320
1	32594	220.627401206063	9317
1	32601	220.706156565609	9290
1	32606	220.77538235892	9266
1	32611	220.80461442105	9256
1	32616	220.860802100151	9236
1	32621	220.881574641993	9229
1	32626	220.889383204466	9226
1	32631	220.952761564718	9204
1	32636	221.016690201418	9182
1	32641	221.036598371922	9175
1	32646	221.046570648614	9172
1	32651	221.05833885178	9168
1	32656	221.072984611221	9163
1	32661	221.096704823442	9154
1	32664	221.104351753746	9152
1	32671	221.115195289677	9148
1	32674	221.122847235457	9145
1	32681	221.147496919668	9137
1	32686	221.187471321824	9123
1	32691	221.211806901502	9115
1	32697	221.30170052772	9083
1	32703	221.328392656958	9074
1	32708	221.352167370295	9066
1	32711	221.359888526262	9063
1	32718	221.418698688423	9043
1	32723	221.428219686469	9040
1	32728	221.483473217121	9020
1	32733	221.497537430342	9016
1	32738	221.53578074643	9002
1	32741	221.543556796197	9000
1	32749	221.673504412978	8955
1	32754	221.705443300011	8943
1	32760	221.762158623001	8924
1	32763	221.770002639137	8921
1	32770	221.779888976368	8918
1	32773	221.787738269932	8915
1	32780	221.839829579601	8897
1	32785	221.863220688617	8889
1	32791	221.904513899248	8874
1	32796	221.924618382664	8867
1	32801	221.94246931669	8861
1	32806	221.97794401585	8849
1	32809	221.985854514211	8846
1	32816	222.103506495481	8805
1	32821	222.1119504558	8803
1	32824	222.119902290402	8800
1	32831	222.169247361828	8783
1	32836	222.192943768765	8774
1	32841	222.20294202577	8771
1	32846	222.262009689481	8751
1	32852	222.477120000567	8676
1	32858	222.492092901013	8671
1	32859	222.5	8668
1	33330	225	9016
1	33755	227.5	8175
1	34161	230	9032
1	34485	232.5	9445
1	34901	235	9674
1	35266	237.5	8357
1	35611	240	8853
1	35912	242.5	9468
1	36301	245	8422
1	36707	247.5	9312
1	37007	250	9247
1	37367	252.5	9343
1	37790	255	9439
1	38143	257.5	9535
1	38558	260	9166
1	38922	262.5	9106
1	39356	265	9581
1	39731	267.5	8987
1	40040	270	9843
1	40067	270.5	9824
1	40068	270.507125407166	9824
1	40071	270.514250814332	9823
1	40074	270.521376946878	9823
1	40077	270.528503079424	9823
1	40082	270.53562921197	9823
1	40085	270.542755344516	9822
1	40088	270.54988220259	9822
1	40091	270.557009060664	9822
1	40094	270.564135918738	9822
1	40097	270.571262776812	9821
1	40100	270.578390360561	9821
1	40105	270.58551794431	9821
1	40108	270.592645528059	9820
1	40111	270.599773837631	9820
1	40116	270.606902147203	9820
1	40123	270.622075216363	9819
1	40126	270.629204251906	9819
1	40134	270.688568161176	9817
1	40139	270.73895067815	9815
1	40144	270.760874583073	9814
1	40149	270.87835212301	9810
1	40152	270.885487698953	9810
1	40159	270.954460391598	9807
1	40164	270.963451488328	9807
1	40169	270.998563804428	9805
1	40175	271.179881496321	9799
1	40178	271.187025082401	9798
1	40185	271.197652748746	9798
1	40190	271.229046236713	9797
1	40195	271.236191281114	9797
1	40198	271.243336325515	9796
1	40205	271.293081094458	9794
1	40210	271.324456160517	9793
1	40213	271.331604123348	9793
1	40220	271.388860015992	9791
1	40223	271.396009438931	9791
1	40230	271.438608951606	9789
1	40235	271.450968732917	9789
1	40240	271.484440172146	9787
1	40245	271.491592517093	9787
1	40248	271.49874486204	9787
1	40255	271.681459108	9780
1	40258	271.688616572213	9780
1	40265	271.729218322745	9778
1	40270	271.79449577791	9776
1	40275	271.820154556838	9775
1	40280	271.85148713462	9774
1	40285	271.908733462711	9772
1	40290	271.934560595401	9771
1	40295	271.972575868659	9769
1	40300	271.980743079845	9769
1	40303	271.98790860344	9769
1	40310	272.006734778804	9768
1	40315	272.015414498006	9768
1	40320	272.045850521938	9766
1	40325	272.116642921417	9764
1	40330	272.151261971795	9763
1	40335	272.16564424026	9762
1	40340	272.208187870364	9760
1	40345	272.228962326632	9760
1	40350	272.277238863226	9758
1	40355	272.294604458784	9757
1	40360	272.328548981186	9756
1	40363	272.335724052937	9756
1	40368	272.342899124688	9755
1	40375	272.379014714346	9754
1	40381	272.406370324471	9753
1	40386	272.433554469486	9752
1	40389	272.440732484252	9752
1	40397	272.475736645591	9750
1	40401	272.5	9750
1	40435	273	9731
1	40436	273.007193505292	9731
1	40439	273.014387010584	9730
1	40442	273.021581255188	9730
1	40445	273.028775499792	9730
1	40448	273.035969744396	9730
1	40451	273.043163989	9729
1	40454	273.050358973068	9729
1	40457	273.057553957136	9729
1	40460	273.064748941204	9729
1	40463	273.071943925272	9728
1	40466	273.079139648956	9728
1	40469	273.08633537264	9728
1	40472	273.093531096324	9728
1	40479	273.124033378486	9726
1	40484	273.150100566367	9725
1	40489	273.205867362013	9723
1	40494	273.224714277516	9723
1	40499	273.258338655357	9721
1	40502	273.265539560614	9721
1	40509	273.320855491878	9719
1	40514	273.343546547822	9718
1	40519	273.352305982006	9718
1	40522	273.359509110222	9718
1	40529	273.426629723145	9715
1	40534	273.457174984418	9714
1	40539	273.601032041659	9709
1	40544	273.646890751	9707
1	40549	273.682216853928	9706
1	40554	273.784696560978	9702
1	40559	273.813651072446	9701
1	40564	273.825977691537	9700
1	40569	273.84698886191	9700
1	40574	273.864687712278	9699
1	40580	273.900704296599	9698
1	40583	273.907922279688	9697
1	40591	273.945154137132	9696
1	40596	274.018767772067	9693
1	40602	274.047131251132	9692
1	40607	274.107951105492	9690
1	40612	274.158214777008	9688
1	40619	274.210416459959	9686
1	40624	274.225718637962	9685
1	40627	274.232946309619	9685
1	40635	274.286130899048	9683
1	40640	274.314605232979	9682
1	40645	274.349909213471	9680
1	40650	274.359285614424	9680
1	40655	274.374126235456	9679
1	40658	274.381358387538	9679
1	40663	274.38859053962	9679
1	40670	274.438755894772	9677
1	40675	274.461754616517	9676
1	40680	274.470075029251	9676
1	40685	274.491259212725	9675
1	40690	274.515576229215	9674
1	40695	274.527792069005	9673
1	40700	274.553928362533	9672
1	40705	274.585255471625	9671
1	40710	274.593651461727	9670
1	40713	274.600890344871	9670
1	40720	274.617563472051	9669
1	40725	274.631393684051	9669
1	40728	274.638633315864	9668
1	40735	274.669943318503	9667
1	40740	274.677184448119	9667
1	40743	274.684425577735	9667
1	40750	274.745166570762	9664
1	40755	274.775243842667	9663
1	40760	274.794044102269	9662
1	40765	274.810576770059	9661
1	40770	274.893865569138	9658
1	40775	274.943486047607	9656
1	40780	274.96748866401	9655
1	40785	274.975845690333	9654
1	40790	274.995587971729	9654
1	40791	275	9653
1	41271	277.5	9550
1	41276	277.533100580507	9548
1	41277	277.540431958806	9548
1	41284	277.553139049326	9547
1	41291	277.568086565974	9547
1	41297	277.580642896665	9546
1	41302	277.594678064903	9546
1	41307	277.607789302425	9545
1	41312	277.621746162775	9545
1	41322	277.69825157214	9541
1	41327	277.730403462193	9540
1	41332	277.745723991477	9539
1	41337	277.75901639538	9539
1	41345	277.817908142776	9536
1	41353	277.869154960664	9534
1	41359	277.919975126783	9532
1	41362	277.92533793967	9532
1	41370	277.94827468029	9531
1	41375	277.96202006861	9530
1	41383	278.047114847645	9527
1	41388	278.085832567028	9525
1	41393	278.098354155807	9525
1	41398	278.130681836443	9523
1	41403	278.138032461246	9523
1	41406	278.145383086049	9523
1	41413	278.184987576319	9521
1	41418	278.20524833215	9520
1	41423	278.255901745824	9518
1	41428	278.268849506072	9518
1	41433	278.27647872763	9517
1	41438	278.311454938357	9516
1	41443	278.370640252802	9513
1	41446	278.377998604531	9513
1	41453	278.444070698958	9510
1	41458	278.4829339645	9509
1	41463	278.520394654209	9507
1	41468	278.542210459379	9506
1	41473	278.567864408704	9505
1	41478	278.579114524809	9505
1	41483	278.613768935268	9503
1	41489	278.661933213954	9501
1	41494	278.69738499966	9500
1	41497	278.704753420713	9499
1	41504	278.770825698632	9497
1	41507	278.778196447289	9496
1	41514	278.78572374924	9496
1	41517	278.793095274093	9496
1	41524	278.873379698046	9492
1	41529	278.94252025595	9490
1	41535	279.047287910649	9485
1	41540	279.071017688817	9484
1	41545	279.079716040555	9484
1	41550	279.105166290682	9483
1	41554	279.112547920968	9483
1	41559	279.119929551254	9482
1	41566	279.152512328557	9481
1	41569	279.159895515984	9481
1	41574	279.167278703411	9480
1	41581	279.174912737176	9480
1	41586	279.184938288194	9480
1	41591	279.210353434317	9478
1	41594	279.217738958689	9478
1	41601	279.258870305211	9476
1	41606	279.327265944476	9474
1	41611	279.351475057655	9473
1	41616	279.435333834559	9469
1	41621	279.497674657147	9467
1	41626	279.510829919411	9466
1	41631	279.527414274232	9465
1	41636	279.541520072491	9465
1	41639	279.548915740742	9464
1	41646	279.564359788029	9464
1	41652	279.58379848024	9463
1	41655	279.591195711562	9463
1	41660	279.598592942884	9462
1	41667	279.64517993243	9460
1	41672	279.65878402178	9460
1	41677	279.685441107939	9459
1	41683	279.832793595874	9453
1	41688	279.84511323434	9452
1	41693	279.913271921801	9449
1	41698	279.936288430335	9448
1	41703	279.945730875545	9448
1	41708	279.97717772789	9447
1	41713	279.993681792868	9446
1	41714	280	9446
1	42136	282.5	9786
1	42547	285	9800
1	42941	287.5	8839
1	43290	290	8220
1	43741	292.5	8369
1	44177	295	8283
1	44545	297.5	8196
1	44903	300	8110
1	45245	302.5	8864
1	45716	305	9693
1	46073	307.5	9638
1	46105	308	9600
1	46106	308.007291666667	9599
1	46109	308.014584092961	9599
1	46112	308.021876519255	9598
1	46115	308.029169705335	9598
1	46118	308.036462891415	9597
1	46121	308.04375683744	9596
1	46124	308.051051543568	9596
1	46129	308.058346249696	9595
1	46132	308.065641716085	9595
1	46135	308.072937182474	9594
1	46138	308.080233409282	9594
1	46141	308.08752963609	9593
1	46144	308.094826623477	9593
1	46147	308.102123610864	9592
1	46150	308.109421358987	9591
1	46155	308.116719868006	9591
1	46162	308.124989750781	9590
1	46167	308.132332711222	9590
1	46172	308.142110801051	9589
1	46177	308.189616239935	9585
1	46182	308.236782928204	9582
1	46185	308.244088292429	9581
1	46192	308.29070598656	9578
1	46197	308.366822817261	9572
1	46202	308.392133027186	9570
1	46207	308.430718686507	9567
1	46212	308.471117579032	9564
1	46217	308.490330811876	9563
1	46222	308.504618992114	9561
1	46227	308.515419145056	9561
1	46232	308.524625300904	9560
1	46235	308.531947476636	9559
1	46242	308.567754678601	9557
1	46247	308.598590816785	9554
1	46253	308.624652762584	9552
1	46258	308.643134069933	9551
1	46263	308.720956478697	9545
1	46269	308.768513368143	9541
1	46274	308.791929817503	9540
1	46281	308.874975526338	9533
1	46284	308.882318440426	9533
1	46291	308.891277059363	9532
1	46296	308.946040219261	9528
1	46301	308.982774030691	9525
1	46306	308.998957469953	9524
1	46311	309.01818757829	9523
1	46316	309.028312431936	9522
1	46319	309.035663828701	9521
1	46326	309.057039530702	9520
1	46332	309.090486805251	9517
1	46335	309.097842064261	9517
1	46342	309.110196518504	9516
1	46347	309.11755255045	9515
1	46350	309.124909355495	9515
1	46357	309.146282128683	9513
1	46362	309.168653758081	9511
1	46367	309.176013657145	9511
1	46370	309.183373556209	9510
1	46377	309.205751961797	9509
1	46382	309.2403780782	9506
1	46387	309.250875132345	9505
1	46392	309.277040981321	9503
1	46398	309.394872727933	9494
1	46403	309.419157299686	9493
1	46408	309.444481785467	9491
1	46413	309.541176463081	9483
1	46418	309.593209403861	9480
1	46423	309.667543501568	9474
1	46428	309.687854828803	9472
1	46433	309.731658469397	9469
1	46439	309.830489557394	9462
1	46444	309.860647734561	9460
1	46447	309.868047311728	9459
1	46452	309.875447671174	9458
1	46459	309.95287753281	9453
1	46464	309.960282589406	9452
1	46471	309.96768842944	9451
1	46474	309.975095053078	9451
1	46479	309.982501676716	9450
1	46482	309.989909084123	9450
1	46489	310	9449
1	46938	312.5	9262
1	47307	315	9074
1	47681	317.5	8807
1	48060	320	9575
1	48516	322.5	9456
1	48923	325	9390
1	49278	327.5	9325
1	49633	330	9302
1	49680	330.5	9309
1	49683	330.507519604684	9309
1	49686	330.515039209368	9309
1	49689	330.522558814052	9309
1	49692	330.530078418736	9309
1	49697	330.53759802342	9309
1	49700	330.545117628104	9309
1	49703	330.552637232788	9309
1	49706	330.560156837472	9310
1	49709	330.567675634464	9310
1	49712	330.575194431456	9310
1	49717	330.582713228448	9310
1	49720	330.59023202544	9310
1	49723	330.597750822432	9310
1	49726	330.605269619424	9310
1	49729	330.612788416416	9310
1	49732	330.620307213408	9310
1	49737	330.6278260104	9310
1	49740	330.635344807392	9311
1	49743	330.642862796867	9311
1	49748	330.650380786342	9311
1	49751	330.657898775817	9311
1	49754	330.665416765292	9311
1	49757	330.672934754767	9311
1	49760	330.680452744242	9311
1	49763	330.687970733717	9311
1	49766	330.695488723192	9311
1	49773	330.707286928545	9312
1	49778	330.718763929639	9312
1	49781	330.72628111177	9312
1	49788	330.792887349846	9313
1	49793	330.808375783605	9313
1	49799	330.847515543621	9313
1	49804	330.855031918581	9314
1	49807	330.862547486543	9314
1	49814	330.978125133497	9315
1	49819	331.01694929361	9316
1	49824	331.027909388349	9316
1	49829	331.035648576137	9316
1	49834	331.054570989445	9316
1	49839	331.143084950725	9317
1	49845	331.161912812578	9318
1	49848	331.169425154282	9318
1	49855	331.182668614945	9318
1	49860	331.216230467134	9318
1	49863	331.223742808838	9319
1	49868	331.23125434441	9319
1	49876	331.240381949267	9319
1	49882	331.340138485049	9320
1	49887	331.373806806881	9321
1	49892	331.38753568135	9321
1	49897	331.442861377253	9322
1	49902	331.474036299632	9322
1	49908	331.538814716928	9323
1	49911	331.546323029703	9323
1	49916	331.553831342478	9323
1	49923	331.576111800178	9323
1	49926	331.583620112953	9323
1	49933	331.616364945629	9324
1	49938	331.638052439314	9324
1	49944	331.689597200629	9325
1	49949	331.712455870321	9325
1	49954	331.740957696181	9326
1	49959	331.756809671773	9326
1	49964	331.79937112507	9326
1	49969	331.814421389027	9327
1	49974	331.883006464199	9327
1	49979	331.929047485652	9328
1	49984	331.94145902014	9328
1	49990	332.077098736958	9330
1	49995	332.091650631304	9330
1	50002	332.099153310832	9330
1	50005	332.10665599036	9331
1	50008	332.114157865829	9331
1	50015	332.125531798326	9331
1	50020	332.13513514405	9331
1	50025	332.259697931035	9333
1	50031	332.335215894176	9334
1	50037	332.38184272817	9334
1	50042	332.454575481424	9335
1	50046	332.5	9336
1	50461	335	9370
1	50906	337.5	9404
1	50947	338.001431201733	9410
1	50948	338.008870096526	9411
1	50952	338.016308200872	9411
1	50955	338.023746305218	9411
1	50960	338.031184409564	9411
1	50965	338.03862251391	9411
1	50970	338.046060618256	9411
1	50975	338.053498722602	9411
1	50978	338.060936826948	9411
1	50981	338.068374931294	9411
1	50986	338.07581303564	9411
1	50989	338.083251139986	9412
1	50992	338.090688454053	9412
1	50997	338.09812576812	9412
1	51002	338.105563082187	9412
1	51005	338.113000396254	9412
1	51010	338.120437710321	9412
1	51013	338.127875024388	9412
1	51016	338.135312338455	9412
1	51019	338.142749652522	9412
1	51022	338.150186966589	9412
1	51025	338.157624280656	9413
1	51028	338.165060804612	9413
1	51031	338.172497328568	9413
1	51034	338.179933852524	9413
1	51037	338.18737037648	9413
1	51044	338.198957844654	9413
1	51049	338.21776308454	9413
1	51052	338.225199608496	9413
1	51057	338.232636132452	9414
1	51064	338.26064374802	9414
1	51067	338.268079482033	9414
1	51074	338.291340110008	9414
1	51079	338.364859858958	9415
[...]
21	28026	190.098393415664	4.4068659490538
21	28739	194.505259364718	0.98663025837274
21	28839	195.491889623091	4.4661431570037
21	29576	199.958032780095	2.2217815092785
21	29864	202.179814289373	3.1909639217887
21	30235	205.370778211162	6.9758605017895
21	31310	212.346638712951	0.31098129837197
21	31353	212.657620011323	7.0254177062207
21	32432	219.683037717544	0.30307877653036
21	32504	219.986116494074	0.53086832904459
21	32545	220.516984823119	0.80191826174657
21	32701	221.318903084866	1.0679738269862
21	32850	222.386876911852	4.621707039762
21	33618	227.008583951614	0.056808935722111
21	33628	227.065392887336	0.1093228705379
21	33664	227.174715757874	1.2520511781996
21	33883	228.426766936074	1.838349475002
21	34174	230.265116411076	2.1489325487024
21	34467	232.414048959778	1.9882756571201
21	34778	234.402324616898	0.59816509434225
21	34902	235.00048971124	1.1477304003919
21	35061	236.148220111632	7.2082079621631
21	36046	243.356428073795	9.9266505759847
21	37524	253.28307864978	0.13739984187845
21	37556	253.420478491658	2.3715456631246
21	37907	255.792024154783	1.3785123477652
21	38116	257.170536502548	2.4910810131701
21	38503	259.661617515718	1.2361988432705
21	38686	260.897816358988	1.7080632369898
21	38934	262.605879595978	4.8589041905876
21	39730	267.464783786566	3.1805859436672
21	40132	270.645369730233	9.0658441176437
21	41681	279.711213847877	3.7832006859551
21	42326	283.494414533832	2.688575249453
21	42723	286.182989783285	2.9895682007513
21	43142	289.172557984036	2.1036708038978
21	43550	291.276228787934	0.68400129634766
21	43666	291.960230084282	7.6942945797673
21	44856	299.654524664049	0.65827737038759
21	44922	300.312802034437	0.22522252202023
21	44958	300.538024556457	5.6145069908601
21	45900	306.152531547317	5.0222124473151
21	46669	311.174743994632	1.0294079046215
21	46892	312.204151899253	1.5195563816163
21	47128	313.723708280869	2.4014336588241
21	47459	316.125141939693	0.070138628219987
21	47460	316.195280567913	0.66229776739992
21	47579	316.857578335313	1.8456268677224
21	47857	318.703205203035	2.4469187343929
21	48257	321.150123937428	0.940896399422
21	48435	322.09102033685	6.2484538519318
21	49422	328.339474188782	1.5921570156928
21	49631	329.931631204475	3.6077880801025
21	50211	333.539419284578	10.154275731826
21	51921	343.693695016404	3.291200027072
21	52366	346.984895043476	1.1300566545734
21	52571	348.114951698049	3.0881994350532
21	53033	351.203151133102	1.0771264163634
21	53213	352.280277549465	4.964005833416
21	53885	357.244283382881	2.5935700301847
21	54211	359.837853413066	2.9348273964876
21	54585	362.772680809554	0.45043595099635
21	54651	363.22311676055	0.6628849668934
21	54762	363.886001727443	0.49965452261994
21	54828	364.385656250063	2.899856074574
21	55292	367.285512324637	0.36187572482602
21	55335	367.647388049463	3.7857964792885
21	55876	371.433184528751	1.2623071025507
21	56008	372.695491631302	1.7926049763685
21	56355	374.488096607671	2.6702586017472
21	56681	377.158355209418	2.3991615954015
21	57039	379.557516804819	0.0061931119847609
21	57040	379.563709916804	0.33410179210719
21	57103	379.897811708911	10.339762547261
21	58644	390.237574256172	5.1984441166045
21	59365	395.436018372776	5.8653783732536
22	1871	12.313726549034	3.1862583372779
22	2273	15.499984886312	0.48249557913301
22	2388	15.982480465445	10.018987674326
22	3989	26.001468139771	2.1716798347672
22	4277	28.173147974538	1.6944612178096
22	4552	29.867609192348	10.578273787286
22	6036	40.445882979634	0.90228066555986
22	6223	41.348163645194	5.3516756987192
22	6965	46.699839343913	1.4707337582
22	7259	48.170573102113	1.6079474280271
22	7475	49.77852053014	10.825848372382
22	9288	60.604368902522	4.1442533517777
22	9874	64.7486222543	0.91867287064434
22	10018	65.667295124944	7.3572769111096
22	11105	73.024572036054	1.1628103702879
22	11336	74.187382406342	0.97486119405509
22	11477	75.162243600397	0.35156775325492
22	11507	75.513811353652	0.96086066612019
22	11664	76.474672019772	1.0494057342004
22	11810	77.524077753972	0.72592570725655
22	11872	78.250003461229	0.95994590661269
22	12055	79.209949367842	0.9665632727378
22	12167	80.17651264058	0.47069961539469
22	12267	80.647212255975	0.79235858753533
22	12425	81.43957084351	0.52912139772893
22	12471	81.968692241239	0.52830247781598
22	12566	82.496994719055	5.4331507610799
22	13343	87.930145480135	2.6731995972103
22	13688	90.603345077345	1.6989573923134
22	13963	92.302302469658	2.6541887103624
22	14268	94.95649118002	6.1937141206312
22	15204	101.150205300651	1.2098342015302
22	15344	102.360039502181	6.5101318526832
22	16258	108.870171354864	1.3116681563967
22	16397	110.181839511261	0.67259112459458
22	16496	110.854430635856	2.5338239032597
22	16888	113.388254539116	5.8656955440101
22	17701	119.253950083126	7.8176161522971
22	18963	127.071566235423	3.9355672715841
22	19410	131.007133507007	8.836449034655
22	20768	139.843582541662	1.2450161362636
22	20918	141.088598677926	11.809727581967
22	22729	152.898326259893	1.9487482334808
22	23016	154.847074493374	0.73734609190123
22	23099	155.584420585275	2.8166073127921
22	23521	158.401027898067	15.865257109258
22	25746	174.266285007325	3.9169182748501
22	26336	178.183203282175	3.3087586650785
22	26811	181.491961947253	1.2346078007853
22	26970	182.726569748038	2.2913636997101
22	27296	185.017933447748	2.4416097452652
22	27680	187.459543193013	4.1464891592869
22	28273	191.6060323523	1.2409544370202
22	28479	192.84698678932	1.0331285850609
22	28639	193.880115374381	3.1390155621175
22	29121	197.019130936498	1.1198480092885
22	29282	198.138978945786	3.8392266098838
22	29850	201.97820555567	0.15986738708026
22	29861	202.13807294275	9.256225016453
22	31172	211.394297959203	0.79063712565201
22	31284	212.184935084855	3.6674596460812
22	31862	215.852394730936	0.66193960521858
22	32008	216.514334336155	3.7468263848137
22	32524	220.261160720969	5.9409930474139
22	33503	226.202153768383	0.42076862074789
22	33586	226.622922389131	6.2609716335039
22	34516	232.883894022635	3.7023224311994
22	35124	236.586216453834	2.9341756749721
22	35513	239.520392128806	1.2540401393417
22	35704	240.774432268148	3.3026825819097
22	36140	244.077114850058	2.486392409993
22	36574	246.563507260051	0.76081337169809
22	36688	247.324320631749	8.499947440247
22	37910	255.824268071996	2.2191950981115
22	38196	258.043463170108	0.59422897065781
22	38348	258.637692140766	1.5331996583927
22	38563	260.170891799159	3.2597713842356
22	39079	263.430663183395	0.51088862775603
22	39154	263.941551811151	8.4483585141455
22	40379	272.389910325296	0.50502704516982
22	40428	272.894937370466	2.6424482606555
22	40850	275.537385631122	0.83710577965915
22	41041	276.374491410781	0.61436485784592
22	41172	276.988856268627	12.065298264513
22	43127	289.05415453314	1.8665980004763
22	43467	290.920752533616	3.6876676456264
22	44100	294.608420179242	1.6050012337176
22	44310	296.21342141296	3.3172476771312
22	44845	299.530669090091	1.6917303038527
22	45086	301.222399393944	1.6531149545935
22	45278	302.875514348538	3.7070296323719
22	45944	306.58254398091	0.82553864917414
22	46066	307.408082630084	0.042004159567686
22	46067	307.450086789652	5.2598812079225
22	46956	312.709967997574	2.051148364348
22	47251	314.761116361922	3.6336194384459
22	47823	318.394735800368	4.6894102054842
22	48626	323.084146005852	0.48800823692163
22	48687	323.572154242774	0.5189371974841
22	48765	324.091091440258	0.78984548546715
22	48892	324.880936925725	1.3335297940629
22	49069	326.214466719788	6.1599541647163
22	50035	332.374420884504	0.8340631380041
22	50168	333.208484022508	6.230504218393
22	51320	339.438988240901	14.457035886657
22	53451	353.896024127558	2.923300004334
22	53860	356.819324131892	0.38895453056547
22	53884	357.208278662457	0.39939487707682
22	53917	357.607673539534	0.73313791883415
22	53993	358.340811458368	2.2638161471731
22	54319	360.604627605541	0.35990456876535
22	54382	360.964532174306	5.2479190285141
22	55103	366.21245120282	0.1621953014486
22	55129	366.374646504269	0.34937291361277
22	55186	366.724019417882	0.69283328497174
22	55308	367.416852702854	0.65577660925064
22	55385	368.072629312105	2.2920911801722
22	55710	370.364720492277	8.1085284854786
22	56907	378.473248977756	0.65017729126694
22	56984	379.123426269023	0.34829611986583
22	57027	379.471722388889	0.029300814333314
22	57028	379.501023203222	1.0321906486021
22	57163	380.533213851824	1.6222694190236
22	57459	382.155483270848	1.9598394818668
22	57705	384.115322752715	1.3537041572767
22	57955	385.469026909992	7.098919842925
22	58999	392.567946752917	0.37991568916569
22	59012	392.947862442083	1.5636143231781
22	59260	394.511476765261	2.9909686982136
22	59671	397.502445463475	1.4692925182006
22	59861	398.971737981676	2.2804519049435
23	1946	13.034736668212	4.7264103624311
23	2648	17.761147030643	6.6087639146457
23	3717	24.369910945289	0.25698387981324
23	3758	24.626894825102	8.8747559547331
23	5043	33.501650779835	1.9676799423511
23	5372	35.469330722186	2.2274338054403
23	5718	37.696764527626	2.1035407124729
23	5991	39.800305240099	2.4198470712186
23	6344	42.220152311318	7.8333183271819
23	7569	50.0534706385	1.2552480548093
23	7782	51.308718693309	9.8470108292533
23	9380	61.155729522562	4.807173226955
23	10055	65.962902749517	1.6328135283263
23	10268	67.595716277843	7.4928350381844
23	11474	75.088551316027	1.8694230725
23	11721	76.957974388527	2.1699481596215
23	12045	79.127922548148	5.5951807101777
23	12884	84.723103258326	1.0117484730514
23	13073	85.734851731377	0.78243511988207
23	13165	86.517286851259	3.6585540234924
23	13632	90.175840874751	0.66204143956655
23	13714	90.837882314318	0.0077577452830852
23	13715	90.845640059601	2.8999228454794
23	14146	93.74556290508	1.3502612947895
23	14286	95.095824199869	1.9910783529716
23	14637	97.086902552841	3.9880570459315
23	15193	101.074959598772	0.83583713604125
23	15304	101.910796734813	3.3916070707124
23	15728	105.302403805525	1.0433313731097
23	15932	106.345735178635	3.7736726930053
23	16390	110.11940787164	0.09696491704777
23	16398	110.216372788688	0.21041527946957
23	16409	110.426788068158	1.4747075637769
23	16637	111.901495631935	4.4055990210837
23	17315	116.307094653019	1.2743940420286
23	17485	117.581488695048	6.2760456231261
23	18408	123.857534318174	0.30791956203762
23	18500	124.165453880212	5.9204414490618
23	19305	130.085895329274	0.74877529783293
23	19394	130.834670627107	6.3763825927021
23	20351	137.211053219809	0.12643459812152
23	20374	137.337487817931	1.4379449256192
23	20596	138.77543274355	0.60519700537918
23	20701	139.380629748929	4.099925358454
23	21274	143.480555107383	4.6854281023522
23	22039	148.165983209735	0.24766164116079
23	22090	148.413644850896	1.684192355915
23	22318	150.097837206811	0.32190323115279
23	22352	150.419740437964	0.57929492353295
23	22503	150.999035361497	1.2297433444377
23	22649	152.228778705935	0.41380568446897
23	22713	152.642584390404	3.1744871308823
23	23162	155.817071521286	0.31833458409627
23	23193	156.135406105382	5.3731040486679
23	23876	161.50851015405	6.244783128557
23	24690	167.753293282607	0.80908334030217
23	24838	168.562376622909	3.8951614315318
23	25388	172.457538054441	3.4128834920311
23	25969	175.870421546472	0.090702695307817
23	25995	175.96112424178	1.0174956655909
23	26139	176.978619907371	10.244045539457
23	27640	187.222665446828	0.8800007974928
23	27745	188.102666244321	2.1203502308745
23	28028	190.223016475196	4.7647216285009
23	28798	194.987738103697	3.5063177475746
23	29330	198.494055851272	1.4651173942576
23	29577	199.95917324553	1.150489956651
23	29735	201.109663202181	7.9688117187596
23	30825	209.078474920941	1.0974267698376
23	30945	210.175901690779	0.095407149334544
23	30955	210.271308840114	8.6944337525099
23	32356	218.965742592624	0.74649923933879
23	32440	219.712241831963	1.8468383355019
23	32747	221.559080167465	0.93029798846885
23	32856	222.489378155934	1.0726479175845
23	33069	223.562026073518	4.3817709920057
23	33778	227.943797065524	2.940881227557
23	34287	230.884678293081	5.0220186382318
23	35025	235.906696931313	1.5434690573537
23	35262	237.450165988667	0.67559839915206
23	35350	238.125764387819	9.5472025767415
23	36714	247.672966964561	0.68651255572848
23	36801	248.359479520289	0.53893243789133
23	36880	248.89841195818	0.53530907118271
23	36940	249.433721029363	12.89104317806
23	38901	262.324764207423	0.1904147668719
23	38923	262.515178974295	2.9488033209119
23	39392	265.463982295207	8.4601758597095
23	40589	273.924158154916	2.2278402025234
23	41009	276.151998357439	1.4278871512703
23	41295	277.579885508709	0.072708087690866
23	41318	277.6525935964	19.513402438353
23	44479	297.165996034753	4.3017237421261
23	45114	301.467719776879	3.8014209672883
23	45748	305.269140744167	0.98271039958125
23	45922	306.251851143748	0.45311123977492
23	45960	306.704962383523	1.1700598858348
23	46092	307.875022269358	2.117207271648
23	46485	309.992229541006	0.32525983383521
23	46514	310.317489374841	1.1111220201725
23	46708	311.428611395014	1.1105716854345
23	46939	312.539183080449	1.9557037114527
23	47210	314.494886791902	2.3257940164798
23	47577	316.820680808382	1.2928351641891
23	47760	318.113515972571	1.6725855930733
23	47999	319.786101565644	2.9417870336787
23	48556	322.727888599323	0.081947667614225
23	48576	322.809836266937	0.9757492220558
23	48726	323.785585488993	5.9909525187844
23	49625	329.776538007777	1.8618330577714
23	49939	331.638371065548	1.7194044024024
23	50195	333.35777546795	0.70698901227447
23	50320	334.064764480224	7.6272798665052
23	51675	341.692044346729	8.270103597299
23	52851	349.962147944028	1.1343987175462
23	53010	351.096546661574	1.1748339385351
23	53209	352.271380600109	6.8689864144534
23	54109	359.140367014562	6.5587768336816
23	55045	365.699143848244	0.84779475157283
23	55164	366.546938599817	1.8862767116866
23	55451	368.433215311504	0.56608662390043
23	55509	368.999301935404	1.0487609279302
23	55685	370.048062863334	9.1509283866574
23	56997	379.198991249991	0.14734917338462
23	57016	379.346340423376	1.9086831573429
23	57322	381.255023580719	0.94253897186399
23	57465	382.197562552583	3.4010931269022
23	57969	385.598655679485	13.764848575909
23	59919	399.363504255394	2.2968674919385
24	2810	18.527692622347	1.136312442241
24	2929	19.664005064588	4.9691999851495
24	3759	24.633205049738	1.368739580575
24	3990	26.001944630313	1.5640173326607
24	4172	27.565961962974	0.082737600254544
24	4179	27.648699563229	4.1187299545198
24	4788	31.767429517749	2.7625316337105
24	5221	34.52996115146	0.5561904462513
24	5308	35.086151597711	1.0402724223642
24	5465	36.126424020075	1.3230792072979
24	5700	37.449503227373	2.185892604752
24	5970	39.635395832125	1.1726517232226
24	6131	40.808047555348	1.4676321738589
24	6355	42.275679729207	4.0039198901016
24	6889	46.279599619309	3.2559217815913
24	7434	49.5355214009	2.9895969590251
24	8030	52.525118359925	0.72482296041573
24	8128	53.249941320341	0.78170289814831
24	8256	54.031644218489	6.3409074038718
24	9230	60.372551622361	1.640075420557
24	9519	62.012627042918	0.7486085676486
24	9572	62.761235610567	7.5199347381347
24	10617	70.281170348702	6.8008974670721
24	11748	77.082067815774	0.30041601859835
24	11776	77.382483834372	4.6084497551525
24	12479	81.990933589524	0.74265444667327
24	12591	82.733588036197	4.061540111629
24	13191	86.795128147826	1.325461285887
24	13409	88.120589433713	7.2457673522617
24	14301	95.366356785975	2.1254981710325
24	14682	97.491854957008	0.61587309071447
24	14752	98.107728047722	3.6927082923893
24	15286	101.800436340111	1.9702036678518
24	15558	103.770640007963	0.50016799301304
24	15630	104.270808000976	8.795126105117
24	16800	113.065934106093	3.6346466942043
24	17362	116.700580800297	2.3242603046111
24	17669	119.024841104908	5.5418110307764
24	18549	124.566652135684	0.98909763641697
24	18712	125.555749772101	0.23148820329919
24	18790	125.7872379754	1.1828913083509
24	18962	126.970129283751	4.2441387864774
24	19457	131.214268070228	0.60739445388582
24	19544	131.821662524114	13.09960706888
24	21543	144.921269592994	3.8798340161506
24	22137	148.801103609145	3.08008989844
24	22587	151.881193507585	0.1866080830828
24	22625	152.067801590668	12.248143436004
24	24247	164.315945026672	0.056110250993108
24	24251	164.372055277665	0.22901846975062
24	24280	164.601073747416	2.9295932399941
24	24679	167.53066698741	5.2270311308637
24	25421	172.757698118274	0.30235737852638
24	25480	173.0600554968	1.9267514638326
24	25840	174.986806960633	0.40457432938258
24	25887	175.391381290016	0.86818227511691
24	26038	176.259563565133	5.6999689120054
24	26880	181.959532477138	9.6346577706683
24	28271	191.594190247806	0.69238437905666
24	28360	192.286574626863	7.616598849035
24	29573	199.903173475898	2.043111736338
24	29843	201.946285212236	0.0056532962066554
24	29844	201.951938508443	5.5188740086072
24	30610	207.47081251705	3.3683102349399
24	31061	210.83912275199	8.1574770427615
24	32362	218.996599794752	0.25627948262597
24	32409	219.252879277378	2.0168205130649
24	32695	221.269699790443	0.45164377882488
24	32758	221.721343569268	2.2954959569992
24	33152	224.016839526267	0.9254649761773
24	33308	224.942304502444	3.3053458574979
24	33865	228.247650359942	2.3260738149217
24	34238	230.573724174864	0.69656594612208
24	34331	231.270290120986	2.2832561322795
24	34637	233.553546253265	1.4577644804479
24	34904	235.011310733713	0.27848251767652
24	34953	235.28979325139	0.95403532855715
24	35067	236.243828579947	0.20836712329088
24	35103	236.452195703238	1.4680301882665
24	35284	237.920225891505	11.760705543552
24	36961	249.680931435057	2.4423447763296
24	37286	252.123276211387	2.8740211849861
24	37788	254.997297396373	4.0919656807329
24	38430	259.089263077106	1.3126989046598
24	38582	260.401961981766	0.39045562263864
24	38674	260.792417604405	1.399332737069
24	38880	262.191750341474	3.5939657937966
24	39511	265.785716135271	1.8089193890224
24	39734	267.594635524293	3.5186560109185
24	40173	271.113291535211	1.3389846896797
24	40395	272.452276224891	0.11337912623309
24	40407	272.565655351124	3.1152101174667
24	40911	275.680865468591	8.1605239234703
24	42382	283.841389392061	5.3093335860346
24	43141	289.150722978096	0.15722010785414
24	43184	289.30794308595	4.8999416861423
24	44034	294.207884772092	4.6225584725876
24	44728	298.83044324468	0.93498117546078
24	44857	299.765424420141	2.335906697984
24	45184	302.101331118125	9.6351430133372
24	46779	311.736474131462	0.13254819418527
24	46811	311.869022325647	0.21996142587365
24	46866	312.088983751521	7.1557920936216
24	47920	319.244775845143	1.9209151899983
24	48261	321.165691035141	1.0972475027147
24	48481	322.262938537856	3.933950673347
24	49068	326.196889211203	2.9415884448522
24	49532	329.138477656055	0.81650474046415
24	49632	329.954982396519	0.44716585837115
24	49673	330.40214825489	1.0864035934234
24	49906	331.488551848313	4.1059911861323
24	50555	335.594543034445	1.8276979847793
24	50898	337.422241019224	1.2453608616508
24	51156	338.667601880875	5.0781251304372
24	51930	343.745727011312	1.4517194100089
24	52079	345.197446421321	2.6324939762444
24	52517	347.829940397565	0.43489293370715
24	52606	348.264833331272	1.2200409555645
24	52800	349.484874286836	1.4368487052697
24	52969	350.921722992106	5.6781351432112
24	53821	356.599858135317	0.34827997058374
24	53877	356.948138105901	4.0980197480612
24	54398	361.046157853962	1.7534223799808
24	54588	362.799580233943	2.0866864734204
24	54926	364.886266707363	1.5555579092047
24	55138	366.441824616568	1.1764403713086
24	55330	367.618264987877	3.0747807320248
24	55785	370.693045719902	1.0766508149597
24	55912	371.769696534862	3.7101989580674
24	56486	375.479895492929	0.050122703236757
24	56488	375.530018196166	0.77612876190453
24	56560	376.306146958071	1.7502714170063
24	56802	378.056418375077	0.77213211135867
24	56958	378.828550486436	2.9182526578219
24	57388	381.746803144258	3.9558401374603
24	57981	385.702643281718	4.6291849933707
24	58651	390.331828275089	0.18522421603475
24	58674	390.517052491124	1.986050967834
24	58994	392.503103458958	1.6561412703911
24	59204	394.159244729349	0.77745542384972
24	59327	394.936700153199	3.661067350749
24	59825	398.597767503948	3.240049630835

