file 34437152 1609351877                                        
version 2
run Exponential-selection-capacity-exponential-interarrival-time-69-20201230-19:10:58-7840
attr configname Exponential-selection-capacity-exponential-interarrival-time
attr datetime 20201230-19:10:58
attr experiment Exponential-selection-capacity-exponential-interarrival-time
attr inifile aerocom.ini
attr iterationvars "$0=0.5s, $1=0.5s, $2=0.5, $3=1, $4=10s"
attr iterationvarsf 0.5s,0.5s,0.5,1,10s-
attr measurement "$0=0.5s, $1=0.5s, $2=0.5, $3=1, $4=10s"
attr network Aerocom
attr processid 7840
attr repetition 9
attr replication #9
attr resultdir results
attr runnumber 69
attr seedset 9
param **.t 0.5s
param **.k 0.5s
param **.dataLink[*].s "1500 byte"
param **.dataLink[*].X 0.5
param **.nDL 1
param **.dataLink[*].dimPoolMax 400
param **.dataLink[*].dimPoolMin 100
param **.tDistribution "\"exponential\""
param **.aircraft[*].m 10s
param **.aircraft[*].linkSelector.DLMaxCapacity 0
param **.aircraft[*].linkSelector.trasmitting false
param **.operationMode 0

vector 0 Aerocom.aircraft[0].dataLink[0] waitingTime:vector ETV
attr "" ""
attr source computeWaitingTime
vector 1 Aerocom.aircraft[0].dataLink[0] responseTime:vector ETV
attr "" ""
attr source computeResponseTime
vector 2 Aerocom.aircraft[0].dataLink[0] queueLength:vector ETV
attr "" ""
attr source computeQueueLength
2	1341 1042820 122739 324239 10001.07195458717 26448.946526632908 32768 0 265 1546008 130925964
0	1044161 1452707 122727 324835 10000.592792709167 26501.713910670943 32768 -2e-012 121.70793000212 777646.19225026 32355270.648101
1	2496868 1460045 122727 324835 10000.592792709167 26501.713910670943 32768 2.999999999998 132.51363151591 978739.19225026 43234266.660399
2	3956913 1043280 324242 525351 26448.984704434385 42691.158053725002 32768 0 193 1525368 121329722
0	5000193 1451547 324842 525928 26502.344117353535 42735.019920404579 32768 -5e-012 93.416476069519 753633.6070808 29465339.073916
1	6451740 1460015 324842 525928 26502.344117353535 42735.019920404579 32768 2.999999999999 102.41647606952 954228.6070808 40097791.979458
2	7911755 1044993 525358 726575 42691.534783087834 59116.389764258676 32768 0 221 1730805 157811799
0	8956748 1453965 525930 727058 42735.114455579794 59153.532901799223 32768 -4e-012 95.739006607081 861739.70051755 38273194.072451
1	10410713 1461962 525930 727058 42735.114455579794 59153.532901799223 32768 2.999999999997 105.84715977249 1061735.7005176 50216220.957552
2	11872675 1043605 726581 928481 59117.475525468024 75619.307521204384 32768 0 203 1521215 128013217
0	12916280 1453368 727060 928629 59153.53985916175 75631.14345815387 32768 -1.2e-011 108.64640578628 765616.02042541 32067823.036211
1	14369648 1461642 727060 928629 59153.53985916175 75631.14345815387 32768 2.999999999988 119.57181734691 966183.02042542 42803946.967548
0	15831290 1474210 928633 1129830 75631.545680496615 92005.479545224833 32768 -8e-012 89.24858468054 772128.37827269 31843669.482549
1	17305500 1483192 928633 1129830 75631.545680496615 92005.479545224833 32768 2.999999999993 99.231053844845 972557.37827269 42666211.063661
2	18788692 1065130 928485 1129850 75619.386639147617 92006.359332903565 32768 0 202 1548978 131485832
2	19853822 1094496 1129855 1331396 92006.933080138685 108444.132898780345 32768 0 194 1700227 141730427
0	20948318 1505395 1129832 1331502 92005.53679810417 108452.115847063541 32768 -8e-012 92.152544525096 853683.05545476 35448815.560595
1	22453713 1512251 1129832 1331502 92005.53679810417 108452.115847063541 32768 2.999999999993 101.89881381109 1055601.0554548 47335145.387639
2	23965964 1106388 1331407 1533127 108444.841696623977 124890.781551631404 32768 0 180 1197350 81782810
0	25072352 1514744 1331528 1533170 108453.653306919215 124893.700006169756 32768 -8e-012 89.080076132854 604117.47349162 20469274.056174
1	26587096 1525674 1331528 1533170 108453.653306919215 124893.700006169756 32768 2.999999999993 99.449066968741 804657.47349161 29252879.309597
2	28112770 1105913 1533138 1734858 124891.911359260323 141317.73481907164 32768 0 172 1364890 96291576
0	29218683 1516063 1533172 1735138 124893.720457721326 141346.720456004233 32768 -2.4e-011 87.733032056179 684958.25254137 24221367.695318
1	30734746 1525138 1533172 1735138 124893.720457721326 141346.720456004233 32768 2.999999999995 97.772348661442 885472.25254137 33947958.9151
0	32259884 794638 1735143 1840788 141347.65363527383 149999.550985042044 17157 -1.9e-011 95.468665271994 441180.19792311 19923338.393182
1	33054522 798961 1735143 1840788 141347.65363527383 149999.550985042044 17157 2.999999999985 106.10866899425 546092.19792311 26038678.700423
2	33853483 583667 1734863 1840785 141318.82757149359 149998.770433424152 17215 0 213 874783 78720117

