version 2
run Exponential-capacity-43-20210216-13:46:24-19044
attr configname Exponential-capacity
attr datetime 20210216-13:46:24
attr experiment Exponential-capacity
attr inifile aerocom.ini
attr iterationvars "$0=2, $1=50, $2=4, $3=0.5"
attr iterationvarsf 2,50,4,0.5-
attr measurement "$0=2, $1=50, $2=4, $3=0.5"
attr network Aerocom
attr processid 19044
attr repetition 1
attr replication #1
attr resultdir results
attr runnumber 43
attr seedset 1
param **.t 2s
param **.k 50ms
param **.X 4s
param **.m 0.5s
param **.tDistribution "\"exponential\""
param **.operationMode 0
param **.s "70 byte"
param **.dimPoolMax 10000
param **.dimPoolMin 8000
param **.nDL 10
param **.nA 1
param **.DLMaxCapacity 0
param **.trasmitting false

vector 0 Aerocom.aircraft[0].dataLink[0] actualCapacity:vector ETV
attr "" ""
attr source computeActualCapacity
vector 1 Aerocom.aircraft[0].dataLink[1] actualCapacity:vector ETV
attr "" ""
attr source computeActualCapacity
vector 2 Aerocom.aircraft[0].dataLink[2] actualCapacity:vector ETV
attr "" ""
attr source computeActualCapacity
vector 3 Aerocom.aircraft[0].dataLink[3] actualCapacity:vector ETV
attr "" ""
attr source computeActualCapacity
vector 4 Aerocom.aircraft[0].dataLink[4] actualCapacity:vector ETV
attr "" ""
attr source computeActualCapacity
vector 5 Aerocom.aircraft[0].dataLink[5] actualCapacity:vector ETV
attr "" ""
attr source computeActualCapacity
vector 6 Aerocom.aircraft[0].dataLink[6] actualCapacity:vector ETV
attr "" ""
attr source computeActualCapacity
vector 7 Aerocom.aircraft[0].dataLink[7] actualCapacity:vector ETV
attr "" ""
attr source computeActualCapacity
vector 8 Aerocom.aircraft[0].dataLink[8] actualCapacity:vector ETV
attr "" ""
attr source computeActualCapacity
vector 9 Aerocom.aircraft[0].dataLink[9] actualCapacity:vector ETV
attr "" ""
attr source computeActualCapacity
vector 10 Aerocom.aircraft[0].linkSelector responseTime:vector ETV
attr "" ""
attr source computeResponseTime
vector 11 Aerocom.aircraft[0].dataLink[4] tDistribution:vector ETV
attr "" ""
attr source computeTDistribution
vector 12 Aerocom.aircraft[0].packetGenerator arrivalTime:vector ETV
attr "" ""
attr source computeArrivalTime
vector 13 Aerocom.aircraft[0].linkSelector waitingTime:vector ETV
attr "" ""
attr source computeWaitingTime
vector 14 Aerocom.aircraft[0].linkSelector queueLength:vector ETV
attr "" ""
attr source computeQueueLength
vector 15 Aerocom.aircraft[0].linkSelector serviceTime:vector ETV
attr "" ""
attr source computeServiceTime
vector 16 Aerocom.aircraft[0].dataLink[5] tDistribution:vector ETV
attr "" ""
attr source computeTDistribution
vector 17 Aerocom.aircraft[0].dataLink[0] tDistribution:vector ETV
attr "" ""
attr source computeTDistribution
vector 18 Aerocom.aircraft[0].dataLink[3] tDistribution:vector ETV
attr "" ""
attr source computeTDistribution
vector 19 Aerocom.aircraft[0].dataLink[7] tDistribution:vector ETV
attr "" ""
attr source computeTDistribution
vector 20 Aerocom.aircraft[0].dataLink[8] tDistribution:vector ETV
attr "" ""
attr source computeTDistribution
vector 21 Aerocom.aircraft[0].dataLink[6] tDistribution:vector ETV
attr "" ""
attr source computeTDistribution
vector 22 Aerocom.aircraft[0].dataLink[1] tDistribution:vector ETV
attr "" ""
attr source computeTDistribution
vector 23 Aerocom.aircraft[0].dataLink[2] tDistribution:vector ETV
attr "" ""
attr source computeTDistribution
vector 24 Aerocom.aircraft[0].dataLink[9] tDistribution:vector ETV
attr "" ""
attr source computeTDistribution
0	1172	10	9281
0	1179	10.070387184435	9282
0	1184	10.086041098526	9282
0	1189	10.119229666182	9282
0	1195	10.228202983124	9283
0	1200	10.25857709306	9283
0	1205	10.293561045423	9283
0	1210	10.30585516246	9284
0	1215	10.348314533672	9284
0	1220	10.358067453106	9284
0	1225	10.379026864157	9284
0	1228	10.386566717668	9284
0	1235	10.429885626445	9284
0	1239	10.5	9285
0	1242	10.541349194667	9285
0	1245	10.548888236132	9285
0	1253	10.598883052641	9285
0	1256	10.606422094106	9285
0	1261	10.613961135571	9286
0	1268	11	9311
0	1272	11.139371227809	9326
0	1277	11.166103832907	9328
0	1282	11.181699002626	9330
0	1285	11.189201682154	9331
0	1292	11.199083642446	9332
0	1297	11.210830113424	9333
0	1302	11.22702263311	9335
0	1307	11.292620605857	9341
0	1313	11.307120945188	9343
0	1319	11.359772704285	9348
0	1324	11.473783086221	9360
0	1328	11.5	9363
0	1331	11.507138486641	9363
0	1336	11.596546451023	9373
0	1341	11.612610497391	9374
0	1346	11.62052021927	9375
0	1351	11.673329927683	9380
0	1356	11.942886384514	9408
0	1360	12	9414
0	1363	12.099578102674	9424
0	1368	12.12155990145	9426
0	1373	12.150152466634	9429
0	1378	12.189760058425	9433
0	1381	12.197180815342	9434
0	1388	12.227241257813	9437
0	1391	12.234658869342	9438
0	1398	12.242075694941	9439
0	1401	12.249491734776	9440
0	1408	12.33980808013	9449
0	1414	12.5	9465
0	1427	13	9517
0	1428	13.004389446621	9517
0	1429	13.011744705631	9518
0	1432	13.015053581667	9518
0	1433	13.019099191868	9519
0	1436	13.022408067904	9519
0	1447	13.0477794398	9521
0	1452	13.057097939253	9522
0	1463	13.29429496553	9449
0	1468	13.30937354141	9439
0	1473	13.317952697767	9434
0	1479	13.376831821575	9395
0	1484	13.408638603128	9375
0	1489	13.5	9315
0	1510	14	8989
0	1603	14.5	8811
0	1633	15	8664
0	1655	15.5	8516
0	1676	16	8594
0	1701	16.5	8688
0	1726	17	8782
0	1753	17.5	8876
0	1784	18	8970
0	1800	18.5	9064
0	1831	19	9158
0	2059	19.5	9252
0	2169	20	9299
0	2235	20.5	9331
0	2295	21	9363
0	2298	21.0373849357	9366
0	2303	21.06277120004	9368
0	2308	21.071325129062	9368
0	2313	21.149022719918	9373
0	2318	21.165136980606	9374
0	2325	21.213182322986	9377
0	2330	21.293334808953	9382
0	2335	21.338101160269	9385
0	2340	21.346409161449	9386
0	2343	21.353867077494	9386
0	2350	21.365700655862	9387
0	2353	21.373157777413	9388
0	2360	21.381189696215	9388
0	2365	21.394394379478	9389
0	2370	21.427043351359	9391
0	2375	21.434497296626	9391
0	2378	21.441951241893	9392
0	2385	21.449404393511	9392
0	2389	21.456857545129	9393
0	2396	21.5	9395
0	2441	22	9380
0	2516	22.5	9365
0	2571	23	9350
0	2605	23.5	9334
0	2741	24	9319
0	2759	24.5	9304
0	2820	25	9288
0	2840	25.5	9273
0	2864	26	9258
0	2898	26.5	9242
0	2924	27	9227
0	2952	27.5	9212
0	2971	28	9197
0	2993	28.5	8172
0	3020	29	8113
0	3050	29.5	8190
0	3274	30	8266
0	3363	30.5	8343
0	3425	31	8419
0	3511	31.5	8496
0	3555	32	8572
0	3597	32.5	8641
0	3660	33	8701
0	3713	33.5	8761
0	3737	34	8820
0	3843	34.5	8880
0	3859	35	8940
0	3976	35.5	9000
0	3986	36	9059
0	4045	36.5	9119
0	4070	37	9179
0	4099	37.5	9238
0	4215	38	9298
0	4248	38.5	9358
0	4268	39	9418
0	4300	39.5	9477
0	4332	40	9537
0	4360	40.5	9597
0	4379	41	9657
0	4380	41.007328308208	9657
0	4381	41.014576936146	9658
0	4386	41.021824813553	9659
0	4389	41.029071940585	9660
0	4392	41.036318317397	9661
0	4395	41.043563944144	9662
0	4398	41.050808820981	9663
0	4401	41.058052948064	9663
0	4404	41.065297075147	9664
0	4408	41.07254045263	9665
0	4411	41.079783080669	9666
0	4414	41.087024959419	9667
0	4417	41.094266089035	9668
0	4420	41.101506469672	9669
0	4423	41.108746101485	9670
0	4426	41.115984984629	9670
0	4429	41.123223867773	9671
0	4432	41.130462002402	9672
0	4435	41.137699388672	9673
0	4438	41.144936026737	9674
0	4445	41.152171916751	9675
0	4448	41.15940705887	9676
0	4451	41.166641453248	9676
0	4454	41.173875847626	9677
0	4457	41.181109494417	9678
0	4460	41.188342393776	9679
0	4465	41.195574545858	9680
0	4468	41.202805950817	9681
0	4471	41.210036608807	9682
0	4474	41.217266519982	9682
0	4477	41.224496431157	9683
0	4482	41.231725595672	9684
0	4485	41.238954013681	9685
0	4488	41.246181685338	9686
0	4493	41.253408610797	9687
0	4498	41.260634790213	9688
0	4501	41.267860223739	9689
0	4504	41.275084911529	9689
0	4507	41.282309599319	9690
0	4510	41.289533541527	9691
0	4513	41.296756738308	9692
0	4518	41.303979189814	9693
0	4523	41.3112008962	9694
0	4526	41.318421857619	9695
0	4529	41.325642074225	9695
0	4532	41.332862290831	9696
0	4535	41.340081762778	9697
0	4538	41.347300490219	9698
0	4541	41.354518473308	9699
0	4544	41.361735712199	9700
0	4549	41.368952207044	9701
0	4554	41.376167957998	9701
0	4557	41.383383708952	9702
0	4560	41.390598716167	9703
0	4563	41.397812979797	9704
0	4566	41.405026499995	9705
0	4571	41.412239276914	9706
0	4574	41.419451310708	9707
0	4577	41.426662601529	9707
0	4580	41.43387389235	9708
0	4583	41.441084440352	9709
0	4586	41.448294245687	9710
0	4589	41.455503308509	9711
0	4594	41.46271162897	9712
0	4597	41.469919207224	9713
0	4600	41.477126043423	9714
0	4605	41.48433213772	9714
0	4608	41.491538232017	9715
0	4612	41.498743584565	9716
0	4615	41.5	9716
0	4616	41.5	9716
0	4647	42	9776
0	4648	42	9776
0	4678	42.5	9836
0	4679	42.507029524001	9837
0	4680	42.514145514649	9837
0	4683	42.521261505297	9838
0	4686	42.528376772628	9839
0	4689	42.535491316789	9840
0	4692	42.542605137927	9841
0	4695	42.549718236189	9842
0	4698	42.556830611722	9842
0	4701	42.563942987255	9843
0	4706	42.571054640206	9844
0	4709	42.578165570722	9845
0	4714	42.58527577895	9846
0	4717	42.592385265036	9847
0	4722	42.599494029127	9848
0	4725	42.606602071369	9848
0	4728	42.613710113611	9849
0	4732	42.620817434151	9850
0	4735	42.627924033136	9851
0	4738	42.635029910712	9852
0	4741	42.642135067025	9853
0	4745	42.649239502222	9853
0	4750	42.656343937419	9852
0	4753	42.663449093732	9850
0	4756	42.670555692717	9848
0	4761	42.677663734959	9847
0	4764	42.68477249905	9845
0	4767	42.691882707278	9843
0	4770	42.698994360229	9841
0	4773	42.706107458491	9840
0	4780	42.721091993485	9836
0	4785	42.740854880779	9831
0	4790	42.83686108294	9808
0	4795	42.856348105209	9803
0	4801	43	9768
0	4804	43.021086306234	9763
0	4809	43.181489653571	9724
0	4814	43.203773947126	9718
0	4819	43.244415558025	9708
0	4824	43.292827468754	9697
0	4829	43.315095704794	9691
0	4834	43.34477685498	9684
0	4839	43.352561777368	9682
0	4844	43.387781988823	9674
0	4850	43.435799495894	9662
0	4855	43.460637558715	9656
0	4859	43.5	9646
0	4897	44	9524
0	4939	44.5	9371
0	4978	45	9213
0	5012	45.5	9055
0	5128	46	8897
0	5177	46.5	8739
0	5196	47	8581
0	5215	47.5	8423
0	5243	48	8333
0	5396	48.5	8262
0	5414	49	8190
0	5446	49.5	8118
0	5474	50	8078
0	5497	50.5	8075
0	5523	51	8072
0	5718	51.5	8070
0	5772	52	8067
0	5794	52.5	8064
0	5820	53	8061
0	5931	53.5	8058
0	5956	54	8055
0	6025	54.5	8052
0	6077	55	8050
0	6095	55.5	8047
0	6126	56	8044
0	6160	56.5	8041
0	6302	57	8038
0	6324	57.5	8035
0	6352	58	8034
0	6385	58.5	8092
0	6410	59	8149
0	6440	59.5	8207
0	6646	60	8265
0	6679	60.5	8323
0	6699	61	8381
0	6727	61.5	8439
0	6828	62	8497
0	6903	62.5	8555
0	6957	63	8613
0	7035	63.5	8662
0	7059	64	8707
0	7096	64.5	8752
0	7215	65	8796
0	7256	65.5	8841
0	7274	66	8886
0	7304	66.5	8931
0	7329	67	8976
0	7359	67.5	9021
0	7383	68	9066
0	7589	68.5	9110
0	7621	69	9155
0	7643	69.5	9200
0	7678	70	9245
0	7847	70.5	9290
0	7897	71	9335
0	7970	71.5	9526
0	8014	72	9719
0	8038	72.5	9730
0	8058	73	9679
0	8191	73.5	9629
0	8264	74	9578
0	8282	74.5	9527
0	8300	75	9477
0	8321	75.5	9426
0	8347	76	9376
0	8376	76.5	9325
0	8552	77	9275
0	8576	77.5	9224
0	8606	78	9174
0	8641	78.5	9123
0	8777	79	9073
0	8826	79.5	9022
0	8873	80	8972
0	8943	80.5	8921
0	8951	81	8871
0	8974	81.5	8820
0	9057	82	8770
0	9122	82.5	8816
0	9144	83	8898
0	9166	83.5	8782
0	9191	84	8665
0	9225	84.5	8549
0	9258	85	8433
0	9445	85.5	8317
0	9468	86	8200
0	9492	86.5	8084
0	9520	87	8275
0	9670	87.5	8596
0	9694	88	8917
0	9750	88.5	9238
0	9799	89	9461
0	9821	89.5	9644
0	9843	90	9476
0	9939	90.5	9308
0	9953	91	9140
0	9981	91.5	9187
0	10009	92	9302
0	10038	92.5	9417
0	10055	93	9532
0	10082	93.5	9647
0	10083	93.508008237044	9649
0	10084	93.51526287483	9651
0	10087	93.52251600922	9652
0	10090	93.529768392146	9654
0	10093	93.53701927261	9656
0	10096	93.544268651235	9657
0	10099	93.551517279173	9659
0	10102	93.558764406205	9661
0	10105	93.566010032952	9662
0	10108	93.573254909789	9664
0	10113	93.580498287272	9666
0	10116	93.587740166022	9667
0	10119	93.594981295638	9669
0	10123	93.602220927451	9670
0	10126	93.609459810595	9669
0	10130	93.616699442408	9667
0	10137	93.623940572024	9666
0	10140	93.631182450774	9664
0	10143	93.638425828257	9663
0	10146	93.64566995534	9661
0	10149	93.652915582087	9660
0	10152	93.660161958899	9659
0	10155	93.667409085931	9657
0	10160	93.674657713869	9656
0	10163	93.681907092494	9654
0	10168	93.689157972958	9653
0	10171	93.696409604575	9651
0	10174	93.703662738965	9650
0	10179	93.710916624975	9648
0	10182	93.718172014693	9647
0	10185	93.725428156499	9645
0	10188	93.732685802948	9644
0	10191	93.739944201953	9642
0	10194	93.747204106537	9641
0	10197	93.754464764145	9639
0	10202	93.76172692827	9638
0	10205	93.768989845888	9636
0	10208	93.776254270961	9635
0	10214	93.783519449996	9633
0	10217	93.790786137425	9632
0	10222	93.798053579285	9630
0	10225	93.805322530479	9629
0	10230	93.812592236575	9628
0	10233	93.81986269773	9626
0	10236	93.827134669473	9625
0	10239	93.834407396746	9623
0	10242	93.841681635549	9622
0	10245	93.848956630353	9620
0	10248	93.85623313763	9619
0	10253	93.863510401379	9617
0	10258	93.870789178544	9616
0	10261	93.878068712654	9614
0	10264	93.885349761125	9613
0	10267	93.892631567013	9611
0	10272	93.899914888207	9610
0	10275	93.907198967291	9608
0	10278	93.914484562628	9607
0	10281	93.921770916328	9605
0	10285	93.929058787229	9604
0	10288	93.936347416967	9602
0	10295	93.944440664175	9601
0	10300	93.971742161911	9595
0	10305	94	9589
0	10323	94.5	9488
0	10324	94.5	9488
0	10356	95	9386
0	10357	95	9386
0	10388	95.5	9284
0	10532	96	9182
0	10585	96.5	9080
0	10634	97	8979
0	10703	97.5	8877
0	10717	98	8775
0	10751	98.5	8673
0	10850	99	8571
0	10892	99.5	8470
0	10923	100	8368
0	10958	100.5	8266
0	10978	101	8164
0	11010	101.5	8442
0	11044	102	8141
0	11266	102.5	8221
0	11282	103	8376
0	11299	103.5	8532
0	11332	104	8687
0	11443	104.5	8843
0	11491	105	8998
0	11527	105.5	9153
0	11601	106	9198
0	11639	106.5	9160
0	11670	107	9123
0	11814	107.5	9085
0	11868	108	9048
0	11891	108.5	9010
0	11922	109	8973
0	11951	109.5	8935
0	12133	110	8898
0	12149	110.5	8966
0	12241	111	9063
0	12263	111.5	9160
0	12279	112	9257
0	12295	112.5	9354
0	12381	113	9451
0	12436	113.5	9549
0	12457	114	9646
0	12480	114.5	9743
0	12510	115	9475
0	12511	115.004456113071	9472
0	12512	115.011846315774	9467
0	12515	115.019240421615	9462
0	12518	115.02663843472	9456
0	12521	115.034041141996	9451
0	12526	115.041447765634	9446
0	12529	115.04885830978	9441
0	12532	115.056272778586	9435
0	12535	115.063691962476	9430
0	12540	115.071115080185	9425
0	12545	115.078542135888	9420
0	12548	115.085973133765	9414
0	12551	115.093408867778	9409
0	12554	115.100848553186	9404
0	12557	115.10829219419	9399
0	12560	115.115739794999	9393
0	12565	115.123192153138	9388
0	12568	115.130648480364	9383
0	12571	115.138108780908	9378
0	12574	115.145573059006	9372
0	12577	115.153042115771	9367
0	12580	115.160515159435	9362
0	12583	115.167992194257	9356
0	12588	115.175474024099	9351
0	12591	115.182959854491	9346
0	12594	115.190449689715	9340
0	12597	115.197944336396	9335
0	12600	115.205442997349	9330
0	12603	115.212945676877	9325
0	12606	115.22045237929	9319
0	12609	115.227963914862	9314
0	12612	115.235479482824	9309
0	12617	115.242999087508	9303
0	12620	115.250523541985	9298
0	12625	115.258052042738	9293
0	12632	115.292927798336	9268
0	12638	115.327290977277	9244
0	12643	115.347645413277	9229
0	12649	115.37057643642	9213
0	12654	115.442429732441	9162
0	12658	115.5	9121
0	12728	116	9005
0	12785	116.5	9609
0	12813	117	9530
0	12841	117.5	8784
0	12860	118	9305
0	12985	118.5	9002
0	13042	119	8699
0	13062	119.5	8396
0	13090	120	8846
0	13104	120.5	9063
0	13135	121	9181
0	13290	121.5	9299
0	13360	122	9418
0	13367	122.5	9536
0	13425	123	9654
0	13449	123.5	9773
0	13517	124	9891
0	13520	124.007290147886	9893
0	13527	124.031130455437	9894
0	13532	124.054597850009	9890
0	13537	124.122552441318	9879
0	13542	124.13455156773	9877
0	13547	124.233817982957	9861
0	13552	124.326142700675	9846
0	13557	124.361923684521	9840
0	13563	124.415309996165	9832
0	13568	124.448974972953	9826
0	13573	124.5	9789
0	13576	124.542044348239	9705
0	13581	124.567980611571	9653
0	13587	124.581563394328	9626
0	13592	124.610572153289	9568
0	13595	124.617888206801	9553
0	13602	124.640970971377	9507
0	13607	124.682335031199	9424
0	13610	124.689762875002	9409
0	13617	124.698383031281	9392
0	13623	124.834689005588	9119
0	13628	124.918456075321	8952
0	13633	124.955193490902	8878
0	13639	124.980759491341	8827
0	13644	125	8789
0	13665	125.5	8062
0	13693	126	8066
0	13721	126.5	8069
0	13753	127	8072
0	13781	127.5	8075
0	13803	128	8078
0	13826	128.5	8081
0	13851	129	8084
0	13870	129.5	8088
0	14113	130	8091
0	14253	130.5	8094
0	14301	131	8097
0	14374	131.5	8100
0	14426	132	8103
0	14478	132.5	8106
0	14532	133	8110
0	14575	133.5	8113
0	14597	134	8116
0	14690	134.5	8119
0	14747	135	8122
0	14828	135.5	8125
0	14864	136	8128
0	14896	136.5	8132
0	14920	137	8135
0	15081	137.5	8138
0	15110	138	8141
0	15134	138.5	8143
0	15156	139	8141
0	15294	139.5	8138
0	15341	140	8136
0	15379	140.5	8133
0	15427	141	8131
0	15448	141.5	8128
0	15484	142	8126
0	15631	142.5	8124
0	15702	143	9326
0	15730	143.5	9450
0	15837	144	9613
0	15852	144.5	9499
0	15853	144.5	9499
0	15883	145	9113
0	15884	145	9113
0	15906	145.5	9020
0	16047	146	9055
0	16078	146.5	9090
0	16114	147	9126
0	16149	147.5	9172
0	16196	148	9230
0	16222	148.5	9288
0	16452	149	9322
0	16530	149.5	9342
0	16558	150	9363
0	16578	150.5	9383
0	16656	151	9403
0	16721	151.5	9424
0	16802	152	9405
0	16868	152.5	9108
0	16893	153	9111
0	16971	153.5	9719
0	16974	153.544021634608	9707
0	16979	153.580886795385	9698
0	16984	153.615911412936	9688
0	16989	153.696251348556	9667
0	16994	153.714447067112	9663
0	16999	153.740868075662	9656
0	17004	153.815639143773	9636
0	17011	153.873886926057	9621
0	17014	153.881162677018	9619
0	17021	153.888564136314	9617
0	17026	153.901153121156	9614
0	17031	153.925857185016	9607
0	17036	153.9356965498	9605
0	17040	154	9588
0	17099	154.5	9457
0	17135	155	9325
0	17246	155.5	9194
0	17306	156	9063
0	17330	156.5	8932
0	17344	157	8801
0	17368	157.5	8670
0	17401	158	8685
0	17437	158.5	9064
0	17480	159	9443
0	17497	159.5	9822
0	17526	160	9888
0	17527	160	9888
0	17551	160.5	9844
0	17552	160.507126858074	9843
0	17553	160.514238511025	9842
0	17556	160.521350886558	9842
0	17559	160.528463262091	9841
0	17562	160.535576360353	9840
0	17565	160.542690181491	9840
0	17568	160.549804002629	9839
0	17571	160.55691854679	9838
0	17574	160.564033814121	9838
0	17577	160.571149081452	9837
0	17580	160.5782650721	9837
0	17583	160.585381062748	9836
0	17589	160.592497776859	9835
0	17592	160.599615214581	9835
0	17595	160.606732652303	9834
0	17598	160.613850813784	9833
0	17603	160.62096969917	9833
0	17606	160.628088584556	9832
0	17611	160.635208193995	9831
0	17614	160.642328527633	9831
0	17619	160.649448861271	9830
0	17622	160.656569919257	9830
0	17625	160.663690977243	9829
0	17628	160.670812759723	9828
0	17631	160.677935266846	9828
0	17634	160.685057773969	9827
0	17637	160.692181005881	9826
0	17640	160.69930496273	9826
0	17645	160.706428919579	9825
0	17650	160.713553601513	9824
0	17653	160.720679008679	9824
0	17656	160.727804415845	9823
0	17659	160.734930548391	9822
0	17662	160.742057406465	9822
0	17667	160.749184264539	9821
0	17670	160.756311848288	9821
0	17673	160.763439432037	9820
0	17676	160.770567741609	9819
0	17681	160.777696777152	9819
0	17684	160.784825812695	9818
0	17687	160.791955574357	9817
0	17692	160.799086062286	9817
0	17695	160.806216550215	9816
0	17700	160.813347764559	9815
0	17705	160.820479705466	9815
0	17708	160.827611646373	9814
0	17711	160.834744313991	9814
0	17714	160.841876981609	9813
0	17717	160.849010376086	9812
0	17720	160.85614449757	9812
0	17724	160.863278619054	9811
0	17729	160.870413467693	9810
0	17732	160.877549043636	9810
0	17735	160.884684619579	9809
0	17738	160.891820922974	9808
0	17741	160.898957953969	9808
0	17744	160.906094984964	9807
0	17747	160.913232743708	9807
0	17750	160.920370502452	9806
0	17753	160.927508989093	9805
0	17756	160.934648203779	9805
0	17759	160.941787418465	9804
0	17763	160.948927361345	9803
0	17766	160.956068032568	9803
0	17769	160.963208703791	9802
0	17772	160.970350103505	9801
0	17775	160.977492231859	9801
0	17780	160.984634360213	9800
0	17783	160.991777217356	9799
0	17790	160.998920803436	9799
0	17793	161	9799
0	17797	161.007126858074	9798
0	17798	161.01427117324	9797
0	17801	161.021416217641	9797
0	17804	161.028561262042	9796
0	17807	161.035707035827	9796
0	17810	161.042852809612	9795
0	17813	161.04999931293	9794
0	17816	161.05714654593	9794
0	17819	161.06429377893	9793
0	17822	161.071441741761	9792
0	17825	161.078590434571	9792
0	17828	161.085739127381	9791
0	17831	161.09288855032	9790
0	17834	161.100038703538	9790
0	17838	161.107188856756	9789
0	17841	161.114339740401	9788
0	17844	161.121491354622	9788
0	17847	161.128642968843	9787
0	17850	161.13579531379	9787
0	17853	161.142947658737	9786
0	17856	161.15010073456	9785
0	17859	161.157254541407	9785
0	17862	161.164408348254	9784
0	17865	161.171562886275	9783
0	17868	161.17871815562	9783
0	17873	161.185873424965	9782
0	17876	161.193029425783	9781
0	17879	161.200186158223	9781
0	17882	161.207342890663	9780
0	17889	161.270613855426	9774
0	17895	161.420565262418	9761
0	17900	161.443647448707	9759
0	17905	161.462148942255	9757
0	17909	161.5	9754
0	17992	162	9709
0	17995	162.010466926986	9708
0	18002	162.142346606824	9696
0	18007	162.151748934884	9695
0	18013	162.226613425955	9689
0	18016	162.233838113745	9688
0	18023	162.298468525213	9682
0	18028	162.31258152734	9681
0	18035	162.363799343674	9676
0	18041	162.475325982565	9666
0	18046	162.497106867299	9664
0	18047	162.5	9664
0	18053	162.513465030347	9663
0	18059	162.65586426742	9650
0	18064	162.696181208094	9647
0	18069	162.850595314061	9633
0	18074	162.858024139044	9632
0	18082	162.959645054781	9623
0	18086	163	9619
0	18089	163.168121266882	9604
0	18092	163.17540989662	9604
0	18101	163.282930237068	9591
0	18106	163.326433827222	9586
0	18112	163.33564357704	9585
0	18117	163.354445300298	9583
0	18122	163.366714577266	9581
0	18127	163.440338127458	9572
0	18131	163.5	9565
0	18210	164	9505
0	18213	164.007079288026	9505
0	18218	164.014516750406	9504
0	18223	164.052669573151	9499
0	18228	164.149202141195	9488
0	18233	164.290507995774	9471
0	18238	164.340218037563	9465
0	18241	164.347613705814	9464
0	18249	164.442974411003	9453
0	18255	164.49004145556	9447
0	18260	164.5	9446
0	18280	165	9386
0	18281	165.006064389516	9385
0	18282	165.013523100225	9384
0	18285	165.01427117324	9384
0	18286	165.020982605766	9383
0	18289	165.021416217641	9383
0	18290	165.021730678781	9383
0	18293	165.02844290631	9383
0	18296	165.028561262042	9383
0	18297	165.028876518185	9383
0	18316	165.052043911207	9380
0	18321	165.059506597774	9379
0	18330	165.074595565021	9377
0	18348	165.16755065342	9366
0	18359	165.209810860521	9361
0	18365	165.241873568858	9357
0	18371	165.284189379304	9352
0	18376	165.291933061825	9351
0	18379	165.299418892217	9350
0	18387	165.415158015019	9336
0	18393	165.432521078342	9334
0	18398	165.444788976786	9333
0	18405	165.5	9326
0	18434	166	9266
0	18455	166.5	9207
0	18587	167	9147
0	18614	167.5	8186
0	18645	168	8115
0	18667	168.5	9224
0	18704	169	9335
0	18741	169.5	9374
0	18767	170	9413
0	18992	170.5	9451
0	19025	171	9490
0	19060	171.5	9529
0	19195	172	9568
0	19231	172.5	9606
0	19293	173	9645
0	19296	173.050977767784	9649
0	19301	173.062770311218	9650
0	19306	173.134968907837	9656
0	19311	173.234954271408	9663
0	19316	173.275228072996	9667
0	19321	173.296310772746	9668
0	19324	173.303551153383	9669
0	19331	173.311974707017	9669
0	19336	173.339180610074	9671
0	19339	173.346418744703	9672
0	19346	173.365967163359	9674
0	19349	173.373203053373	9674
0	19356	173.435679028745	9679
0	19360	173.5	9684
0	19363	173.507162590811	9685
0	19370	173.661865976868	9634
0	19375	173.69957495179	9619
0	19381	173.733816466965	9605
0	19386	173.82196221802	9569
0	19391	173.851477942029	9557
0	19396	173.876871391364	9546
0	19402	173.921182015438	9528
0	19407	174	9496
0	19431	174.5	9293
0	19533	175	9089
0	19578	175.5	8886
0	19604	176	8682
0	19640	176.5	8479
0	19680	177	8275
0	19707	177.5	8281
0	19739	178	8430
0	19772	178.5	8579
0	19804	179	8727
0	19834	179.5	8876
0	19855	180	9025
0	20082	180.5	9174
0	20229	181	9323
0	20267	181.5	9392
0	20306	182	9337
0	20386	182.5	9281
0	20443	183	9226
0	20499	183.5	9170
0	20579	184	9115
0	20593	184.5	9060
0	20700	185	9004
0	20735	185.5	8949
0	20841	186	8894
0	20860	186.5	8838
0	20894	187	8783
0	20913	187.5	8728
0	20935	188	8672
0	20959	188.5	8617
0	20988	189	9341
0	21163	189.5	8934
0	21179	190	9195
0	21206	190.5	9456
0	21326	191	9717
0	21398	191.5	8893
0	21462	192	8597
0	21506	192.5	9537
0	21581	193	9255
0	21600	193.5	8980
0	21618	194	8739
0	21733	194.5	8498
0	21749	195	8257
0	21783	195.5	8049
0	21810	196	8172
0	21842	196.5	8296
0	21869	197	8420
0	21902	197.5	8544
0	22120	198	9070
0	22144	198.5	9704
0	22183	199	9978
0	22184	199.007064284993	9977
0	22185	199.014080422108	9977
0	22188	199.021096559223	9976
0	22193	199.02811339964	9976
0	22196	199.035130240057	9975
0	22199	199.042147783917	9975
0	22202	199.049165327777	9974
0	22205	199.05618357522	9974
0	22208	199.063201822663	9973
0	22211	199.070220773831	9973
0	22214	199.077239724999	9972
0	22219	199.084259380033	9972
0	22222	199.091279035067	9972
0	22225	199.098298690101	9971
0	22228	199.105319049142	9971
0	22231	199.112339408183	9970
0	22234	199.119360471373	9970
0	22237	199.126381534563	9969
0	22240	199.133403302042	9969
0	22243	199.140425069521	9968
0	22246	199.147447541431	9968
0	22249	199.154470013341	9967
0	22252	199.161493189823	9967
0	22257	199.168516366305	9966
0	22260	199.175540247501	9966
0	22263	199.182564128697	9965
0	22266	199.189588714748	9965
0	22269	199.196613300799	9964
0	22276	199.226781611506	9962
0	22281	199.241352934549	9961
0	22287	199.264621961609	9960
0	22292	199.317646285869	9956
0	22297	199.329297380512	9955
0	22302	199.424563222715	9948
0	22307	199.459843906081	9946
0	22313	199.471366741144	9945
0	22318	199.478405454065	9945
0	22321	199.485444166986	9944
0	22327	199.5	9943
0	22331	199.582646047207	9937
0	22336	199.640457221033	9933
0	22339	199.647504437383	9933
0	22346	199.655795463366	9932
0	22351	199.707052660026	9929
0	22356	199.714407168713	9928
0	22361	199.728916921918	9927
0	22366	199.745520085325	9926
0	22369	199.752572271503	9926
0	22377	199.800539131875	9922
0	22382	199.814428720251	9921
0	22387	199.849465327857	9919
0	22392	199.984074507243	9910
0	22396	200	9909
0	22468	200.5	9874
0	22471	200.560411445067	9870
0	22474	200.567503643649	9869
0	22481	200.596208693645	9867
0	22486	200.608088842666	9866
0	22491	200.666345446021	9862
0	22496	200.792248593437	9854
0	22501	200.900721041443	9846
0	22507	200.979489420775	9841
0	22511	201	9839
0	22515	201.043509341466	9836
0	22520	201.050837331388	9836
0	22525	201.250134934235	9822
0	22530	201.265839724437	9821
0	22535	201.287117240168	9819
0	22540	201.303214134551	9818
0	22545	201.340540449379	9816
0	22550	201.376330832695	9813
0	22555	201.418915934989	9810
0	22560	201.5	9805
0	22587	202	9770
0	22588	202	9770
0	22606	202.5	9735
0	22691	203	9701
0	22718	203.5	9666
0	22745	204	9631
0	22769	204.5	9599
0	22797	205	9670
0	22827	205.5	9353
0	22843	206	8974
0	23062	206.5	8596
0	23082	207	8465
0	23114	207.5	8379
0	23253	208	8293
0	23299	208.5	8207
0	23349	209	8120
0	23404	209.5	8068
0	23467	210	8432
0	23499	210.5	8797
0	23521	211	9161
0	23648	211.5	9525
0	23681	212	9755
0	23716	212.5	8637
0	23743	213	9265
0	23769	213.5	8997
0	23785	214	9022
0	23807	214.5	9046
0	24036	215	9071
0	24069	215.5	9096
0	24093	216	9120
0	24211	216.5	9145
0	24288	217	9170
0	24378	217.5	9194
0	24434	218	9219
0	24511	218.5	9244
0	24531	219	9269
0	24560	219.5	9293
0	24685	220	9318
0	24716	220.5	9343
0	24734	221	9367
0	24857	221.5	9510
0	24880	222	9683
0	24881	222.006986174169	9686
0	24884	222.014213099628	9688
0	24887	222.021438533154	9691
0	24890	222.028661729935	9693
0	24893	222.035883436321	9696
0	24896	222.043102908268	9698
0	24899	222.050320891357	9701
0	24902	222.057536642311	9703
0	24905	222.064750905941	9706
0	24908	222.071962939735	9708
0	24919	222.136250098616	9731
0	24924	222.207559720331	9755
0	24933	222.334639495075	9799
0	24938	222.342891484632	9802
0	24947	222.468221079556	9846
0	24954	222.5	9857
0	24974	223	9899
0	24975	223.007059298104	9897
0	24976	223.014132148463	9895
0	24979	223.021206428402	9893
0	24982	223.0282821385	9891
0	24985	223.035359279335	9890
0	24988	223.042437135756	9888
0	24991	223.049516423782	9886
0	24994	223.056597143992	9884
0	25002	223.169855924341	9854
0	25007	223.181135905997	9851
0	25012	223.320350057688	9815
0	25017	223.334787713599	9811
0	25022	223.360421405371	9804
0	25027	223.376289081393	9800
0	25032	223.40905831192	9791
0	25037	223.483180806569	9772
0	25042	223.495428648746	9769
0	25044	223.5	9768
0	25066	224	9636
0	25067	224	9636
0	25097	224.5	9505
0	25098	224.507261410788	9503
0	25099	224.514627505705	9501
0	25102	224.521995151216	9499
0	25105	224.529364347974	9497
0	25108	224.536735096631	9495
0	25111	224.544107397842	9493
0	25114	224.551481252261	9491
0	25117	224.558856660543	9489
0	25120	224.566233623342	9487
0	25123	224.573612141314	9485
0	25126	224.580992215115	9484
0	25129	224.588373067076	9482
0	25132	224.595755475851	9480
0	25135	224.603139442096	9478
0	25138	224.610524966468	9476
0	25141	224.617912049625	9474
0	25144	224.625300692226	9472
0	25149	224.632690894929	9470
0	25153	224.640082658393	9468
0	25156	224.647475983277	9466
0	25161	224.654870870241	9464
0	25164	224.662267319945	9462
0	25171	224.692064323579	9454
0	25176	224.789540941957	9429
0	25181	224.844010014643	9414
0	25184	224.851445748656	9412
0	25191	224.90528649832	9398
0	25196	225	9373
0	25231	225.5	9242
0	25232	225.5	9242
0	25258	226	9111
0	25281	226.5	8979
0	25306	227	8848
0	25320	227.5	8709
0	25489	228	8454
0	25533	228.5	8200
0	25558	229	8531
0	25587	229.5	9263
0	25729	230	9496
0	25775	230.5	9595
0	25850	231	9522
0	25937	231.5	9448
0	25957	232	9375
0	25974	232.5	9301
0	26001	233	9622
0	26127	233.5	9946
0	26147	234	9937
0	26148	234	9937
0	26161	234.5	9927
0	26162	234.5	9927
0	26191	235	9917
0	26192	235	9917
0	26219	235.5	9907
0	26220	235.5	9907
0	26239	236	9897
0	26240	236.007080004046	9897
0	26241	236.014152854405	9897
0	26244	236.021225704764	9897
0	26247	236.028298555123	9897
0	26250	236.035371405482	9897
0	26253	236.042444255841	9897
0	26256	236.0495171062	9896
0	26259	236.056590671277	9896
0	26262	236.063664236354	9896
0	26265	236.070737801431	9896
0	26268	236.077811366508	9896
0	26273	236.084884931585	9896
0	26276	236.091958496662	9896
0	26279	236.099032061739	9895
0	26282	236.106106341678	9895
0	26285	236.113180621617	9895
0	26288	236.120254901556	9895
0	26291	236.127329181495	9895
0	26294	236.134403461434	9895
0	26299	236.141477741373	9895
0	26302	236.148552021312	9894
0	26305	236.155627016258	9894
0	26308	236.162702011204	9894
0	26311	236.16977700615	9894
0	26314	236.176852001096	9894
0	26317	236.183926996042	9894
0	26320	236.191001990988	9894
0	26323	236.198076985934	9893
0	26326	236.205152696032	9893
0	26329	236.21222840613	9893
0	26332	236.219304116228	9893
0	26335	236.226379826326	9893
0	26338	236.233455536424	9893
0	26341	236.240531246522	9893
0	26347	236.24760695662	9892
0	26352	236.254683382014	9891
0	26357	236.261760522849	9889
0	26360	236.268839095	9887
0	26363	236.275919099046	9885
0	26366	236.283000535566	9883
0	26369	236.29008340514	9881
0	26372	236.297167708348	9879
0	26377	236.304253445771	9877
0	26384	236.365702263913	9860
0	26387	236.372801655394	9858
0	26394	236.452082321131	9837
0	26398	236.5	9823
0	26403	236.556001726335	9808
0	26408	236.713701032707	9765
0	26414	236.815439898506	9737
0	26419	236.849578596291	9728
0	26424	236.917049902739	9710
0	26431	236.9654455288	9696
0	26436	237	9687
0	26465	237.5	9550
0	26466	237.5	9550
0	26504	238	9374
0	26612	238.5	9176
0	26657	239	8979
0	26705	239.5	8781
0	26753	240	8583
0	26779	240.5	9428
0	26820	241	8503
0	26845	241.5	8136
0	27000	242	8237
0	27029	242.5	8665
0	27059	243	9492
0	27090	243.5	9457
0	27113	244	9090
0	27152	244.5	8786
0	27346	245	8682
0	27426	245.5	8785
0	27448	246	8573
0	27478	246.5	8090
0	27581	247	8047
0	27661	247.5	8265
0	27706	248	8483
0	27773	248.5	8701
0	27793	249	8920
0	27809	249.5	9138
0	27832	250	9356
0	27939	250.5	9575
0	27975	251	9537
0	28001	251.5	9424
0	28002	251.5	9424
0	28024	252	9310
0	28025	252	9310
0	28047	252.5	9197
0	28074	253	9083
0	28289	253.5	8970
0	28355	254	8856
0	28381	254.5	8743
0	28409	255	8868
0	28531	255.5	9009
0	28581	256	9151
0	28624	256.5	9292
0	28663	257	9433
0	28687	257.5	9575
0	28706	258	9716
0	28737	258.5	8041
0	28861	259	8088
0	28888	259.5	8178
0	28914	260	8319
0	28936	260.5	9125
0	28969	261	8809
0	29003	261.5	8894
0	29216	262	8991
0	29268	262.5	9100
0	29293	263	9208
0	29320	263.5	9316
0	29433	264	9189
0	29461	264.5	9066
0	29496	265	9018
0	29536	265.5	8970
0	29567	266	8922
0	29595	266.5	8874
0	29613	267	8826
0	29741	267.5	8778
0	29765	268	8730
0	29784	268.5	8682
0	29817	269	8634
0	29853	269.5	8642
0	29881	270	9590
0	30091	270.5	9661
0	30161	271	9613
0	30182	271.5	9551
0	30183	271.502154321234	9551
0	30184	271.509483396723	9550
0	30187	271.516813239655	9549
0	30190	271.52414385019	9548
0	30193	271.531475228489	9547
0	30198	271.538807374713	9546
0	30201	271.546140289023	9545
0	30204	271.553473971579	9544
0	30211	271.604197331512	9538
0	30216	271.643401895876	9533
0	30219	271.650744809964	9532
0	30226	271.755091372285	9519
0	30233	271.85809978637	9506
0	30238	271.888774392595	9503
0	30243	271.973957758237	9492
0	30247	272	9489
0	30250	272.010222217264	9487
0	30255	272.105382178079	9476
0	30260	272.125069998633	9473
0	30266	272.173397218354	9467
0	30272	272.233219619159	9460
0	30277	272.332126033541	9447
0	30282	272.395773058477	9439
0	30287	272.476331298778	9429
0	30291	272.5	9426
0	30342	273	9364
0	30345	273.054044312209	9357
0	30350	273.064971030973	9356
0	30355	273.091856283575	9353
0	30361	273.108171653312	9351
0	30366	273.149366255766	9346
0	30371	273.171393965957	9343
0	30374	273.178886206137	9342
0	30381	273.359155362295	9319
0	30384	273.366666897867	9319
0	30391	273.375560581327	9317
0	30396	273.407684539787	9313
0	30402	273.464945225373	9306
0	30407	273.5	9302
0	30410	273.514756481299	9300
0	30415	273.522287611356	9299
0	30420	273.605018171189	9289
0	30425	273.621191742672	9287
0	30430	273.705090556895	9276
0	30436	273.823525094014	9262
0	30441	273.862013978479	9257
0	30446	273.993731376138	9240
0	30448	274	9240
0	30471	274.5	9167
0	30496	275	8996
0	30582	275.5	8825
0	30609	276	8654
0	30631	276.5	8483
0	30659	277	8312
0	30692	277.5	8327
0	30721	278	8910
0	30908	278.5	9070
0	30959	279	8804
0	30978	279.5	8538
0	30993	280	8272
0	31077	280.5	8209
0	31129	281	8264
0	31168	281.5	8318
0	31207	282	8373
0	31231	282.5	8427
0	31260	283	8482
0	31285	283.5	8536
0	31402	284	8592
0	31422	284.5	9513
0	31455	285	8648
0	31491	285.5	8830
0	31524	286	9012
0	31556	286.5	9194
0	31784	287	9376
0	31836	287.5	9558
0	31857	288	9722
0	31858	288	9722
0	31885	288.5	9499
0	31888	288.507300031286	9496
0	31889	288.514671556139	9492
0	31892	288.522046187407	9489
0	31895	288.529423150206	9486
0	31898	288.53680244601	9482
0	31901	288.544184854785	9479
0	31904	288.551569600011	9476
0	31907	288.558956683168	9473
0	31910	288.566346105737	9469
0	31914	288.573738649828	9466
0	31917	288.581133536792	9463
0	31920	288.588530768114	9459
0	31923	288.59593112756	9456
0	31928	288.603333834836	9453
0	31931	288.610738891432	9449
0	31934	288.618147082775	9446
0	31937	288.625557626921	9443
0	31940	288.632970525364	9440
0	31943	288.640385779601	9436
0	31946	288.647804177227	9433
0	31949	288.655224934144	9430
0	31957	288.677583776903	9424
0	31962	288.780698657411	9416
0	31967	288.972058418297	9400
0	31970	288.979505226808	9399
0	31975	288.986952827617	9399
0	31981	289	9397
0	31984	289.031626950902	9395
0	31990	289.125171386808	9387
0	31995	289.216089934559	9379
0	32000	289.287135803305	9373
0	32005	289.304562562687	9372
0	32010	289.339955911247	9369
0	32015	289.390631713577	9365
0	32020	289.437831946207	9361
0	32025	289.458115112146	9359
0	32029	289.5	9356
0	32088	290	9314
0	32153	290.5	9272
0	32164	291	9230
0	32268	291.5	9189
0	32294	292	9147
0	32396	292.5	9105
0	32421	293	8726
0	32455	293.5	8715
0	32489	294	8703
0	32512	294.5	8692
0	32537	295	8681
0	32557	295.5	8670
0	32586	296	8689
0	32615	296.5	8738
0	32635	297	8787
0	32850	297.5	8836
0	32937	298	8886
0	32983	298.5	8935
0	33052	299	8984
0	33086	299.5	9033
0	33161	300	9082
0	33204	300.5	9131
0	33251	301	9180
0	33273	301.5	9229
0	33364	302	9278
0	33388	302.5	9327
0	33413	303	9376
0	33437	303.5	9426
0	33479	304	9475
0	33495	304.5	9524
0	33702	305	9511
0	33720	305.5	9419
0	33749	306	9408
0	33785	306.5	9403
0	33913	307	9131
0	33981	307.5	8860
0	34033	308	8438
0	34084	308.5	8591
0	34103	309	8743
0	34126	309.5	8684
0	34225	310	8595
0	34298	310.5	8544
0	34317	311	8494
0	34352	311.5	8443
0	34378	312	8823
0	34556	312.5	9906
0	34576	313	9660
0	34651	313.5	9418
0	34676	314	9212
0	34702	314.5	9006
0	34723	315	8800
0	34823	315.5	8614
0	34853	316	8494
0	34875	316.5	8374
0	34893	317	8254
0	34920	317.5	8134
0	35044	318	8538
0	35087	318.5	9422
0	35133	319	8944
0	35164	319.5	8691
0	35189	320	8953
0	35228	320.5	9215
0	35360	321	9476
0	35382	321.5	9738
0	35403	322	9335
0	35404	322	9335
0	35426	322.5	8829
0	35461	323	8323
0	35482	323.5	8242
0	35636	324	8250
0	35681	324.5	8257
0	35715	325	8265
0	35823	325.5	8273
0	35844	326	8943
0	35917	326.5	8694
0	35984	327	8480
0	36031	327.5	8445
0	36050	328	8411
0	36067	328.5	8377
0	36101	329	8343
0	36118	329.5	8309
0	36150	330	8275
0	36174	330.5	8241
0	36197	331	8207
0	36233	331.5	8173
0	36256	332	8139
0	36490	332.5	8288
0	36598	333	8550
0	36650	333.5	8812
0	36720	334	8873
0	36770	334.5	8849
0	36810	335	8825
0	36859	335.5	8801
0	36893	336	8777
0	36924	336.5	8753
0	37021	337	8730
0	37069	337.5	8706
0	37101	338	8682
0	37131	338.5	8658
0	37262	339	8634
0	37285	339.5	8610
0	37313	340	8586
0	37345	340.5	8563
0	37379	341	8539
0	37413	341.5	8643
0	37446	342	8815
0	37681	342.5	8988
0	37705	343	9160
0	37722	343.5	9332
0	37904	344	9415
0	37955	344.5	9185
0	37979	345	8955
0	38010	345.5	8726
0	38063	346	8496
0	38112	346.5	8267
0	38260	347	9306
0	38295	347.5	9253
0	38306	348	9200
0	38385	348.5	9147
0	38410	349	9093
0	38437	349.5	9040
0	38465	350	8987
0	38498	350.5	8934
0	38523	351	8881
0	38550	351.5	8867
0	38581	352	8875
0	38615	352.5	9030
0	38636	353	9031
0	38870	353.5	8997
0	39036	354	8964
0	39084	354.5	8930
0	39124	355	8897
0	39188	355.5	8863
0	39248	356	8830
0	39311	356.5	8797
0	39362	357	8763
0	39381	357.5	8730
0	39519	358	8696
0	39590	358.5	8663
0	39608	359	8629
0	39634	359.5	8596
0	39649	360	8562
0	39675	360.5	8529
0	39699	361	8495
0	39742	361.5	8462
0	39768	362	8429
0	39792	362.5	8395
0	39827	363	8614
0	40053	363.5	8874
0	40188	364	9134
0	40237	364.5	9265
0	40286	365	9320
0	40351	365.5	9376
0	40389	366	9359
0	40432	366.5	9142
0	40473	367	8926
0	40495	367.5	8710
0	40569	368	8493
0	40595	368.5	8319
0	40626	369	8370
0	40655	369.5	8421
0	40692	370	8472
0	40727	370.5	8523
0	40754	371	8500
0	40985	371.5	8607
0	41010	372	9606
0	41040	372.5	9533
0	41041	372.507232899359	9532
0	41042	372.51457658379	9531
0	41045	372.521921038727	9530
0	41048	372.52926626433	9528
0	41051	372.536613031752	9527
0	41054	372.543960570327	9526
0	41057	372.551308880216	9525
0	41060	372.558657961581	9524
0	41063	372.566007814584	9523
0	41066	372.573358439387	9522
0	41069	372.580709836152	9521
0	41072	372.588062005042	9520
0	41075	372.595414946218	9519
0	41080	372.602768659843	9518
0	41083	372.61012314608	9517
0	41086	372.61747840509	9515
0	41089	372.624835210135	9514
0	41092	372.632192788441	9513
0	41095	372.63955114017	9512
0	41098	372.646910265485	9511
0	41103	372.654270164549	9510
0	41106	372.661630837525	9509
0	41109	372.668992284575	9508
0	41112	372.676354505862	9507
0	41115	372.683717501549	9506
0	41122	372.723342208786	9500
0	41127	372.73947893743	9498
0	41133	372.904834695875	9473
0	41138	372.919798085952	9471
0	41141	372.927189068953	9470
0	41148	372.942512606433	9468
0	41153	372.959757350952	9465
0	41157	373	9459
0	41160	373.008272959885	9458
0	41166	373.156653087028	9436
0	41171	373.261725198971	9421
0	41176	373.274628915682	9419
0	41181	373.282671519702	9418
0	41186	373.402845394722	9400
0	41191	373.456868161337	9392
0	41195	373.5	9386
0	41235	374	9312
0	41283	374.5	9272
0	41331	375	9282
0	41351	375.5	9171
0	41441	376	9060
0	41520	376.5	8949
0	41545	377	8838
0	41578	377.5	8709
0	41600	378	8572
0	41627	378.5	8435
0	41660	379	8299
0	41687	379.5	8162
0	41715	380	9525
0	41745	380.5	9505
0	41764	381	9486
0	41986	381.5	9230
0	42101	382	8970
0	42173	382.5	8710
0	42239	383	9681
0	42283	383.5	9474
0	42326	384	9267
0	42353	384.5	9059
0	42410	385	8852
0	42434	385.5	8644
0	42549	386	8437
0	42565	386.5	8288
0	42644	387	8314
0	42662	387.5	8339
0	42694	388	8418
0	42730	388.5	8707
0	42767	389	8771
0	42976	389.5	8835
0	43004	390	8899
0	43023	390.5	8963
0	43049	391	9027
0	43196	391.5	9091
0	43264	392	9154
0	43310	392.5	9123
0	43355	393	9075
0	43378	393.5	9027
0	43405	394	8980
0	43516	394.5	8922
0	43586	395	8864
0	43604	395.5	8805
0	43674	396	8782
0	43688	396.5	8783
0	43716	397	8651
0	43815	397.5	8518
0	43877	398	8177
0	43908	398.5	8087
0	43930	399	8233
0	44045	399.5	8380
0	44063	400	8526
1	1172	10	8541
1	1239	10.5	8613
1	1268	11	8685
1	1328	11.5	8757
1	1360	12	8829
1	1414	12.5	8901
1	1427	13	8974
1	1489	13.5	9046
1	1510	14	9118
1	1603	14.5	9190
1	1632	15	9262
1	1633	15	9262
1	1654	15.5	9369
1	1655	15.5	9369
1	1676	16	9484
1	1701	16.5	9598
1	1725	17	9712
1	1726	17	9712
1	1752	17.5	9827
1	1753	17.5	9827
1	1783	18	9427
1	1784	18	9427
1	1799	18.5	8838
1	1800	18.5	8838
1	1831	19	8430
1	2059	19.5	8909
1	2169	20	9580
1	2172	20.074892443984	9680
1	2177	20.104404844628	9720
1	2182	20.122678182596	9744
1	2186	20.129862090642	9750
1	2193	20.142910890629	9741
1	2196	20.150097011151	9736
1	2203	20.158859552095	9730
1	2208	20.197554931107	9702
1	2213	20.224814268933	9683
1	2216	20.232043433448	9678
1	2221	20.239276332807	9673
1	2226	20.246512970872	9667
1	2234	20.493168772283	9492
1	2235	20.5	9487
1	2241	20.52183549031	9472
1	2246	20.550252426924	9452
1	2251	20.584688559334	9427
1	2257	20.632636114309	9393
1	2264	20.676406980336	9362
1	2270	20.86975290178	9225
1	2275	20.9181996068	9190
1	2280	20.935560915441	9178
1	2285	20.958886322978	9161
1	2291	20.989171697656	9140
1	2295	21	9132
1	2396	21.5	9014
1	2441	22	9359
1	2516	22.5	9327
1	2571	23	9305
1	2605	23.5	9284
1	2741	24	9263
1	2759	24.5	9241
1	2820	25	9220
1	2840	25.5	9199
1	2864	26	9244
1	2898	26.5	9310
1	2924	27	9376
1	2952	27.5	9442
1	2971	28	9508
1	2992	28.5	9574
1	2993	28.5	9574
1	3019	29	9640
1	3020	29	9640
1	3050	29.5	9706
1	3051	29.507203128216	9707
1	3052	29.514414419037	9708
1	3056	29.521624967039	9709
1	3059	29.528834772374	9710
1	3062	29.536043835196	9711
1	3067	29.543252155657	9712
1	3070	29.550459733911	9713
1	3073	29.55766657011	9714
1	3076	29.564872664407	9715
1	3079	29.572078016955	9716
1	3086	29.579282627906	9717
1	3089	29.586486497413	9718
1	3092	29.593689625629	9719
1	3096	29.600892012706	9720
1	3099	29.608093658797	9721
1	3102	29.615294564054	9722
1	3105	29.622494728629	9722
1	3108	29.629694893204	9723
1	3113	29.63689431725	9724
1	3116	29.644093000919	9725
1	3121	29.651290944364	9726
1	3124	29.658488147736	9727
1	3127	29.665684611188	9728
1	3130	29.672880334872	9729
1	3133	29.68007531894	9730
1	3136	29.687269563544	9731
1	3139	29.694463068836	9732
1	3142	29.701655834968	9733
1	3145	29.708847862092	9734
1	3148	29.71603915036	9735
1	3151	29.723229699923	9736
1	3156	29.730419510934	9737
1	3159	29.737608583544	9738
1	3162	29.744796917904	9739
1	3165	29.751984514166	9740
1	3168	29.759171372482	9741
1	3171	29.766357493004	9741
1	3174	29.773543613526	9742
1	3179	29.780728996404	9743
1	3182	29.78791364179	9744
1	3185	29.795097549836	9745
1	3188	29.802280720693	9746
1	3191	29.809463154512	9747
1	3194	29.816644851444	9748
1	3197	29.823825811641	9749
1	3200	29.831006035254	9750
1	3203	29.838185522433	9751
1	3206	29.84536427333	9752
1	3209	29.852542288096	9753
1	3212	29.859719566882	9754
1	3215	29.866896109839	9755
1	3218	29.874071917117	9756
1	3221	29.881246988868	9757
1	3224	29.888421325242	9758
1	3227	29.89559492639	9759
1	3230	29.902767792462	9760
1	3233	29.90993992361	9760
1	3236	29.917112054758	9761
1	3239	29.924283451131	9762
1	3242	29.931454112881	9763
1	3245	29.938624040157	9764
1	3248	29.945793233111	9765
1	3251	29.952961691892	9766
1	3254	29.960129416651	9767
1	3257	29.967296407539	9768
1	3260	29.974462664705	9769
1	3265	29.9816281883	9770
1	3268	29.988792978474	9771
1	3271	29.995957035377	9772
1	3274	30	9772
1	3278	30.007152344947	9773
1	3279	30.014314935758	9774
1	3282	30.021476793749	9775
1	3289	30.028637919069	9776
1	3292	30.035798311868	9777
1	3295	30.042957972296	9778
1	3298	30.050116900502	9779
1	3301	30.057275096637	9780
1	3304	30.06443256085	9781
1	3307	30.07158929329	9782
1	3310	30.078745294108	9783
1	3313	30.085900563453	9784
1	3316	30.093055101474	9785
1	3319	30.100208908321	9786
1	3322	30.107361984144	9787
1	3325	30.114514329091	9788
1	3333	30.230623012911	9803
1	3339	30.280499694326	9809
1	3344	30.328474707331	9816
1	3349	30.371490894932	9821
1	3354	30.413821622708	9827
1	3359	30.466404552049	9834
1	3363	30.5	9838
1	3366	30.528290807053	9842
1	3371	30.567464039108	9847
1	3376	30.586854978035	9850
1	3381	30.627605736697	9855
1	3386	30.654464149118	9859
1	3391	30.755922347406	9872
1	3397	30.798248776002	9878
1	3402	30.828323835976	9882
1	3407	30.838185471805	9883
1	3413	30.876468739681	9885
1	3418	30.936542945821	9877
1	3424	30.995257773078	9869
1	3425	31	9868
1	3431	31.025134982092	9865
1	3434	31.0322307753	9864
1	3441	31.056410861553	9861
1	3446	31.084685980814	9857
1	3452	31.254841263908	9835
1	3455	31.26195870163	9834
1	3460	31.269076863111	9833
1	3465	31.276195748497	9832
1	3472	31.334504282304	9824
1	3475	31.34162968947	9823
1	3482	31.384057170236	9817
1	3487	31.395824710593	9816
1	3492	31.422086985549	9812
1	3497	31.434294957127	9811
1	3502	31.443287161426	9810
1	3507	31.479595942707	9805
1	3511	31.5	9802
1	3514	31.507392544091	9801
1	3520	31.544432790717	9796
1	3526	31.55928861907	9794
1	3531	31.646141154932	9783
1	3536	31.692882189516	9777
1	3541	31.726228019377	9772
1	3547	31.882432622395	9751
1	3554	31.993461957745	9737
1	3555	32	9736
1	3561	32.100499788307	9722
1	3566	32.125631153555	9719
1	3571	32.174740448013	9713
1	3576	32.242988905367	9704
1	3582	32.298492708801	9696
1	3587	32.338725397787	9691
1	3593	32.452454853843	9676
1	3597	32.5	9670
1	3660	33	9603
1	3713	33.5	9537
1	3737	34	9471
1	3843	34.5	9404
1	3859	35	9338
1	3976	35.5	9283
1	3986	36	9243
1	4045	36.5	9204
1	4070	37	9164
1	4099	37.5	9124
1	4215	38	9085
1	4248	38.5	9045
1	4268	39	9005
1	4300	39.5	8966
1	4332	40	8926
1	4360	40.5	8886
1	4379	41	8847
1	4616	41.5	8807
1	4648	42	8872
1	4678	42.5	9074
1	4801	43	9276
1	4859	43.5	9478
1	4897	44	9596
1	4939	44.5	9701
1	4978	45	9805
1	5012	45.5	9755
1	5013	45.505948195516	9752
1	5014	45.507204610951	9751
1	5018	45.513126210282	9748
1	5021	45.514383361848	9748
1	5024	45.520307170479	9745
1	5027	45.521564322045	9744
1	5030	45.527490341336	9742
1	5033	45.528748230091	9741
1	5036	45.534675724214	9738
1	5039	45.535934350613	9738
1	5042	45.541864058574	9735
1	5045	45.543122684973	9734
1	5048	45.549054608137	9731
1	5051	45.550313973241	9731
1	5054	45.556248113429	9728
1	5057	45.557507478533	9727
1	5067	45.594212655877	9710
1	5072	45.65143895186	9682
1	5077	45.676293921514	9671
1	5082	45.728289369336	9646
1	5085	45.735546263385	9642
1	5090	45.742806167969	9639
1	5095	45.750068332094	9635
1	5102	45.767250861812	9627
1	5108	45.86535427867	9580
1	5111	45.872661168023	9577
1	5116	45.879970346263	9573
1	5123	45.975910311372	9528
1	5128	46	9516
1	5177	46.5	9277
1	5196	47	9039
1	5215	47.5	8800
1	5243	48	8561
1	5396	48.5	8323
1	5414	49	8084
1	5446	49.5	8025
1	5474	50	8033
1	5497	50.5	8041
1	5523	51	8049
1	5718	51.5	8057
1	5772	52	8065
1	5794	52.5	8339
1	5820	53	8659
1	5931	53.5	8979
1	5956	54	9233
1	6025	54.5	9251
1	6077	55	8866
1	6095	55.5	9179
1	6126	56	9492
1	6160	56.5	9221
1	6302	57	8341
1	6324	57.5	9482
1	6352	58	9544
1	6385	58.5	9581
1	6410	59	9618
1	6440	59.5	9656
1	6646	60	9693
1	6679	60.5	9730
1	6698	61	9768
1	6699	61	9768
1	6727	61.5	9740
1	6728	61.507116714111	9739
1	6731	61.514304310373	9738
1	6734	61.521492644733	9737
1	6737	61.528681717343	9737
1	6740	61.535870789953	9736
1	6743	61.543060600964	9735
1	6746	61.550251150527	9734
1	6749	61.557442438795	9733
1	6754	61.564634465919	9732
1	6757	61.571827232051	9731
1	6760	61.579020737343	9730
1	6763	61.586214981947	9730
1	6766	61.593409226551	9729
1	6769	61.600604210619	9728
1	6772	61.607799934303	9727
1	6775	61.614996397755	9726
1	6778	61.622193601127	9725
1	6781	61.629391544572	9724
1	6786	61.636590228241	9723
1	6793	61.688032792451	9717
1	6798	61.705171416641	9715
1	6801	61.712376769189	9714
1	6808	61.739484259397	9711
1	6813	61.806342390561	9702
1	6818	61.869122771612	9695
1	6823	61.954442879014	9684
1	6828	62	9679
1	6903	62.5	9617
1	6957	63	9107
1	7035	63.5	9582
1	7059	64	9177
1	7096	64.5	8773
1	7215	65	9379
1	7256	65.5	9619
1	7274	66	8911
1	7304	66.5	8452
1	7329	67	8239
1	7359	67.5	8437
1	7383	68	8819
1	7589	68.5	9151
1	7621	69	9314
1	7643	69.5	9478
1	7678	70	9641
1	7847	70.5	9746
1	7897	71	9647
1	7970	71.5	9548
1	8014	72	9450
1	8038	72.5	9351
1	8058	73	9253
1	8191	73.5	9154
1	8264	74	9055
1	8282	74.5	8957
1	8300	75	8858
1	8321	75.5	8760
1	8347	76	8661
1	8376	76.5	9062
1	8552	77	9707
1	8576	77.5	9630
1	8606	78	9406
1	8641	78.5	9262
1	8777	79	9416
1	8826	79.5	9570
1	8873	80	9720
1	8876	80.007065711113	9720
1	8881	80.029378563665	9720
1	8886	80.037495256452	9720
1	8891	80.055010384715	9720
1	8896	80.113377058351	9720
1	8899	80.120578704442	9720
1	8907	80.158996720957	9720
1	8912	80.182807802255	9720
1	8917	80.215128723253	9720
1	8923	80.250079283031	9720
1	8928	80.285094577734	9720
1	8933	80.299399139056	9720
1	8938	80.412983766956	9720
1	8943	80.5	9719
1	8950	81	9718
1	8951	81	9718
1	8974	81.5	9717
1	9057	82	9550
1	9122	82.5	9201
1	9144	83	8851
1	9166	83.5	8524
1	9191	84	8334
1	9225	84.5	8454
1	9258	85	8572
1	9445	85.5	8685
1	9468	86	8798
1	9492	86.5	8912
1	9520	87	9025
1	9670	87.5	9138
1	9694	88	9315
1	9750	88.5	9563
1	9799	89	9812
1	9820	89.5	8741
1	9821	89.5	8741
1	9843	90	8670
1	9939	90.5	8599
1	9953	91	8528
1	9981	91.5	8457
1	10009	92	8385
1	10038	92.5	8489
1	10055	93	8698
1	10082	93.5	8457
1	10305	94	8274
1	10324	94.5	8306
1	10357	95	8339
1	10388	95.5	8372
1	10532	96	8404
1	10585	96.5	8437
1	10634	97	8505
1	10703	97.5	8915
1	10717	98	9326
1	10751	98.5	9736
1	10850	99	9937
1	10854	99.10701377816	9920
1	10859	99.125366312269	9917
1	10865	99.211106883358	9903
1	10871	99.279431158992	9892
1	10877	99.396876046794	9873
1	10882	99.410146284107	9871
1	10887	99.484660465094	9859
1	10892	99.5	9856
1	10922	100	9775
1	10923	100	9775
1	10957	100.5	9711
1	10958	100.5	9711
1	10977	101	9654
1	10978	101	9654
1	11009	101.5	9597
1	11010	101.5	9597
1	11044	102	9541
1	11045	102.007155269345	9540
1	11046	102.01449279555	9539
1	11049	102.021831090969	9538
1	11053	102.029170155762	9537
1	11056	102.036509990091	9536
1	11059	102.043850594118	9536
1	11062	102.051191198145	9535
1	11067	102.058532572031	9534
1	11070	102.065874715937	9533
1	11073	102.073217630025	9532
1	11078	102.080561314456	9531
1	11081	102.087905769393	9531
1	11084	102.09525022433	9530
1	11087	102.102595449933	9529
1	11090	102.109941446365	9528
1	11095	102.117288213787	9527
1	11098	102.124635752362	9526
1	11101	102.131984062251	9526
1	11104	102.13933237214	9525
1	11107	102.146681453505	9524
1	11110	102.154031306508	9523
1	11115	102.161381931311	9522
1	11118	102.168733328076	9521
1	11121	102.176085496966	9521
1	11124	102.183437665856	9520
1	11127	102.190790607032	9519
1	11132	102.198144320657	9518
1	11135	102.205498806894	9517
1	11138	102.212854065904	9516
1	11141	102.22021009785	9515
1	11144	102.227566902895	9515
1	11147	102.23492370794	9514
1	11150	102.242281286246	9513
1	11153	102.249639637975	9512
1	11158	102.25699876329	9511
1	11161	102.264358662354	9510
1	11164	102.27171933533	9510
1	11169	102.279080008306	9509
1	11172	102.286441455356	9508
1	11175	102.293803676643	9507
1	11180	102.30116667233	9506
1	11183	102.30853044258	9505
1	11187	102.315894987556	9505
1	11190	102.323259532532	9504
1	11193	102.330624852397	9503
1	11196	102.337990947314	9502
1	11199	102.345357817447	9501
1	11203	102.352725462958	9500
1	11206	102.360093884011	9500
1	11209	102.367462305064	9499
1	11212	102.374831501822	9498
1	11216	102.382201474448	9497
1	11219	102.389572223105	9496
1	11222	102.396943747958	9495
1	11225	102.404316049169	9495
1	11228	102.41168835038	9494
1	11231	102.419061428113	9493
1	11234	102.426435282532	9492
1	11237	102.4338099138	9491
1	11240	102.441185322082	9490
1	11243	102.44856150754	9490
1	11246	102.455937692998	9489
1	11253	102.463314655797	9488
1	11256	102.470692396101	9487
1	11259	102.478070914073	9486
1	11266	102.5	9484
1	11281	103	9427
1	11282	103	9427
1	11298	103.5	9370
1	11299	103.5	9370
1	11332	104	9313
1	11443	104.5	9256
1	11491	105	9200
1	11527	105.5	9149
1	11601	106	9230
1	11639	106.5	9310
1	11670	107	9390
1	11814	107.5	9471
1	11868	108	9551
1	11891	108.5	9622
1	11922	109	9812
1	11951	109.5	9470
1	11952	109.50036835716	9470
1	11955	109.507760120624	9465
1	11958	109.515155788875	9460
1	11961	109.518213035442	9458
1	11962	109.522555366042	9455
1	11965	109.525614177332	9453
1	11968	109.529958856259	9450
1	11971	109.533019233928	9447
1	11976	109.537366263666	9445
1	11979	109.54042899364	9442
1	11984	109.544777592411	9439
1	11987	109.547842677182	9437
1	11992	109.552193632246	9434
1	11995	109.555260288711	9432
1	11998	109.559613602566	9429
1	12001	109.562681832392	9427
1	12004	109.56703750754	9424
1	12007	109.570107312396	9422
1	12010	109.573996621923	9419
1	12011	109.574465351343	9419
1	12014	109.577536732901	9417
1	12017	109.581428408737	9414
1	12020	109.581897138157	9414
1	12023	109.58281840286	9413
1	12024	109.584970098092	9412
1	12027	109.58886414275	9409
1	12030	109.58933287217	9409
1	12033	109.590254926816	9408
1	12036	109.592407412159	9407
1	12039	109.596303828158	9404
1	12042	109.596772557578	9404
1	12047	109.597695403006	9403
1	12050	109.5998486793	9402
1	12053	109.603747469162	9399
1	12056	109.604216198582	9399
1	12066	109.607974527027	9396
1	12069	109.611195069971	9394
1	12084	109.682248239424	9345
1	12090	109.703644778021	9331
1	12096	109.741752702453	9305
1	12102	109.824528635099	9248
1	12108	109.879505984494	9210
1	12116	109.92905365511	9176
1	12121	109.938006644925	9170
1	12126	109.961498026368	9154
1	12133	110	9128
1	12149	110.5	8786
1	12241	111	8569
1	12263	111.5	8970
1	12279	112	8933
1	12295	112.5	8897
1	12381	113	8861
1	12436	113.5	8746
1	12457	114	8605
1	12480	114.5	8465
1	12510	115	8324
1	12658	115.5	8184
1	12728	116	8113
1	12785	116.5	8415
1	12813	117	8717
1	12841	117.5	9019
1	12860	118	9321
1	12985	118.5	9623
1	12991	118.51448082113	9632
1	12996	118.539857152153	9647
1	12999	118.547113293959	9652
1	13006	118.595069796332	9681
1	13012	118.670592253324	9726
1	13017	118.695917188102	9741
1	13022	118.711734328537	9751
1	13029	118.852517148908	9836
1	13036	118.95456038268	9852
1	13042	119	9813
1	13061	119.5	9388
1	13062	119.5	9388
1	13090	120	8963
1	13104	120.5	9001
1	13135	121	9169
1	13290	121.5	9195
1	13360	122	8905
1	13367	122.5	8615
1	13425	123	8325
1	13449	123.5	8036
1	13517	124	8015
1	13573	124.5	8029
1	13644	125	8044
1	13665	125.5	8142
1	13693	126	8278
1	13721	126.5	8288
1	13753	127	8297
1	13781	127.5	8306
1	13803	128	8592
1	13826	128.5	9656
1	13850	129	9357
1	13851	129	9357
1	13870	129.5	9058
1	14113	130	8778
1	14253	130.5	8642
1	14301	131	8506
1	14374	131.5	8417
1	14426	132	8492
1	14478	132.5	8566
1	14532	133	8640
1	14575	133.5	8715
1	14597	134	8789
1	14690	134.5	8863
1	14747	135	8938
1	14828	135.5	9012
1	14864	136	9086
1	14896	136.5	9161
1	14920	137	9235
1	15081	137.5	9309
1	15110	138	9384
1	15134	138.5	9458
1	15156	139	9505
1	15294	139.5	9504
1	15341	140	9503
1	15379	140.5	9503
1	15427	141	9502
1	15448	141.5	9501
1	15484	142	9411
1	15631	142.5	9270
1	15702	143	9129
1	15730	143.5	8988
1	15837	144	8847
1	15853	144.5	8706
1	15884	145	8565
1	15906	145.5	8424
1	16047	146	8283
1	16078	146.5	8916
1	16114	147	9763
1	16148	147.5	9528
1	16149	147.5	9528
1	16196	148	9471
1	16222	148.5	9507
1	16452	149	9543
1	16530	149.5	9579
1	16558	150	9439
1	16578	150.5	9292
1	16656	151	9144
1	16721	151.5	8997
1	16802	152	8817
1	16868	152.5	8773
1	16893	153	8686
1	16971	153.5	8565
1	17040	154	8406
1	17099	154.5	8248
1	17135	155	8089
1	17246	155.5	8405
1	17306	156	8757
1	17330	156.5	9110
1	17344	157	9463
1	17368	157.5	9327
1	17401	158	8257
1	17437	158.5	8427
1	17480	159	8596
1	17497	159.5	8766
1	17527	160	8936
1	17551	160.5	9047
1	17793	161	8939
1	17909	161.5	8831
1	17992	162	8723
1	18047	162.5	9218
1	18086	163	9139
1	18131	163.5	9059
1	18210	164	8980
1	18260	164.5	8900
1	18280	165	8821
1	18405	165.5	8741
1	18434	166	8661
1	18455	166.5	8582
1	18587	167	8502
1	18614	167.5	8423
1	18645	168	8343
1	18667	168.5	8264
1	18704	169	8276
1	18741	169.5	8321
1	18767	170	8366
1	18992	170.5	8411
1	19025	171	8456
1	19060	171.5	8501
1	19195	172	8546
1	19231	172.5	8527
1	19293	173	8424
1	19360	173.5	8386
1	19407	174	8348
1	19431	174.5	8310
1	19533	175	8271
1	19578	175.5	8233
1	19604	176	8195
1	19640	176.5	8157
1	19680	177	8119
1	19707	177.5	8271
1	19739	178	8916
1	19772	178.5	9560
1	19804	179	9119
1	19834	179.5	8403
1	19855	180	8558
1	20082	180.5	8712
1	20229	181	8867
1	20267	181.5	8499
1	20306	182	9017
1	20386	182.5	9291
1	20443	183	9301
1	20499	183.5	9311
1	20579	184	9321
1	20593	184.5	9332
1	20700	185	9342
1	20735	185.5	9352
1	20841	186	9363
1	20860	186.5	9373
1	20894	187	9383
1	20913	187.5	9393
1	20935	188	9404
1	20959	188.5	9414
1	20988	189	9424
1	21163	189.5	9428
1	21179	190	9417
1	21206	190.5	9393
1	21326	191	9220
1	21398	191.5	9047
1	21462	192	8874
1	21506	192.5	8701
1	21581	193	8529
1	21600	193.5	8738
1	21618	194	9317
1	21733	194.5	9548
1	21749	195	9425
1	21783	195.5	9301
1	21810	196	9860
1	21842	196.5	9735
1	21869	197	9639
1	21902	197.5	9271
1	22120	198	8902
1	22144	198.5	8626
1	22183	199	8763
1	22327	199.5	8901
1	22396	200	9039
1	22468	200.5	9177
1	22511	201	9314
1	22560	201.5	9535
1	22588	202	9756
1	22606	202.5	9761
1	22607	202.507186858316	9761
1	22608	202.514358254689	9760
1	22611	202.521530385837	9760
1	22616	202.528702516985	9759
1	22619	202.535875383057	9759
1	22622	202.543048249129	9759
1	22625	202.550221115201	9758
1	22628	202.557394716349	9758
1	22631	202.564568317497	9758
1	22634	202.571741918645	9757
1	22637	202.578916255019	9757
1	22640	202.586090591393	9756
1	22643	202.593265663144	9756
1	22646	202.600440734895	9756
1	22649	202.607615806646	9755
1	22652	202.614791613924	9755
1	22655	202.621967421202	9754
1	22658	202.629143964159	9754
1	22665	202.655100263672	9753
1	22670	202.700579137353	9750
1	22675	202.731467495178	9749
1	22678	202.738647718791	9748
1	22685	202.909947779005	9739
1	22691	203	9734
1	22718	203.5	9707
1	22745	204	9680
1	22769	204.5	9654
1	22797	205	9620
1	22827	205.5	9385
1	22843	206	9150
1	23062	206.5	8915
1	23082	207	8680
1	23114	207.5	8445
1	23253	208	8210
1	23299	208.5	8493
1	23349	209	9418
1	23404	209.5	9132
1	23467	210	8590
1	23499	210.5	8756
1	23521	211	8946
1	23648	211.5	9083
1	23681	212	9220
1	23716	212.5	9357
1	23743	213	9494
1	23769	213.5	9632
1	23785	214	9769
1	23807	214.5	9821
1	23808	214.507144315166	9819
1	23809	214.514273350709	9817
1	23812	214.521403838638	9815
1	23815	214.528535779545	9812
1	23818	214.535669901029	9810
1	23821	214.542805476972	9808
1	23824	214.549942507967	9806
1	23829	214.557080994608	9803
1	23832	214.564221665831	9801
1	23835	214.571363794185	9799
1	23838	214.578507380265	9797
1	23841	214.585652424666	9795
1	23844	214.592798927984	9792
1	23847	214.599947620794	9790
1	23850	214.607097774012	9788
1	23855	214.614249388233	9786
1	23858	214.621402464056	9783
1	23861	214.628557733401	9781
1	23864	214.635714465841	9779
1	23871	214.642872661976	9777
1	23874	214.650032322404	9774
1	23877	214.657194180395	9772
1	23880	214.664357504177	9770
1	23883	214.671522294351	9768
1	23886	214.678688551517	9765
1	23889	214.685857010298	9763
1	23892	214.693026937574	9761
1	23895	214.700198333947	9759
1	23898	214.707371200019	9756
1	23901	214.71454627177	9754
1	23904	214.721722814727	9752
1	23907	214.728900829493	9750
1	23910	214.736080316672	9747
1	23915	214.743262013604	9745
1	23918	214.750445184461	9743
1	23921	214.757629829847	9741
1	23926	214.764815950369	9738
1	23929	214.772004284729	9736
1	23932	214.77919409574	9734
1	23935	214.786385384008	9732
1	23938	214.79357815014	9729
1	23944	214.800773134208	9727
1	23947	214.80796959766	9725
1	23950	214.815167541105	9722
1	23953	214.82236770568	9720
1	23958	214.829569351771	9718
1	23961	214.836772479987	9716
1	23964	214.843977090938	9713
1	23967	214.851183927137	9711
1	23970	214.858392247598	9709
1	23973	214.865602052933	9707
1	23978	214.872813343754	9704
1	23981	214.880026863952	9702
1	23984	214.887241871167	9700
1	23989	214.894458366012	9698
1	23992	214.901676349101	9695
1	23995	214.908896565707	9693
1	23998	214.916118272093	9691
1	24001	214.923341468874	9689
1	24004	214.930566156664	9686
1	24007	214.937793082123	9684
1	24010	214.945021500132	9682
1	24015	214.952251411307	9679
1	24018	214.959483563389	9677
1	24021	214.96671721018	9675
1	24024	214.973952352299	9673
1	24031	214.984071446837	9669
1	24036	215	9664
1	24069	215.5	9583
1	24093	216	9592
1	24211	216.5	9600
1	24288	217	9608
1	24378	217.5	9617
1	24434	218	9625
1	24511	218.5	9633
1	24531	219	9577
1	24560	219.5	9511
1	24685	220	9445
1	24716	220.5	9379
1	24734	221	9313
1	24857	221.5	9247
1	24880	222	9181
1	24954	222.5	9115
1	24974	223	9049
1	25044	223.5	8983
1	25067	224	8917
1	25097	224.5	8835
1	25196	225	8750
1	25232	225.5	8666
1	25258	226	8582
1	25281	226.5	8497
1	25306	227	8413
1	25320	227.5	8329
1	25489	228	8245
1	25533	228.5	8160
1	25558	229	8297
1	25587	229.5	8671
1	25729	230	9010
1	25775	230.5	9226
1	25850	231	9443
1	25937	231.5	9200
1	25957	232	8613
1	25974	232.5	8144
1	26001	233	9450
1	26127	233.5	9443
1	26148	234	9436
1	26162	234.5	9429
1	26192	235	9422
1	26220	235.5	9416
1	26239	236	9409
1	26398	236.5	9402
1	26436	237	9388
1	26466	237.5	9280
1	26504	238	9171
1	26612	238.5	9063
1	26657	239	8955
1	26705	239.5	8847
1	26753	240	8738
1	26779	240.5	8630
1	26820	241	8522
1	26845	241.5	8414
1	27000	242	8306
1	27029	242.5	8334
1	27059	243	8559
1	27090	243.5	8784
1	27113	244	9009
1	27152	244.5	8889
1	27346	245	8071
1	27426	245.5	8138
1	27448	246	8205
1	27478	246.5	8360
1	27581	247	8544
1	27661	247.5	8729
1	27706	248	8914
1	27773	248.5	9099
1	27793	249	9284
1	27809	249.5	9469
1	27832	250	9653
1	27835	250.007824726135	9656
1	27836	250.01507410476	9659
1	27839	250.022321231792	9662
1	27842	250.029566108629	9664
1	27845	250.036809486112	9667
1	27848	250.044050615728	9670
1	27851	250.051289498872	9672
1	27854	250.058526885142	9675
1	27859	250.065762027261	9678
1	27862	250.07299492662	9680
1	27867	250.080226331579	9683
1	27870	250.087455496094	9686
1	27873	250.094682421553	9688
1	27876	250.101907855079	9691
1	27879	250.10913105186	9694
1	27884	250.116352013279	9696
1	27889	250.123571485226	9699
1	27892	250.130788724117	9702
1	27895	250.138003731332	9704
1	27898	250.14521725153	9707
1	27901	250.152428542351	9710
1	27904	250.159637605173	9712
1	27907	250.166845183427	9715
1	27910	250.174050535975	9718
1	27913	250.181253664191	9720
1	27916	250.188455310282	9723
1	27923	250.207433960618	9730
1	27928	250.321349141431	9772
1	27933	250.337512672588	9778
1	27939	250.5	9838
1	27974	251	9427
1	27975	251	9427
1	28002	251.5	9078
1	28025	252	8728
1	28047	252.5	8379
1	28074	253	8970
1	28289	253.5	9963
1	28292	253.525025991731	9960
1	28297	253.558987091372	9957
1	28303	253.624036365079	9952
1	28308	253.633868916356	9951
1	28314	253.720350859991	9943
1	28320	253.732515969307	9942
1	28325	253.749776056571	9941
1	28330	253.767996718609	9939
1	28335	253.84505814337	9932
1	28340	253.872817182484	9930
1	28345	253.903219017251	9927
1	28350	253.92710572488	9925
1	28355	254	9918
1	28380	254.5	9874
1	28381	254.5	9874
1	28409	255	9830
1	28410	255.007425480004	9829
1	28411	255.014547262484	9828
1	28414	255.021669769607	9828
1	28417	255.02879227673	9827
1	28420	255.035915508642	9826
1	28423	255.043039465491	9826
1	28426	255.05016342234	9825
1	28429	255.057288104274	9824
1	28434	255.06441351144	9824
1	28437	255.071538918606	9823
1	28440	255.078665051152	9823
1	28443	255.085791183698	9822
1	28446	255.092918041772	9821
1	28449	255.100045625521	9821
1	28452	255.10717320927	9820
1	28455	255.114301518842	9819
1	28460	255.121430554385	9819
1	28463	255.128559589928	9818
1	28466	255.13568935159	9817
1	28469	255.142819839519	9817
1	28472	255.149950327448	9816
1	28475	255.157081541792	9816
1	28482	255.190734837436	9813
1	28487	255.203274893736	9811
1	28492	255.215458683488	9810
1	28497	255.223802385081	9810
1	28502	255.306758014398	9802
1	28507	255.324802104035	9801
1	28510	255.331944232389	9800
1	28517	255.36230223691	9797
1	28522	255.38570119842	9795
1	28525	255.392847701738	9795
1	28531	255.5	9785
1	28581	256	9741
1	28624	256.5	9696
1	28663	257	9652
1	28687	257.5	9608
1	28706	258	9563
1	28737	258.5	9518
1	28738	258.507089325501	9517
1	28739	258.514444584511	9516
1	28742	258.521800616457	9515
1	28745	258.529157421502	9514
1	28748	258.536514999808	9513
1	28751	258.543873351537	9512
1	28754	258.551232476852	9512
1	28759	258.558591602167	9511
1	28762	258.565951501231	9510
1	28765	258.573312174207	9509
1	28768	258.580673621257	9508
1	28771	258.588035842544	9507
1	28774	258.595398838231	9506
1	28777	258.602762608481	9505
1	28780	258.610127153457	9505
1	28785	258.617491698433	9504
1	28788	258.624857018298	9503
1	28793	258.632223113215	9502
1	28796	258.639589983348	9501
1	28799	258.646957628859	9500
1	28804	258.654326049912	9499
1	28807	258.66169524667	9498
1	28810	258.669065219296	9498
1	28813	258.676435191922	9497
1	28816	258.683805940579	9496
1	28820	258.691177465432	9495
1	28824	258.698549766643	9494
1	28827	258.705922844376	9493
1	28831	258.713296698795	9492
1	28834	258.720671330063	9492
1	28841	258.821772648481	9480
1	28846	258.92007364525	9468
1	28849	258.927466970134	9467
1	28856	258.971570426319	9462
1	28861	259	9459
1	28887	259.5	9400
1	28888	259.5	9400
1	28913	260	9341
1	28914	260	9341
1	28935	260.5	9281
1	28936	260.5	9281
1	28969	261	8896
1	29003	261.5	8132
1	29216	262	8242
1	29268	262.5	8482
1	29293	263	8722
1	29320	263.5	8962
1	29433	264	9202
1	29461	264.5	9442
1	29496	265	9681
1	29499	265.007524454477	9685
1	29505	265.066813782327	9700
1	29510	265.145397668667	9683
1	29516	265.316101270748	9645
1	29521	265.432891026095	9618
1	29526	265.456311572353	9613
1	29531	265.469484854707	9610
1	29536	265.5	9603
1	29566	266	9492
1	29567	266	9492
1	29594	266.5	9355
1	29595	266.5	9355
1	29613	267	9087
1	29741	267.5	8819
1	29765	268	8551
1	29784	268.5	8283
1	29817	269	8358
1	29853	269.5	8462
1	29881	270	8567
1	30091	270.5	8671
1	30161	271	8769
1	30182	271.5	8867
1	30247	272	8965
1	30291	272.5	9063
1	30342	273	9161
1	30407	273.5	9259
1	30448	274	9357
1	30470	274.5	9353
1	30471	274.5	9353
1	30496	275	8833
1	30582	275.5	8314
1	30609	276	8134
1	30631	276.5	8200
1	30659	277	8265
1	30692	277.5	8330
1	30721	278	8393
1	30908	278.5	8454
1	30959	279	8515
1	30978	279.5	8576
1	30993	280	8638
1	31077	280.5	8699
1	31129	281	8760
1	31168	281.5	8821
1	31207	282	8882
1	31231	282.5	8943
1	31260	283	9004
1	31285	283.5	9065
1	31402	284	9126
1	31422	284.5	9151
1	31455	285	9118
1	31491	285.5	9086
1	31524	286	9053
1	31556	286.5	9021
1	31784	287	8988
1	31836	287.5	8955
1	31858	288	8923
1	31885	288.5	8890
1	31981	289	8858
1	32029	289.5	8825
1	32088	290	8793
1	32153	290.5	8760
1	32164	291	8727
1	32268	291.5	9452
1	32294	292	9861
1	32296	292.007200164575	9861
1	32297	292.014298836109	9862
1	32302	292.021396787843	9862
1	32305	292.028494739577	9863
1	32310	292.035591971656	9863
1	32313	292.042689203735	9863
1	32316	292.049786435814	9864
1	32319	292.056882948385	9864
1	32322	292.063979460956	9864
1	32325	292.071075973527	9865
1	32328	292.078171766735	9865
1	32331	292.085267559943	9865
1	32334	292.092363353151	9866
1	32341	292.100603345604	9866
1	32346	292.112406505055	9867
1	32351	292.125798697673	9868
1	32356	292.134649657983	9868
1	32361	292.15554575669	9869
1	32366	292.205742565042	9872
1	32371	292.235817526847	9873
1	32376	292.326026536307	9878
1	32381	292.378830654014	9881
1	32386	292.390945310232	9881
1	32391	292.475700322973	9886
1	32396	292.5	9887
1	32420	293	9880
1	32421	293	9880
1	32454	293.5	9387
1	32455	293.5	9387
1	32488	294	8894
1	32489	294	8894
1	32512	294.5	8815
1	32537	295	8972
1	32557	295.5	9130
1	32586	296	9287
1	32614	296.5	9444
1	32615	296.5	9444
1	32635	297	9602
1	32638	297.007085020243	9604
1	32639	297.014373649981	9607
1	32642	297.021660003681	9609
1	32645	297.028944840813	9611
1	32648	297.036228162007	9613
1	32651	297.043509967895	9616
1	32654	297.050789502005	9618
1	32657	297.058067522383	9620
1	32660	297.06534402966	9623
1	32663	297.072618268463	9625
1	32666	297.079890995736	9627
1	32669	297.087162212107	9629
1	32672	297.094431918203	9632
1	32675	297.101699360063	9634
1	32678	297.108965293216	9636
1	32681	297.116229718289	9639
1	32684	297.123491882414	9641
1	32687	297.130752540022	9643
1	32690	297.138011691738	9645
1	32693	297.145269338187	9648
1	32696	297.152524727905	9650
1	32701	297.159778613915	9652
1	32704	297.167030996841	9655
1	32707	297.174281126308	9657
1	32710	297.181529754246	9659
1	32713	297.188776881278	9661
1	32716	297.196022508025	9664
1	32719	297.203265885508	9666
1	32722	297.210507764258	9668
1	32725	297.217748144895	9671
1	32728	297.224986279524	9673
1	32731	297.232222917589	9675
1	32734	297.239458059708	9677
1	32737	297.246691706499	9680
1	32740	297.253923111458	9682
1	32743	297.261153022633	9684
1	32746	297.268381440642	9687
1	32750	297.275607620058	9689
1	32753	297.282832307848	9691
1	32756	297.290055504629	9693
1	32759	297.297277211015	9696
1	32762	297.304496682962	9698
1	32766	297.311714666051	9700
1	32771	297.318931160896	9702
1	32774	297.326146168111	9705
1	32777	297.33335894503	9707
1	32780	297.340570235851	9709
1	32783	297.347780041186	9712
1	32786	297.35498761944	9714
1	32789	297.362193713737	9716
1	32792	297.369398324688	9718
1	32795	297.376601452904	9721
1	32798	297.383802358161	9723
1	32801	297.391001782207	9725
1	32804	297.398199725652	9727
1	32807	297.405396189104	9730
1	32810	297.412590433708	9732
1	32813	297.41978319984	9734
1	32816	297.426974488108	9736
1	32820	297.434164299119	9739
1	32823	297.441351895381	9741
1	32826	297.448538015903	9743
1	32829	297.455722661289	9746
1	32832	297.462905095108	9748
1	32835	297.470086055305	9750
1	32838	297.477265542484	9752
1	32841	297.48444355725	9755
1	32844	297.491619364528	9757
1	32847	297.498793700902	9759
1	32850	297.5	9759
1	32854	297.507457121551	9762
1	32855	297.514627783301	9764
1	32858	297.521796976255	9766
1	32861	297.528964701014	9769
1	32864	297.536130224609	9771
1	32867	297.543294281512	9773
1	32870	297.550456872323	9775
1	32873	297.557617997643	9778
1	32876	297.564776925849	9780
1	32879	297.571934390062	9782
1	32882	297.57909039088	9784
1	32885	297.586244928901	9787
1	32892	297.593397273848	9789
1	32895	297.600548157493	9791
1	32898	297.607697580432	9793
1	32901	297.614845543263	9796
1	32906	297.621991317048	9798
1	32909	297.629135632214	9800
1	32916	297.666296344145	9812
1	32919	297.673430465629	9814
1	32928	297.814494151353	9859
1	32933	297.976412976219	9910
1	32937	298	9917
1	32983	298.5	9907
1	32986	298.56134169953	9886
1	32992	298.666150607563	9850
1	32997	298.68353252701	9844
1	33002	298.726395501646	9830
1	33007	298.769462333943	9815
1	33012	298.816879161599	9799
1	33017	298.856695956489	9785
1	33022	298.867606536472	9781
1	33027	298.893268741436	9773
1	33032	298.904010500196	9769
1	33037	298.922509780176	9763
1	33040	298.929679707452	9760
1	33048	298.96811270043	9747
1	33052	299	9736
1	33086	299.5	9564
1	33161	300	9393
1	33204	300.5	9233
1	33251	301	9277
1	33273	301.5	9180
1	33364	302	9016
1	33388	302.5	8851
1	33413	303	8687
1	33437	303.5	8522
1	33479	304	8357
1	33495	304.5	8382
1	33702	305	8578
1	33720	305.5	8773
1	33749	306	8968
1	33785	306.5	9163
1	33913	307	9213
1	33981	307.5	9218
1	34033	308	9224
1	34084	308.5	9230
1	34103	309	9235
1	34126	309.5	9241
1	34225	310	9250
1	34298	310.5	9269
1	34317	311	9289
1	34352	311.5	9308
1	34378	312	9328
1	34556	312.5	9347
1	34576	313	9367
1	34651	313.5	9386
1	34676	314	9406
1	34702	314.5	9425
1	34723	315	9445
1	34823	315.5	9464
1	34853	316	9210
1	34875	316.5	8354
1	34893	317	8366
1	34920	317.5	8740
1	35044	318	9115
1	35087	318.5	9490
1	35133	319	9346
1	35164	319.5	8969
1	35189	320	8868
1	35228	320.5	8946
1	35360	321	9023
1	35382	321.5	8908
1	35404	322	8741
1	35426	322.5	8714
1	35461	323	8725
1	35482	323.5	8737
1	35636	324	8748
1	35681	324.5	8759
1	35715	325	8770
1	35823	325.5	8781
1	35844	326	8793
1	35917	326.5	8804
1	35984	327	8959
1	36031	327.5	9559
1	36050	328	9926
1	36066	328.5	9775
1	36067	328.5	9775
1	36101	329	9599
1	36118	329.5	9423
1	36150	330	9460
1	36174	330.5	9505
1	36197	331	9550
1	36233	331.5	9595
1	36256	332	9640
1	36490	332.5	9685
1	36598	333	9730
1	36650	333.5	9775
1	36720	334	9820
1	36770	334.5	9865
1	36776	334.567239065509	9871
1	36781	334.783810404503	9890
1	36786	334.866122982768	9898
1	36791	334.874338354096	9899
1	36796	334.890560097002	9900
1	36801	334.961473042559	9906
1	36806	334.991747763186	9909
1	36810	335	9910
1	36813	335.092695659153	9918
1	36818	335.15328536027	9924
1	36823	335.208155837665	9929
1	36826	335.215205893058	9929
1	36833	335.224833946738	9930
1	36840	335.277100729159	9925
1	36845	335.285260294045	9922
1	36850	335.397978064637	9890
1	36855	335.449654218318	9875
1	36859	335.5	9860
1	36862	335.554443145508	9844
1	36867	335.656048149359	9815
1	36872	335.760557586827	9785
1	36877	335.775374628892	9780
1	36883	335.928138136438	9736
1	36888	335.957920001324	9727
1	36893	336	9715
1	36924	336.5	9570
1	37021	337	9425
1	37030	337.291678767105	9340
1	37033	337.299173413786	9338
1	37042	337.412340880146	9305
1	37047	337.43114175138	9300
1	37052	337.440581027693	9297
1	37058	337.452883810538	9294
1	37063	337.467029078611	9290
1	37069	337.5	9280
1	37101	338	9135
1	37131	338.5	8990
1	37262	339	8845
1	37285	339.5	8700
1	37313	340	8555
1	37345	340.5	8410
1	37379	341	8265
1	37413	341.5	8119
1	37446	342	8899
1	37681	342.5	9626
1	37704	343	8991
1	37705	343	8991
1	37722	343.5	8851
1	37904	344	8595
1	37955	344.5	8339
1	37979	345	8156
1	38010	345.5	8082
1	38063	346	8007
1	38112	346.5	8068
1	38260	347	8138
1	38295	347.5	8208
1	38306	348	8278
1	38385	348.5	8348
1	38410	349	8418
1	38437	349.5	8487
1	38465	350	8557
1	38498	350.5	8627
1	38523	351	8697
1	38550	351.5	8767
1	38581	352	8837
1	38615	352.5	8907
1	38636	353	8977
1	38870	353.5	9047
1	39036	354	8663
1	39084	354.5	8632
1	39124	355	8600
1	39188	355.5	8568
1	39248	356	8527
1	39311	356.5	8375
1	39362	357	8601
1	39381	357.5	8828
1	39519	358	9054
1	39590	358.5	9413
1	39608	359	9462
1	39634	359.5	9502
1	39648	360	9542
1	39649	360	9542
1	39674	360.5	9581
1	39675	360.5	9581
1	39698	361	9311
1	39699	361	9311
1	39742	361.5	9517
1	39768	362	9646
1	39791	362.5	9663
1	39792	362.5	9663
1	39827	363	9680
1	40053	363.5	9697
1	40057	363.507486631016	9697
1	40058	363.514705358457	9697
1	40061	363.521924085898	9697
1	40064	363.529142813339	9698
1	40067	363.536360796428	9698
1	40072	363.543578779517	9698
1	40075	363.550796762606	9698
1	40078	363.558014745695	9699
1	40081	363.565231984586	9699
1	40084	363.572449223477	9699
1	40087	363.579666462368	9699
1	40090	363.586883701259	9700
1	40093	363.594100196104	9700
1	40096	363.601316690949	9700
1	40099	363.608533185794	9700
1	40102	363.615749680639	9701
1	40105	363.622965431593	9701
1	40108	363.630181182547	9701
1	40111	363.637396933501	9701
1	40116	363.644612684455	9702
1	40119	363.65182769167	9702
1	40122	363.659042698885	9702
1	40127	363.6662577061	9702
1	40130	363.673472713315	9702
1	40137	363.686937089044	9703
1	40142	363.69894228535	9703
1	40147	363.717545692217	9704
1	40150	363.724759212415	9704
1	40155	363.731972732613	9704
1	40163	363.86847532166	9709
1	40168	363.889253069824	9710
1	40174	363.936049297794	9711
1	40179	363.944161829964	9712
1	40184	363.976868783562	9713
1	40188	364	9713
1	40237	364.5	9730
1	40286	365	9747
1	40351	365.5	9764
1	40354	365.659295211129	9769
1	40359	365.707926596789	9771
1	40364	365.722822580684	9771
1	40369	365.751226650531	9772
1	40374	365.759990640496	9772
1	40379	365.800799681459	9774
1	40385	365.931260843112	9778
1	40389	366	9780
1	40392	366.025698071665	9781
1	40397	366.210425767056	9787
1	40402	366.263520470393	9789
1	40407	366.328331076137	9791
1	40412	366.407169570853	9794
1	40418	366.418620905054	9794
1	40423	366.429991349727	9795
1	40428	366.457486947385	9796
1	40432	366.5	9797
1	40435	366.528001756292	9798
1	40441	366.560294480664	9799
1	40446	366.575443455124	9800
1	40451	366.645271252651	9802
1	40456	366.773396860972	9806
1	40461	366.822295238241	9808
1	40466	366.866780575894	9809
1	40471	366.994505804348	9814
1	40473	367	9814
1	40495	367.5	9831
1	40496	367.506601888094	9831
1	40497	367.513722221732	9831
1	40500	367.514705358457	9831
1	40501	367.52084255537	9831
1	40504	367.521825692095	9831
1	40507	367.521924085898	9831
1	40509	367.527962889008	9831
1	40546	367.67193191485	9809
1	40559	367.835114011034	9783
1	40569	368	9757
1	40594	368.5	9678
1	40595	368.5	9678
1	40625	369	9599
1	40626	369	9599
1	40654	369.5	9520
1	40655	369.5	9520
1	40691	370	9442
1	40692	370	9442
1	40727	370.5	9363
1	40754	371	9284
1	40985	371.5	8850
1	41010	372	8156
1	41040	372.5	8728
1	41157	373	9327
1	41195	373.5	9558
1	41199	373.558602943446	9585
1	41204	373.61140327141	9610
1	41209	373.632032530923	9619
1	41215	373.749909816626	9674
1	41220	373.811384352043	9702
1	41226	373.934327093691	9739
1	41231	373.972983734825	9737
1	41235	374	9735
1	41238	374.014447532503	9734
1	41243	374.051131673909	9732
1	41248	374.0823934059	9730
1	41253	374.118609760631	9728
1	41258	374.227893666616	9721
1	41263	374.284977128487	9718
1	41268	374.329030855437	9715
1	41273	374.401030952138	9711
1	41279	374.471951868856	9707
1	41283	374.5	9705
1	41287	374.553958835818	9702
1	41292	374.704905176044	9692
1	41301	374.855888001691	9683
1	41306	374.883235167947	9682
1	41311	374.933536320289	9679
1	41316	374.94861169353	9678
1	41321	374.980282580084	9676
1	41324	374.987516974462	9675
1	41331	375	9675
1	41351	375.5	9644
1	41352	375.506272940669	9644
1	41353	375.507372301211	9644
1	41354	375.513531339674	9643
1	41357	375.514630700216	9643
1	41360	375.52079049139	9643
1	41363	375.521889851932	9643
1	41366	375.528049643106	9643
1	41369	375.529149003648	9642
1	41374	375.535308794822	9642
1	41384	375.669095475881	9634
1	41389	375.69074207621	9633
1	41394	375.724350498374	9631
1	41399	375.735067188982	9630
1	41404	375.759090701048	9629
1	41409	375.781477227796	9627
1	41415	375.803701313012	9626
1	41420	375.820273833926	9625
1	41426	375.932261158451	9618
1	41432	375.976287846116	9615
1	41437	375.990184345613	9614
1	41441	376	9614
1	41444	376.033401688209	9612
1	41449	376.049926289394	9611
1	41454	376.065011531244	9610
1	41461	376.175115054379	9603
1	41466	376.206775365692	9601
1	41471	376.234540611786	9600
1	41478	376.284929454066	9597
1	41483	376.314390733109	9595
1	41488	376.331001532047	9594
1	41491	376.338297758855	9593
1	41498	376.346192934794	9593
1	41503	376.36380556144	9592
1	41508	376.379613350192	9591
1	41515	376.492414191047	9589
1	41520	376.5	9589
1	41545	377	9598
1	41578	377.5	9608
1	41600	378	9617
1	41627	378.5	9627
1	41659	379	9636
1	41660	379	9636
1	41686	379.5	9646
1	41687	379.5	9646
1	41715	380	9656
1	41744	380.5	9665
1	41745	380.5	9665
1	41764	381	9675
1	41765	381.007578218036	9675
1	41767	381.014813360155	9675
1	41770	381.022048502274	9675
1	41773	381.029283644393	9675
1	41776	381.036518786512	9675
1	41781	381.043753928631	9675
1	41784	381.05098907075	9676
1	41787	381.058223465128	9676
1	41790	381.065457859506	9676
1	41793	381.072692253884	9676
1	41796	381.079926648262	9676
1	41799	381.08716104264	9676
1	41802	381.094395437018	9676
1	41805	381.101629831396	9677
1	41810	381.108863478187	9677
1	41813	381.116097124978	9677
1	41816	381.123330771769	9677
1	41819	381.13056441856	9677
1	41822	381.137798065351	9677
1	41825	381.145031712142	9677
1	41828	381.152265358933	9678
[...]
22	21150	189.354621825013	1.1025554550012
22	21205	190.457177280014	2.7893276961769
22	21588	193.246504976191	1.0053572322919
22	21715	194.251862208483	1.4932405541057
22	21801	195.745102762589	0.24827686282158
22	21808	195.993379625411	0.26400598695972
22	21830	196.257385612371	0.73406865153355
22	21867	196.991454263905	1.4173629211203
22	22134	198.408817185025	2.5987327941833
22	22513	201.007549979208	1.0557662366293
22	22594	202.063316215837	2.9213802743401
22	22795	204.984696490177	3.2918042673179
22	23278	208.276500757495	0.81094833704175
22	23356	209.087449094537	0.94666793283401
22	23472	210.034117027371	0.78610117143795
22	23518	210.820218198809	3.5361712936471
22	23802	214.356389492456	0.91421254758662
22	24051	215.270602040043	3.2946017768874
22	24514	218.56520381693	5.479572141602
22	25073	224.044775958532	4.7146445325027
22	25545	228.759420491035	1.1274467385491
22	25715	229.886867229584	1.3272825725455
22	25893	231.214149802129	1.2724876846482
22	25972	232.486637486777	0.18374058241671
22	25984	232.670378069194	4.2941835109229
22	26429	236.964561580117	5.3310987189267
22	27016	242.295660299044	2.103860541419
22	27147	244.399520840463	0.38360159500024
22	27273	244.783122435463	1.3431671725462
22	27458	246.126289608009	4.5668129971133
22	27952	250.693102605122	0.29072407100468
22	27973	250.983826676127	1.9683402106192
22	28072	252.952166886746	0.011111425950285
22	28073	252.963278312696	0.33623618195578
22	28209	253.299514494652	5.1587904734854
22	28733	258.458304968137	2.5076215027911
22	28967	260.965926470928	0.11063627367891
22	28973	261.076562744607	0.66731855873921
22	29124	261.743881303346	3.3040782502388
22	29503	265.047959553585	1.3729194774139
22	29593	266.420879030999	2.1183458971398
22	29792	268.539224928139	1.9564421446252
22	30090	270.495667072764	3.9217908546219
22	30464	274.417457927386	1.2914059949674
22	30595	275.708863922353	2.0556862804049
22	30706	277.764550202758	6.5419896066009
22	31416	284.306539809359	6.7834258758661
22	32190	291.089965685225	0.63130113932264
22	32281	291.721266824548	1.2462693513005
22	32419	292.967536175848	1.2148404752877
22	32499	294.182376651136	4.0638202529899
22	32962	298.246196904126	2.2274450380315
22	33193	300.473641942158	0.68849222663664
22	33260	301.162134168795	3.0743659516839
22	33489	304.236500120479	2.3790262417419
22	33839	306.615526362221	3.2811735826701
22	34208	309.896699944891	5.9470831524455
22	34851	315.843783097336	0.80341881899697
22	34883	316.647201916333	2.0086967185764
22	35090	318.655898634909	1.0399763727244
22	35178	319.695875007633	1.4082485550015
22	35365	321.104123562634	1.0018204326852
22	35412	322.105943995319	4.8324335683625
22	35976	326.938377563682	0.20457941708776
22	35997	327.14295698077	0.87941246944494
22	36054	328.022369450215	1.4961226652421
22	36122	329.518492115457	5.7322007108925
22	36838	335.250692826349	6.4802254558933
22	37427	341.730918282242	0.60561427787572
22	37605	342.336532560118	0.45046549483309
22	37693	342.786998054951	0.64682794870154
22	37717	343.433826003653	1.3629921527541
22	37973	344.796818156407	1.2332935197214
22	38064	346.030111676128	7.519408693365
22	38890	353.549520369493	0.060531405372927
22	38918	353.610051774866	0.091796423374468
22	38964	353.70184819824	2.2700353952953
22	39247	355.971883593535	0.48161730214203
22	39305	356.453500895677	1.8849436173338
22	39567	358.338444513011	0.16960846955916
22	39591	358.50805298257	2.0069230308747
22	39679	360.514976013445	0.028240176144182
22	39684	360.543216189589	0.77850334516752
22	39729	361.321719534757	0.26244881966323
22	39748	361.58416835442	5.9424367538547
22	40508	367.526605108275	3.6853459402986
22	40850	371.211951048574	0.83441640377501
22	41019	372.046367452349	0.8459122850834
22	41131	372.892279737432	1.0039875571828
22	41224	373.896267294615	2.5388191882291
22	41513	376.435086482844	9.0649531522795
22	42435	385.500039635123	3.4345862667725
22	42764	388.934625901896	0.25102437796207
22	42847	389.185650279858	3.3139209627878
22	43309	392.499571242646	3.7184189777995
22	43677	396.217990220445	2.5937164251074
22	43923	398.811706645552	0.30696087498188
22	43981	399.118667520534	0.029256972948429
22	43994	399.147924493482	0.40296111169807
22	44048	399.55088560518	1.4211186758806
23	1644	15.12502430315	3.2440018659352
23	1798	18.369026169085	7.9765924022226
23	2886	26.345618571308	0.89585319318953
23	2938	27.241471764498	0.072309626507027
23	2946	27.313781391005	1.580895435866
23	3014	28.894676826871	2.0638637544963
23	3422	30.958540581367	5.6036017497158
23	4046	36.562142331083	0.89158966672778
23	4096	37.453731997811	1.1833767103257
23	4253	38.637108708137	0.041204307810238
23	4256	38.678313015947	1.3314491181248
23	4336	40.009762134072	1.0599612264752
23	4407	41.069723360547	0.42262209730432
23	4611	41.492345457851	8.7957080799726
23	5485	50.288053537824	2.4183246993013
23	5812	52.706378237125	1.1793894972336
23	5954	53.885767734359	3.7175941367448
23	6333	57.603361871104	0.4346823965782
23	6356	58.038044267682	3.3244702587006
23	6724	61.362514526383	2.6837996855105
23	7064	64.046314211893	2.1126624442332
23	7286	66.158976656126	4.4088783594179
23	7859	70.567855015544	1.3731198868317
23	8007	71.940974902376	0.23121458974463
23	8030	72.172189492121	2.4322026626255
23	8290	74.604392154746	2.8942687968106
23	8574	77.498660951557	11.774546758832
23	9813	89.273207710389	5.2994719570389
23	10332	94.572679667428	0.33623411548279
23	10354	94.908913782911	0.00076594572858362
23	10355	94.90967972864	0.4766817900434
23	10381	95.386361518683	0.35140490403875
23	10490	95.737766422722	2.688392037495
23	10743	98.426158460217	0.95535684304821
23	10875	99.381515303265	0.71476715320989
23	10933	100.096282456475	3.206775209352
23	11295	103.303057665827	4.2897499596854
23	11828	107.592807625512	1.5946321875408
23	11937	109.187439813053	5.5791582812541
23	12501	114.766598094307	0.79929359230601
23	12665	115.565891686613	0.86211847038062
23	12777	116.428010156994	0.062465711690851
23	12783	116.490475868685	0.29685003619134
23	12795	116.787325904876	2.2107508492975
23	13040	118.998076754174	0.05582893816022
23	13043	119.053905692334	3.4666869828623
23	13375	122.520592675196	6.5073524165281
23	13857	129.027945091724	0.64271048772126
23	13945	129.670655579445	1.2684983925535
23	14298	130.939153971998	0.29440084061285
23	14357	131.233554812611	4.4127139680197
23	14835	135.646268780631	1.4968666611923
23	15043	137.143135441823	1.3257039128125
23	15132	138.468839354636	1.3320543914562
23	15324	139.800893746092	0.43772502163216
23	15373	140.238618767724	2.8929606868975
23	15711	143.131579454622	3.7152040485617
23	16101	146.846783503184	5.5705711160729
23	16855	152.417354619257	1.4506940256252
23	17009	153.868048644882	4.9309921814225
23	17458	158.799040826305	3.3045137762917
23	18000	162.103554602597	1.1721931830966
23	18099	163.275747785694	0.46523241289995
23	18178	163.740980198594	7.1323340007602
23	19019	170.873314199354	1.2765265417564
23	19202	172.14984074111	3.3974656043834
23	19585	175.547306345493	4.2092771744952
23	19847	179.756583519988	0.02645434652426
23	19848	179.783037866512	4.3749278072674
23	20588	184.157965673779	1.9671009377177
23	20848	186.125066611497	0.34429777992487
23	20856	186.469364391422	0.19151711822937
23	20872	186.660881509651	0.23503476566736
23	20887	186.895916275318	1.0438315300337
23	20933	187.939747805352	0.073376704048374
23	20939	188.0131245094	2.1735705945954
23	21194	190.186695103995	0.19117615677656
23	21197	190.377871260772	0.040180537147621
23	21204	190.41805179792	0.88576572147362
23	21370	191.303817519394	0.047727516133813
23	21381	191.351545035528	0.54861233767733
23	21451	191.900157373205	3.0404190943712
23	21746	194.940576467576	3.0225173430189
23	22115	197.963093810595	1.5007025762031
23	22308	199.463796386798	0.30371359936291
23	22375	199.767509986161	2.7190857698666
23	22605	202.486595756028	4.3964384922616
23	23077	206.88303424829	2.809304897986
23	23438	209.692339146276	2.9090546508661
23	23720	212.601393797142	0.17442975795491
23	23733	212.775823555097	2.8148783152164
23	24077	215.590701870313	0.60003842409179
23	24166	216.190740294405	0.2166487835383
23	24193	216.407389077943	2.523228245891
23	24528	218.930617323834	2.6630100533066
23	24863	221.593627377141	8.6950155525621
23	25763	230.288642929703	1.8021465294408
23	25961	232.090789459144	1.283204600475
23	26102	233.373994059619	0.36547537856081
23	26130	233.73946943818	3.0193076031874
23	26412	236.758777041367	0.17469375185475
23	26428	236.933470793222	6.9058319830185
23	27103	243.83930277624	5.7539366192969
23	27815	249.593239395537	0.8379685066207
23	27937	250.431207902158	1.9345276691802
23	28043	252.365735571338	0.22523391465314
23	28055	252.590969485991	0.34005765597023
23	28071	252.931027141961	0.25012468040941
23	28152	253.18115182237	5.3052303262254
23	28736	258.486382148595	0.63056729042854
23	28862	259.116949439024	0.78800400264212
23	28909	259.904953441666	0.94906956592581
23	28957	260.854023007592	0.29175152473203
23	28975	261.145774532324	1.5261780909865
23	29282	262.67195262331	3.4933139588418
23	29585	266.165266582152	1.5610423943284
23	29750	267.72630897648	0.81188735726888
23	29791	268.538196333749	0.25414566140444
23	29803	268.792341995153	1.0220081401425
23	29869	269.814350135295	1.0752563155957
23	30136	270.889606450891	0.95564541289144
23	30231	271.845251863782	0.70831417823706
23	30295	272.553566042019	1.1727735422427
23	30434	273.726339584262	0.46799179704789
23	30463	274.19433138131	2.8942875406593
23	30665	277.088618921969	0.79035457664345
23	30709	277.878973498612	1.8366211225483
23	30988	279.71559462116	2.2992748198578
23	31208	282.014869441018	9.2315466706315
23	32215	291.24641611165	4.7618804814197
23	32590	296.00829659307	2.0042418340784
23	32939	298.012538427148	0.098182648269298
23	32950	298.110721075417	3.2850552490563
23	33269	301.395776324473	0.6711306167673
23	33369	302.06690694124	1.1104450183391
23	33425	303.177351959579	0.38667188732515
23	33445	303.564023846904	2.225075020459
23	33742	305.789098867363	0.077394983432374
23	33744	305.866493850795	1.1403907126888
23	33916	307.006884563484	0.9794864275599
23	34030	307.986370991044	1.9653017637554
23	34219	309.951672754799	1.4468603030537
23	34346	311.398533057853	5.8673189207838
23	34905	317.265851978637	0.25595716502508
23	34930	317.521809143662	2.4356455407068
23	35187	319.957454684369	0.63172098035906
23	35265	320.589175664728	2.4234788968815
23	35465	323.01265456161	2.2359785752173
23	35780	325.248633136827	1.1113462332029
23	35900	326.35997937003	0.906451403101
23	36008	327.266430773131	2.7354731407156
23	36151	330.001903913847	1.5302970661345
23	36239	331.532200979981	4.4815589223637
23	36894	336.013759902345	0.52194737142954
23	36960	336.535707273775	0.34953678242646
23	37011	336.885244056201	1.1395892323498
23	37107	338.024833288551	0.12443251165288
23	37110	338.149265800204	2.2625842384815
23	37335	340.411850038685	1.7086746593688
23	37495	342.120524698054	1.5179957536511
23	37785	343.638520451705	1.6168715033016
23	37994	345.255391955007	1.7998845965348
23	38262	347.055276551542	0.13893589567595
23	38270	347.194212447218	2.4023047917775
23	38449	349.596517238995	3.4081934734156
23	38637	353.004710712411	5.9846209694168
23	39606	358.989331681828	0.34860194761168
23	39625	359.33793362944	8.2500402657873
23	40532	367.587973895227	3.0053958888674
23	40735	370.593369784094	0.14765482409272
23	40738	370.741024608187	1.5388057911198
23	41031	372.279830399307	2.4657448961034
23	41297	374.74557529541	1.5287122253464
23	41476	376.274287520756	1.6549330901934
23	41595	377.929220610949	1.6085047700529
23	41692	379.537725381002	2.0825902311171
23	42042	381.620315612119	0.42000340210488
23	42118	382.040319014224	0.68208494767707
23	42203	382.722403961901	0.44528607536205
23	42257	383.167690037263	7.0293363930429
23	43016	390.197026430306	0.57393387488542
23	43039	390.770960305191	0.11533174252275
23	43044	390.886292047714	0.44672316966523
23	43144	391.333015217379	9.9577836925731
24	2261	20.647858671329	5.4568991849188
24	2878	26.104757856248	0.19787952841112
24	2885	26.302637384659	2.3054997982742
24	3001	28.608137182933	0.90976590327193
24	3055	29.517903086205	2.0370770910192
24	3524	31.554980177224	0.17789201203214
24	3542	31.732872189256	0.2368744525085
24	3552	31.969746641765	3.7101010655279
24	3981	35.679847707293	0.071580817556199
24	3982	35.751428524849	0.92887866367473
24	4050	36.680307188524	2.3919983659341
24	4276	39.072305554458	1.7001571472499
24	4375	40.772462701708	0.11094528982954
24	4376	40.883407991538	2.7568551288227
24	4867	43.640263120361	5.0885634657929
24	5407	48.728826586154	0.2740495478778
24	5415	49.002876134032	0.26094187085901
24	5432	49.263818004891	1.8593111724955
24	5575	51.123129177386	0.60501262878742
24	5760	51.728141806173	2.9162801204132
24	6052	54.644421926586	0.44674839146361
24	6078	55.09117031805	1.4826264295237
24	6195	56.573796747574	2.4183742591037
24	6408	58.992171006678	4.2252784105373
24	7001	63.217449417215	1.7393798365383
24	7209	64.956829253753	2.6726177508559
24	7367	67.629447004609	0.20033458914051
24	7380	67.82978159375	1.0848187130412
24	7609	68.914600306791	0.46583009360669
24	7637	69.380430400398	6.4992445918405
24	8337	75.879674992239	1.5621670510911
24	8571	77.44184204333	2.3891860929328
24	8850	79.831028136263	1.9132545551034
24	9039	81.744282691366	0.87634480636874
24	9129	82.620627497735	0.14786579387558
24	9132	82.768493291611	1.2656502750647
24	9195	84.034143566676	4.0787645415459
24	9719	88.112908108222	0.36834611787822
24	9749	88.4812542261	2.051456721092
24	9941	90.532710947192	4.8180575010654
24	10378	95.350768448257	0.62676088837121
24	10531	95.977529336628	0.83062732473613
24	10612	96.808156661364	1.6791351885469
24	10746	98.487291849911	1.6935870262512
24	10939	100.180878876162	0.17973952738297
24	10950	100.360618403545	0.21906785247489
24	10962	100.57968625602	0.53749465614633
24	10982	101.117180912166	0.039660052668343
24	10985	101.156840964834	1.153108004839
24	11186	102.309948969673	3.5177386646863
24	11570	105.827687634359	1.3332328823078
24	11743	107.160920516667	0.61607614627273
24	11851	107.77699666294	1.2290708493529
24	11923	109.006067512293	0.42933784421729
24	11946	109.43540535651	1.1029343327258
24	12165	110.538339689236	1.1090117781319
24	12273	111.647351467368	1.9760811849671
24	12445	113.623432652335	6.5021987367866
24	13096	120.125631389122	2.5057491071361
24	13385	122.631380496258	5.9952425568429
24	13832	128.626623053101	0.22088057862983
24	13839	128.847503631731	0.85503499185712
24	13969	129.702538623588	1.493717570072
24	14356	131.19625619366	2.6108848487417
24	14586	133.807141042402	2.5565934742186
24	14884	136.363734516621	0.70984535661444
24	14978	137.073579873235	0.20096396288311
24	15060	137.274543836118	5.8338137192671
24	15710	143.108357555385	0.3413004269635
24	15727	143.449657982348	0.95308234657476
24	15847	144.402740328923	1.4945214219545
24	16039	145.897261750877	1.333632271819
24	16130	147.230894022696	3.5748386963351
24	16639	150.805732719031	5.806352158474
24	17339	156.612084877505	11.374497544095
24	18642	167.9865824216	1.6644558189512
24	18750	169.651038240551	0.41917208365401
24	18793	170.070210324205	1.3597157188063
24	19055	171.429926043011	3.4333988157239
24	19517	174.863324858735	0.39987118268576
24	19550	175.263196041421	1.1807071705451
24	19634	176.443903211966	0.70084931861749
24	19686	177.144752530583	0.044351960729891
24	19687	177.189104491313	0.22272942022815
24	19700	177.411833911541	0.36318711163341
24	19727	177.775021023174	0.56560451348599
24	19768	178.34062553666	0.17030584315704
24	19776	178.510931379817	0.31185598806487
24	19789	178.822787367882	2.281589342193
24	20237	181.104376710075	0.47531396490052
24	20277	181.579690674976	0.75645828547786
24	20365	182.336148960454	1.7351958182666
24	20584	184.071344778721	1.4336094502279
24	20737	185.504954228949	2.7959728205887
24	20953	188.300927049538	7.2758966088355
24	21795	195.576823658374	2.2328283143858
24	22040	197.80965197276	1.4348754879885
24	22282	199.244527460749	5.9294787882835
24	22807	205.174006249033	1.0719863937769
24	22954	206.24599264281	1.1444754995888
24	23111	207.390468142399	6.2561778439981
24	23775	213.646645986397	0.48506512734163
24	23791	214.131711113739	1.1616439934667
24	24056	215.293355107206	0.93171384802077
24	24172	216.225068955227	0.91014415870778
24	24300	217.135213113935	0.6409676810617
24	24406	217.776180794997	10.338487092828
24	25496	228.114667887825	2.8778610357436
24	25849	230.992528923569	2.9882237926113
24	26144	233.98075271618	0.029504153334422
24	26152	234.010256869514	7.97226229001
24	26998	241.982519159524	0.25923506499794
24	27013	242.241754224522	6.1474316940719
24	27765	248.389185918594	0.87504301587767
24	27803	249.264228934472	2.3007991042342
24	28008	251.565028038706	0.072521183637433
24	28015	251.637549222343	1.2179818223853
24	28068	252.855531044728	2.0620211220243
24	28404	254.917552166752	1.5257607089771
24	28623	256.443312875729	3.1568258911335
24	28896	259.600138766862	0.0061108071411756
24	28897	259.606249574003	0.68286938424542
24	28928	260.289118958248	1.7513464882102
24	29218	262.040465446458	5.7042760503974
24	29751	267.744741496855	0.74650185097548
24	29782	268.49124334783	1.5202347056316
24	29883	270.011478053462	4.9305485225461
24	30491	274.942026576008	2.9925404939077
24	30710	277.934567069916	0.48027529541116
24	30907	278.414842365327	0.80165578515596
24	30972	279.216498150483	1.1524855143925
24	31065	280.368983664875	2.7195489801478
24	31268	283.088532645023	0.052904441015377
24	31271	283.141437086038	0.037062667151875
24	31274	283.17849975319	5.3927769249996
24	31913	288.57127667819	3.4296806078443
24	32295	292.000957286034	4.3192461179147
24	32599	296.320203403949	1.3889008469937
24	32926	297.709104250943	3.6397115445651
24	33266	301.348815795508	0.55671898879122
24	33356	301.905534784299	0.25310669291341
24	33372	302.158641477212	0.47473415360444
24	33392	302.633375630816	0.054566126312502
24	33394	302.687941757129	0.22978736404241
24	33404	302.917729121171	3.8470244652525
24	33897	306.764753586423	1.1446799636247
24	34014	307.909433550048	0.13495573817898
24	34038	308.044389288227	1.5017824430251
24	34143	309.546171731252	4.0250136407853
24	34659	313.571185372037	0.84018977552258
24	34693	314.41137514756	3.5268462098555
24	35043	317.938221357416	0.85481403977227
24	35108	318.793035397188	1.497324102881
24	35217	320.290359500069	0.29554965128729
24	35261	320.585909151356	1.1659675307575
24	35396	321.751876682113	2.4952939625778
24	35643	324.247170644691	0.48920757668666
24	35697	324.736378221378	2.659567507635
24	36024	327.395945729013	4.2104479077963
24	36244	331.606393636809	6.1481986032739
24	37087	337.754592240083	0.47987284524747
24	37114	338.23446508533	5.343359810287
24	37754	343.577824895617	3.0801192453118
24	38203	346.657944140929	2.2822168859973
24	38406	348.940161026926	2.400881281658
24	38538	351.341042308584	1.689597563691
24	38648	353.030639872275	2.1357512384346
24	39146	355.16639111071	6.131135015074
24	39728	361.297526125784	1.7737819255092
24	39855	363.071308051293	1.599707154636
24	40265	364.671015205929	2.8057411531009
24	40493	367.47675635903	0.083323260726238
24	40526	367.560079619756	0.0089125139361545
24	40528	367.568992133692	0.19335001364693
24	40557	367.762342147339	1.1060792258544
24	40622	368.868421373193	0.97557514666721
24	40678	369.84399651986	0.15336209047552
24	40688	369.997358610336	4.5133600536908
24	41285	374.510718664027	2.0607311646736
24	41524	376.571449828701	0.88085118898372
24	41574	377.452301017685	1.2139556857941
24	41635	378.666256703479	5.8464641915589
24	42355	384.512720895038	1.7351686732991
24	42555	386.247889568337	0.94992200859793
24	42652	387.197811576935	2.6731717401724
24	42996	389.870983317107	0.14763134744772
24	43008	390.018614664555	0.66729972818942
24	43033	390.685914392744	3.0277720913155
24	43390	393.71368648406	3.6452216678965
24	43798	397.358908151956	0.20102969861434
24	43827	397.55993785057	0.30657492127886
24	43855	397.866512771849	2.519296255872

