file 1916616 1613479580                                         
version 2
run Exponential-capacity-37-20210216-13:46:19-10140
attr configname Exponential-capacity
attr datetime 20210216-13:46:19
attr experiment Exponential-capacity
attr inifile aerocom.ini
attr iterationvars "$0=2, $1=50, $2=0.5, $3=0.5"
attr iterationvarsf 2,50,0.5,0.5-
attr measurement "$0=2, $1=50, $2=0.5, $3=0.5"
attr network Aerocom
attr processid 10140
attr repetition 1
attr replication #1
attr resultdir results
attr runnumber 37
attr seedset 1
param **.t 2s
param **.k 50ms
param **.X 0.5s
param **.m 0.5s
param **.tDistribution "\"exponential\""
param **.operationMode 0
param **.s "70 byte"
param **.dimPoolMax 10000
param **.dimPoolMin 8000
param **.nDL 10
param **.nA 1
param **.DLMaxCapacity 0
param **.trasmitting false

vector 0 Aerocom.aircraft[0].dataLink[0] actualCapacity:vector ETV
attr "" ""
attr source computeActualCapacity
vector 1 Aerocom.aircraft[0].dataLink[1] actualCapacity:vector ETV
attr "" ""
attr source computeActualCapacity
vector 2 Aerocom.aircraft[0].dataLink[2] actualCapacity:vector ETV
attr "" ""
attr source computeActualCapacity
vector 3 Aerocom.aircraft[0].dataLink[3] actualCapacity:vector ETV
attr "" ""
attr source computeActualCapacity
vector 4 Aerocom.aircraft[0].dataLink[4] actualCapacity:vector ETV
attr "" ""
attr source computeActualCapacity
vector 5 Aerocom.aircraft[0].dataLink[5] actualCapacity:vector ETV
attr "" ""
attr source computeActualCapacity
vector 6 Aerocom.aircraft[0].dataLink[6] actualCapacity:vector ETV
attr "" ""
attr source computeActualCapacity
vector 7 Aerocom.aircraft[0].dataLink[7] actualCapacity:vector ETV
attr "" ""
attr source computeActualCapacity
vector 8 Aerocom.aircraft[0].dataLink[8] actualCapacity:vector ETV
attr "" ""
attr source computeActualCapacity
vector 9 Aerocom.aircraft[0].dataLink[9] actualCapacity:vector ETV
attr "" ""
attr source computeActualCapacity
vector 10 Aerocom.aircraft[0].linkSelector responseTime:vector ETV
attr "" ""
attr source computeResponseTime
vector 11 Aerocom.aircraft[0].dataLink[4] tDistribution:vector ETV
attr "" ""
attr source computeTDistribution
vector 12 Aerocom.aircraft[0].packetGenerator arrivalTime:vector ETV
attr "" ""
attr source computeArrivalTime
vector 13 Aerocom.aircraft[0].linkSelector waitingTime:vector ETV
attr "" ""
attr source computeWaitingTime
vector 14 Aerocom.aircraft[0].linkSelector queueLength:vector ETV
attr "" ""
attr source computeQueueLength
vector 15 Aerocom.aircraft[0].linkSelector serviceTime:vector ETV
attr "" ""
attr source computeServiceTime
vector 16 Aerocom.aircraft[0].dataLink[5] tDistribution:vector ETV
attr "" ""
attr source computeTDistribution
vector 17 Aerocom.aircraft[0].dataLink[0] tDistribution:vector ETV
attr "" ""
attr source computeTDistribution
vector 18 Aerocom.aircraft[0].dataLink[3] tDistribution:vector ETV
attr "" ""
attr source computeTDistribution
vector 19 Aerocom.aircraft[0].dataLink[7] tDistribution:vector ETV
attr "" ""
attr source computeTDistribution
vector 20 Aerocom.aircraft[0].dataLink[8] tDistribution:vector ETV
attr "" ""
attr source computeTDistribution
vector 21 Aerocom.aircraft[0].dataLink[6] tDistribution:vector ETV
attr "" ""
attr source computeTDistribution
vector 22 Aerocom.aircraft[0].dataLink[1] tDistribution:vector ETV
attr "" ""
attr source computeTDistribution
vector 23 Aerocom.aircraft[0].dataLink[2] tDistribution:vector ETV
attr "" ""
attr source computeTDistribution
vector 24 Aerocom.aircraft[0].dataLink[9] tDistribution:vector ETV
attr "" ""
attr source computeTDistribution
0	3622 36819 1231 44502 10 400 1515 8034 9978 14030800 130331627012
1	40441 45162 1231 44502 10 400 1790 8007 9963 16809924 158234519260
2	85603 34551 1231 44502 10 400 1444 8026 9987 13357808 123980186572
3	120154 41931 1231 44502 10 400 1681 8027 9994 15703194 147093511108
4	162085 36992 1231 44502 10 400 1524 8071 9978 14262538 133807178962
5	199077 41984 1231 44502 10 400 1673 8006 9991 15673854 147275176362
6	241061 48786 1231 44502 10 400 1902 8051 9953 17940296 169661646672
7	289847 26971 1231 44502 10 400 1190 8030 9974 10890890 99963201500
8	316818 30405 1231 44502 10 400 1302 8057 9984 12017361 111267782023
9	347223 37591 1231 44502 10 400 1547 8030 9955 14409251 134603353331
10	384814 320843 1233 44499 10.000738182012 399.974057282528 7759 0.007004202522 0.024543215002 60.618254160121 0.4962986819667
11	705657 8514 1236 44496 10.008446666375 399.870380511634 199 0.0033603599120588 10.106333391988 390.75769115755 1518.7517887913
12	714171 320741 1237 44497 10.070387184435 399.966895424537 7758 1.3484563e-005 0.53076813277 390.00950041313 38.629752309698
13	1034912 234445 1238 44498 10.070387184435 399.966895424537 7758 0 0.016874503346 4.324318194512 0.024746344188017
14	1269357 220686 1238 44498 10.070387184435 399.966895424537 7758 0 2 90 96
15	1490043 351601 1238 44498 10.070387184435 399.966895424537 7758 0.0070042025215129 0.0086398420143175 56.286116484202 0.4086131686805
16	1841644 7852 1252 44211 10.133371691378 397.304643787351 183 0.0023472923247129 9.3751301661525 391.24557991949 1543.7139629357
17	1849496 8315 1330 44327 10.758038181612 398.241773057449 193 0.0080597886991908 13.025708690729 390.76032194151 1769.7595019644
18	1857811 8545 1341 44380 11.127954469804 398.670927787943 200 0.0069808127565423 11.419464956956 389.60755438025 1445.3369397577
19	1866356 8453 1388 44420 11.354734675934 399.105386876356 198 0.0032870399373807 10.315111120675 390.42944208713 1433.7465853774
20	1874809 9177 1483 44249 12.459058151596 397.589374528803 214 0.00443334045868 10.343693525315 388.25726836577 1338.915195965
21	1883986 7925 1669 44273 14.571096670862 397.785445506249 185 0.0072170719136642 11.488160070868 388.69826292889 1534.857858681
22	1891911 8588 1738 44470 15.084597042849 399.55088560518 201 0.009831087575049 9.0649531522795 385.88740723821 1405.0819356417
23	1900499 7896 1739 43549 15.12502430315 391.333015217379 184 0.00076594572858362 11.774546758832 386.1657746068 1677.6481436889
24	1908395 8219 2323 44274 20.647858671329 397.866512771849 192 0.0061108071411756 11.374497544095 379.73795035639 1513.2746863536

