version 2
run Exponential-capacity-7-20210215-11:02:29-10844
attr configname Exponential-capacity
attr datetime 20210215-11:02:29
attr experiment Exponential-capacity
attr inifile aerocom.ini
attr iterationvars "$0=35, $1=2"
attr iterationvarsf 35,2-
attr measurement "$0=35, $1=2"
attr network Aerocom
attr processid 10844
attr repetition 0
attr replication #0
attr resultdir results
attr runnumber 7
attr seedset 0
param **.t 1s
param **.k 35ms
param **.X 0.4s
param **.m 2s
param **.tDistribution "\"exponential\""
param **.operationMode 0
param **.s "70 byte"
param **.dimPoolMax 10000
param **.dimPoolMin 8000
param **.nDL 1
param **.nA 1
param **.DLMaxCapacity 0
param **.trasmitting false

scalar Aerocom.aircraft[0].linkSelector responseTime:mean 0.051168638153401
attr "" ""
attr source computeResponseTime
scalar Aerocom.aircraft[0].linkSelector meanMalus:sum 895.99999999997
attr "" ""
attr source computeMeanMalus
scalar Aerocom.aircraft[0].linkSelector waitingTime:mean 0.043343250042024
attr "" ""
attr source computeWaitingTime
scalar Aerocom.aircraft[0].linkSelector serviceTime:mean 0.0078253881113801
attr "" ""
attr source computeServiceTime
scalar Aerocom.aircraft[0].linkSelector queueLength:mean 1.2267536704731
attr "" ""
attr source computeQueueLength
scalar Aerocom.aircraft[0].dataLink[0] sentPackets:count 11034
attr source computeSentPackets
scalar Aerocom.aircraft[0].dataLink[0] actualCapacity:mean 8969.3385574354
attr "" ""
attr source computeActualCapacity
scalar Aerocom.controlTower receivedPackets:count 11034
attr source computeReceivedPackets

