file 1947110 1613479584                                         
version 2
run Exponential-capacity-42-20210216-13:46:24-14672
attr configname Exponential-capacity
attr datetime 20210216-13:46:24
attr experiment Exponential-capacity
attr inifile aerocom.ini
attr iterationvars "$0=2, $1=50, $2=4, $3=0.5"
attr iterationvarsf 2,50,4,0.5-
attr measurement "$0=2, $1=50, $2=4, $3=0.5"
attr network Aerocom
attr processid 14672
attr repetition 0
attr replication #0
attr resultdir results
attr runnumber 42
attr seedset 0
param **.t 2s
param **.k 50ms
param **.X 4s
param **.m 0.5s
param **.tDistribution "\"exponential\""
param **.operationMode 0
param **.s "70 byte"
param **.dimPoolMax 10000
param **.dimPoolMin 8000
param **.nDL 10
param **.nA 1
param **.DLMaxCapacity 0
param **.trasmitting false

vector 0 Aerocom.aircraft[0].dataLink[0] actualCapacity:vector ETV
attr "" ""
attr source computeActualCapacity
vector 1 Aerocom.aircraft[0].dataLink[1] actualCapacity:vector ETV
attr "" ""
attr source computeActualCapacity
vector 2 Aerocom.aircraft[0].dataLink[2] actualCapacity:vector ETV
attr "" ""
attr source computeActualCapacity
vector 3 Aerocom.aircraft[0].dataLink[3] actualCapacity:vector ETV
attr "" ""
attr source computeActualCapacity
vector 4 Aerocom.aircraft[0].dataLink[4] actualCapacity:vector ETV
attr "" ""
attr source computeActualCapacity
vector 5 Aerocom.aircraft[0].dataLink[5] actualCapacity:vector ETV
attr "" ""
attr source computeActualCapacity
vector 6 Aerocom.aircraft[0].dataLink[6] actualCapacity:vector ETV
attr "" ""
attr source computeActualCapacity
vector 7 Aerocom.aircraft[0].dataLink[7] actualCapacity:vector ETV
attr "" ""
attr source computeActualCapacity
vector 8 Aerocom.aircraft[0].dataLink[8] actualCapacity:vector ETV
attr "" ""
attr source computeActualCapacity
vector 9 Aerocom.aircraft[0].dataLink[9] actualCapacity:vector ETV
attr "" ""
attr source computeActualCapacity
vector 10 Aerocom.aircraft[0].packetGenerator arrivalTime:vector ETV
attr "" ""
attr source computeArrivalTime
vector 11 Aerocom.aircraft[0].linkSelector waitingTime:vector ETV
attr "" ""
attr source computeWaitingTime
vector 12 Aerocom.aircraft[0].linkSelector queueLength:vector ETV
attr "" ""
attr source computeQueueLength
vector 13 Aerocom.aircraft[0].linkSelector serviceTime:vector ETV
attr "" ""
attr source computeServiceTime
vector 14 Aerocom.aircraft[0].linkSelector responseTime:vector ETV
attr "" ""
attr source computeResponseTime
vector 15 Aerocom.aircraft[0].dataLink[1] tDistribution:vector ETV
attr "" ""
attr source computeTDistribution
vector 16 Aerocom.aircraft[0].dataLink[2] tDistribution:vector ETV
attr "" ""
attr source computeTDistribution
vector 17 Aerocom.aircraft[0].dataLink[7] tDistribution:vector ETV
attr "" ""
attr source computeTDistribution
vector 18 Aerocom.aircraft[0].dataLink[5] tDistribution:vector ETV
attr "" ""
attr source computeTDistribution
vector 19 Aerocom.aircraft[0].dataLink[0] tDistribution:vector ETV
attr "" ""
attr source computeTDistribution
vector 20 Aerocom.aircraft[0].dataLink[8] tDistribution:vector ETV
attr "" ""
attr source computeTDistribution
vector 21 Aerocom.aircraft[0].dataLink[9] tDistribution:vector ETV
attr "" ""
attr source computeTDistribution
vector 22 Aerocom.aircraft[0].dataLink[3] tDistribution:vector ETV
attr "" ""
attr source computeTDistribution
vector 23 Aerocom.aircraft[0].dataLink[4] tDistribution:vector ETV
attr "" ""
attr source computeTDistribution
vector 24 Aerocom.aircraft[0].dataLink[6] tDistribution:vector ETV
attr "" ""
attr source computeTDistribution
0	3614 41314 1099 43251 10 400 1679 8007 9963 15689844 147063678314
1	44928 39933 1099 43251 10 400 1629 8034 9938 15263929 143362838107
2	84861 41332 1099 43251 10 400 1665 8018 9977 15496852 144687192040
3	126193 38441 1099 43251 10 400 1585 8019 9972 14925682 140917283508
4	164634 35143 1099 43251 10 400 1471 8021 9963 13532609 124895194849
5	199777 36164 1099 43251 10 400 1499 8016 9986 13916381 129568948003
6	235941 27443 1099 43251 10 400 1218 8055 9957 11217394 103655863128
7	263384 32327 1099 43251 10 400 1368 8015 9987 12624705 116901375859
8	295711 43556 1099 43251 10 400 1752 8033 9993 16507996 155938880250
9	339267 39327 1099 43251 10 400 1610 8020 9954 15017056 140498915962
10	378594 317813 1100 43249 10.005245567619 399.990973989844 7687 2.767595e-006 0.511624106208 390.00681941603 39.585679544771
11	696407 286087 1102 43226 10.007137030995 399.5 7666 0 3.85849482218 4050.433216062 5231.275086089
12	982494 217819 1102 43226 10.007137030995 399.5 7666 0 80 78614 2023464
13	1200313 344089 1102 43226 10.007137030995 399.5 7666 0.0070049034324027 0.0086665841277702 55.568266897567 0.40304201554669
14	1544402 316926 1103 43228 10.014425660733 399.507172131148 7666 0.007009813739 3.86572548017 4106.0014829594 5290.3635551842
15	1861328 7917 1116 43038 10.108197594216 398.088369796402 185 0.0066820356987456 12.73031428991 396.86298794996 1623.8347515601
16	1869245 8916 1117 43009 10.118477058203 397.558805043633 208 0.0041287413231739 10.183260310139 395.22270641998 1456.7542704876
17	1878161 9228 1133 43210 10.33332325754 399.333067430601 215 0.00077673227493106 10.576838072839 389.79085381369 1482.1836615119
18	1887389 8609 1194 43236 10.906402754895 399.686148362669 202 0.0049710174278149 10.878397109943 389.80983006386 1506.3173147908
19	1895998 8781 1212 43235 11.154402806452 399.568904735542 205 0.026650848306815 8.9434407592357 391.98412032014 1363.8043493512
20	1904779 7641 1237 43047 11.548798313583 398.231772090748 179 0.00024718362899742 15.502404790664 390.4007084239 1835.4558401444
21	1912420 8267 1276 43035 11.840764687096 398.015447176651 193 0.0051718301887234 13.008934958902 388.53607179952 1591.3147854771
22	1920687 9175 1313 42909 12.351795081565 396.748910847202 214 0.0037688641377702 8.7330713792533 391.09610518445 1399.6917749019
23	1929862 9737 1343 42756 12.816289886563 395.483655140687 227 0.00093716124287715 8.9792967001633 388.75865197493 1334.0402886836
24	1939599 7509 2048 43041 19.157218708739 398.124100143442 175 0.0030838470345357 14.577784375094 384.36506644851 1855.2118041636

