file 10010932 1613553641                                        
version 2
run Exponential-capacity-0-20210217-10:20:39-5772
attr configname Exponential-capacity
attr datetime 20210217-10:20:39
attr experiment Exponential-capacity
attr inifile aerocom.ini
attr iterationvars "$0=9, $1=0.7"
attr iterationvarsf 9,0.7-
attr measurement "$0=9, $1=0.7"
attr network Aerocom
attr processid 5772
attr repetition 0
attr replication #0
attr resultdir results
attr runnumber 0
attr seedset 0
param **.t 3s
param **.k 9ms
param **.X 0.5s
param **.m 0.7s
param **.tDistribution "\"exponential\""
param **.operationMode 0
param **.s "70 byte"
param **.dimPoolMax 10000
param **.dimPoolMin 8000
param **.nDL 10
param **.nA 1
param **.DLMaxCapacity 0
param **.trasmitting false

vector 0 Aerocom.aircraft[0].packetGenerator arrivalTime:vector ETV
attr "" ""
attr source computeArrivalTime
vector 1 Aerocom.aircraft[0].linkSelector responseTime:vector ETV
attr "" ""
attr source computeResponseTime
vector 2 Aerocom.aircraft[0].linkSelector waitingTime:vector ETV
attr "" ""
attr source computeWaitingTime
vector 3 Aerocom.aircraft[0].linkSelector queueLength:vector ETV
attr "" ""
attr source computeQueueLength
vector 4 Aerocom.aircraft[0].dataLink[6] actualCapacity:vector ETV
attr "" ""
attr source computeActualCapacity
vector 5 Aerocom.aircraft[0].linkSelector serviceTime:vector ETV
attr "" ""
attr source computeServiceTime
vector 6 Aerocom.aircraft[0].dataLink[4] tDistribution:vector ETV
attr "" ""
attr source computeTDistribution
vector 7 Aerocom.aircraft[0].dataLink[6] tDistribution:vector ETV
attr "" ""
attr source computeTDistribution
vector 8 Aerocom.aircraft[0].dataLink[1] tDistribution:vector ETV
attr "" ""
attr source computeTDistribution
vector 9 Aerocom.aircraft[0].dataLink[0] actualCapacity:vector ETV
attr "" ""
attr source computeActualCapacity
vector 10 Aerocom.aircraft[0].dataLink[1] actualCapacity:vector ETV
attr "" ""
attr source computeActualCapacity
vector 11 Aerocom.aircraft[0].dataLink[2] actualCapacity:vector ETV
attr "" ""
attr source computeActualCapacity
vector 12 Aerocom.aircraft[0].dataLink[3] actualCapacity:vector ETV
attr "" ""
attr source computeActualCapacity
vector 13 Aerocom.aircraft[0].dataLink[4] actualCapacity:vector ETV
attr "" ""
attr source computeActualCapacity
vector 14 Aerocom.aircraft[0].dataLink[5] actualCapacity:vector ETV
attr "" ""
attr source computeActualCapacity
vector 15 Aerocom.aircraft[0].dataLink[7] actualCapacity:vector ETV
attr "" ""
attr source computeActualCapacity
vector 16 Aerocom.aircraft[0].dataLink[8] actualCapacity:vector ETV
attr "" ""
attr source computeActualCapacity
vector 17 Aerocom.aircraft[0].dataLink[9] actualCapacity:vector ETV
attr "" ""
attr source computeActualCapacity
vector 18 Aerocom.aircraft[0].dataLink[5] tDistribution:vector ETV
attr "" ""
attr source computeTDistribution
vector 19 Aerocom.aircraft[0].dataLink[8] tDistribution:vector ETV
attr "" ""
attr source computeTDistribution
vector 20 Aerocom.aircraft[0].dataLink[0] tDistribution:vector ETV
attr "" ""
attr source computeTDistribution
vector 21 Aerocom.aircraft[0].dataLink[2] tDistribution:vector ETV
attr "" ""
attr source computeTDistribution
vector 22 Aerocom.aircraft[0].dataLink[7] tDistribution:vector ETV
attr "" ""
attr source computeTDistribution
vector 23 Aerocom.aircraft[0].dataLink[9] tDistribution:vector ETV
attr "" ""
attr source computeTDistribution
vector 24 Aerocom.aircraft[0].dataLink[3] tDistribution:vector ETV
attr "" ""
attr source computeTDistribution
1	3580 1342486 6400 197115 10.006204639219 301.879708537415 32768 0.007009111845 1.279065116542 6585.8454360115 4039.3291655181
0	1346066 1342301 6398 197151 10.005231214764 301.895187569655 32768 3.6099e-008 0.096500924816 291.90165072413 5.2073499154391
2	2688367 1242301 6400 197152 10.006204639219 301.895187569655 32768 0 1.271771930462 6348.0043548287 3945.3015485682
3	3930668 933099 6400 197152 10.006204639219 301.895187569655 32768 0 165 712661 50142367
5	4863767 1472750 6400 197152 10.006204639219 301.895187569655 32768 0.0070056044835869 0.0087021382396818 237.83492327831 1.7276985817024
0	6336517 446673 197167 259469 301.906881938898 399.984749715246 10690 2.075485e-006 0.093155895855 98.130373617798 1.8051015975744
1	6783190 446721 197125 259476 301.886348202665 399.992294444714 10692 0.007020359041 1.256523161873 1853.2262445354 1018.9791577138
2	7229911 411669 197168 259470 301.906881938898 399.984749715246 10690 0 1.249293250698 1775.4461247038 992.51287012886
3	7641580 312512 197168 259470 301.906881938898 399.984749715246 10690 0 127 191933 11641223
4	7954092 126551 6400 259331 10.006204639219 399.7 4241 8071 9955 40490600 387168525264
5	8080643 489081 197168 259470 301.906881938898 399.984749715246 10690 0.007018951168154 0.0086698043101313 77.765910961243 0.56603512121192
6	8569724 6583 6524 257621 10.203684607688 397.281470896017 155 0.010739517205868 10.933740481042 391.20523465692 1867.3384032852
7	8576307 5457 6562 259239 10.276687748401 399.582664491057 128 0.0046257705518035 21.866676562641 394.65348847132 2680.3533415531
8	8581764 5085 6612 259255 10.379485951627 399.598350968059 120 0.010023053548118 19.095471434865 392.76340000707 2407.0567308421
9	8586849 170100 6678 259331 10.5 399.7 5631 8024 9961 54156752 521514503294
10	8756949 183665 6678 259331 10.5 399.7 5841 8083 9921 55795272 533555223284
11	8940614 106974 6678 259331 10.5 399.7 3521 8018 9978 33505225 319326806995
12	9047588 128371 6678 259331 10.5 399.7 4211 8044 9951 40409943 388234569769
13	9175959 134381 6678 259331 10.5 399.7 4388 8020 9966 41730033 397751129597
14	9310340 151624 6678 259331 10.5 399.7 4874 8033 9986 46488043 443904975255
15	9461964 145858 6678 259331 10.5 399.7 4673 8022 9987 44525611 424978767125
16	9607822 183711 6678 259331 10.5 399.7 5922 8032 9992 57226879 553582194677
17	9791533 179095 6678 259470 10.5 399.984749715246 5726 8062 9952 54872208 526532495804
18	9970628 6332 6686 259077 10.512701937009 399.26724886852 146 0.0074565261417224 13.460148239681 393.83660967434 2049.2077779932
19	9976960 4770 6955 255317 11.360882962893 393.499445083393 110 0.00037077544349613 23.253607185995 395.47160748284 3033.4957189197
20	9981730 5777 7466 257252 11.986246086418 396.616178795411 133 0.039976272460222 11.530792426723 388.43385299836 2058.0400242859
21	9987507 5927 7650 256615 12.109370541993 395.436018372776 136 0.0061931119847609 15.274890465208 389.19202620404 2037.979323136
22	9993434 5703 7817 258866 12.313726549034 398.971737981676 131 0.029300814333314 15.865257109258 388.93846333758 2425.3017972606
23	9999137 5614 8367 259114 13.034736668212 399.363504255394 129 0.0077577452830852 19.513402438353 388.62563507912 2515.9534008334
24	10004751 6179 11580 258596 18.527692622347 398.597767503948 142 0.0056532962066554 13.09960706888 383.31012451243 1994.1847888339

