file 5877545 1613553647                                         
version 2
run Exponential-capacity-7-20210217-10:20:45-8492
attr configname Exponential-capacity
attr datetime 20210217-10:20:45
attr experiment Exponential-capacity
attr inifile aerocom.ini
attr iterationvars "$0=15, $1=3.5"
attr iterationvarsf 15,3.5-
attr measurement "$0=15, $1=3.5"
attr network Aerocom
attr processid 8492
attr repetition 0
attr replication #0
attr resultdir results
attr runnumber 7
attr seedset 0
param **.t 3s
param **.k 15ms
param **.X 0.5s
param **.m 3.5s
param **.tDistribution "\"exponential\""
param **.operationMode 0
param **.s "70 byte"
param **.dimPoolMax 10000
param **.dimPoolMin 8000
param **.nDL 10
param **.nA 1
param **.DLMaxCapacity 0
param **.trasmitting false

vector 0 Aerocom.aircraft[0].linkSelector responseTime:vector ETV
attr "" ""
attr source computeResponseTime
vector 1 Aerocom.aircraft[0].packetGenerator arrivalTime:vector ETV
attr "" ""
attr source computeArrivalTime
vector 2 Aerocom.aircraft[0].linkSelector waitingTime:vector ETV
attr "" ""
attr source computeWaitingTime
vector 3 Aerocom.aircraft[0].linkSelector queueLength:vector ETV
attr "" ""
attr source computeQueueLength
vector 4 Aerocom.aircraft[0].dataLink[1] actualCapacity:vector ETV
attr "" ""
attr source computeActualCapacity
vector 5 Aerocom.aircraft[0].linkSelector serviceTime:vector ETV
attr "" ""
attr source computeServiceTime
vector 6 Aerocom.aircraft[0].dataLink[4] tDistribution:vector ETV
attr "" ""
attr source computeTDistribution
vector 7 Aerocom.aircraft[0].dataLink[6] tDistribution:vector ETV
attr "" ""
attr source computeTDistribution
vector 8 Aerocom.aircraft[0].dataLink[1] tDistribution:vector ETV
attr "" ""
attr source computeTDistribution
vector 9 Aerocom.aircraft[0].dataLink[0] actualCapacity:vector ETV
attr "" ""
attr source computeActualCapacity
vector 10 Aerocom.aircraft[0].dataLink[2] actualCapacity:vector ETV
attr "" ""
attr source computeActualCapacity
vector 11 Aerocom.aircraft[0].dataLink[3] actualCapacity:vector ETV
attr "" ""
attr source computeActualCapacity
vector 12 Aerocom.aircraft[0].dataLink[4] actualCapacity:vector ETV
attr "" ""
attr source computeActualCapacity
vector 13 Aerocom.aircraft[0].dataLink[5] actualCapacity:vector ETV
attr "" ""
attr source computeActualCapacity
vector 14 Aerocom.aircraft[0].dataLink[6] actualCapacity:vector ETV
attr "" ""
attr source computeActualCapacity
vector 15 Aerocom.aircraft[0].dataLink[7] actualCapacity:vector ETV
attr "" ""
attr source computeActualCapacity
vector 16 Aerocom.aircraft[0].dataLink[8] actualCapacity:vector ETV
attr "" ""
attr source computeActualCapacity
vector 17 Aerocom.aircraft[0].dataLink[9] actualCapacity:vector ETV
attr "" ""
attr source computeActualCapacity
vector 18 Aerocom.aircraft[0].dataLink[5] tDistribution:vector ETV
attr "" ""
attr source computeTDistribution
vector 19 Aerocom.aircraft[0].dataLink[8] tDistribution:vector ETV
attr "" ""
attr source computeTDistribution
vector 20 Aerocom.aircraft[0].dataLink[0] tDistribution:vector ETV
attr "" ""
attr source computeTDistribution
vector 21 Aerocom.aircraft[0].dataLink[2] tDistribution:vector ETV
attr "" ""
attr source computeTDistribution
vector 22 Aerocom.aircraft[0].dataLink[7] tDistribution:vector ETV
attr "" ""
attr source computeTDistribution
vector 23 Aerocom.aircraft[0].dataLink[9] tDistribution:vector ETV
attr "" ""
attr source computeTDistribution
vector 24 Aerocom.aircraft[0].dataLink[3] tDistribution:vector ETV
attr "" ""
attr source computeTDistribution
0	3584 1069049 3343 145286 10.002575406365 399.968312630494 26190 0.007005604484 0.550318714043 1531.5471111069 458.24591066784
1	1072633 1068994 3346 145284 10.020364233319 399.960743426342 26189 3.00452e-007 0.160834874694 389.99668517737 11.590851499697
2	2141627 920942 3347 145285 10.020364233319 399.960743426342 26189 0 0.542875864495 1337.3731327287 437.31521837276
3	3062569 734405 3347 145285 10.020364233319 399.960743426342 26189 0 47 91011 2120423
4	3796974 115064 3347 144882 10.020364233319 399 3730 8083 9921 35344873 335502378235
5	3912038 1172761 3347 145285 10.020364233319 399.960743426342 26189 0.0070056044835869 0.0087238285144566 194.16546148608 1.4427907406131
6	5084799 6533 3422 144170 10.203684607688 397.281470896017 155 0.010739517205868 10.933740481042 391.20523465692 1867.3384032852
7	5091332 5410 3461 145137 10.276687748401 399.582664491057 128 0.0046257705518035 21.866676562641 394.65348847132 2680.3533415531
8	5096742 5041 3493 145146 10.379485951627 399.598350968059 120 0.010023053548118 19.095471434865 392.76340000707 2407.0567308421
9	5101783 106007 3544 144882 10.5 399 3470 8066 9904 32743608 309650705198
10	5207790 54610 3544 144882 10.5 399 1755 8018 9887 16607930 157392285302
11	5262400 74726 3544 144882 10.5 399 2396 8044 9933 22642717 214324479505
12	5337126 83060 3544 144882 10.5 399 2670 8023 9960 24733625 230048073675
13	5420186 70907 3544 144882 10.5 399 2236 8089 9986 21033867 198295609663
14	5491093 68444 3544 144882 10.5 399 2203 8095 9978 20734763 195607400381
15	5559537 79508 3544 145285 10.5 399.960743426342 2518 8040 9987 23607981 221850080701
16	5639045 82768 3544 144882 10.5 399 2687 8032 9992 26084336 253353793666
17	5721813 115742 3544 144882 10.5 399 3644 8103 9935 34317419 323824877167
18	5837555 6289 3545 144993 10.512701937009 399.26724886852 146 0.0074565261417224 13.460148239681 393.83660967434 2049.2077779932
19	5843844 4737 3820 142716 11.360882962893 393.499445083393 110 0.00037077544349613 23.253607185995 395.47160748284 3033.4957189197
20	5848581 5729 4041 143910 11.986246086418 396.616178795411 133 0.039976272460222 11.530792426723 388.43385299836 2058.0400242859
21	5854310 5874 4085 143472 12.109370541993 395.436018372776 136 0.0061931119847609 15.274890465208 389.19202620404 2037.979323136
22	5860184 5658 4186 144863 12.313726549034 398.971737981676 131 0.029300814333314 15.865257109258 388.93846333758 2425.3017972606
23	5865842 5573 4428 145040 13.034736668212 399.363504255394 129 0.0077577452830852 19.513402438353 388.62563507912 2515.9534008334
24	5871415 6128 6202 144671 18.527692622347 398.597767503948 142 0.0056532962066554 13.09960706888 383.31012451243 1994.1847888339

