file 32024540 1609663425                                        
version 2
run Exponential-selection-capacity-exponential-interarrival-time-0-20210103-09:43:34-12448
attr configname Exponential-selection-capacity-exponential-interarrival-time
attr datetime 20210103-09:43:34
attr experiment Exponential-selection-capacity-exponential-interarrival-time
attr inifile aerocom.ini
attr iterationvars $0=0.5
attr iterationvarsf 0.5-
attr measurement $0=0.5
attr network Aerocom
attr processid 12448
attr repetition 0
attr replication #0
attr resultdir results
attr runnumber 0
attr seedset 0
param **.t 0.5s
param **.k 0.5s
param **.dataLink[*].s "70 byte"
param **.dataLink[*].X 0.5
param **.nDL 1
param **.dataLink[*].dimPoolMax 100
param **.dataLink[*].dimPoolMin 10
param **.tDistribution "\"exponential\""
param **.aircraft[*].m 1s
param **.aircraft[*].linkSelector.DLMaxCapacity 0
param **.aircraft[*].linkSelector.trasmitting false
param **.operationMode 0

vector 0 Aerocom.aircraft[0].dataLink[0] queueLength:vector ETV
attr "" ""
attr source computeQueueLength
vector 1 Aerocom.aircraft[0].dataLink[0] waitingTime:vector ETV
attr "" ""
attr source computeWaitingTime
vector 2 Aerocom.aircraft[0].dataLink[0] responseTime:vector ETV
attr "" ""
attr source computeResponseTime
0	1253 1013268 149073 391593 10000.335380543637 26319.464179132675 32768 0 21 72252 445778
1	1014521 1293791 149073 391624 10000.335380543637 26322 32768 -3e-012 9.88729229826 36113.259967957 97758.024704505
2	2308312 1315399 149073 391624 10000.335380543637 26322 32768 -3e-012 12.628930621122 61755.259967957 211669.97997083
0	3623711 1013397 391605 633687 26320.654348163831 42626.805892038358 32768 0 26 77950 508116
1	4637108 1306216 391642 633723 26323.75197406878 42628.305892038358 32768 -6e-012 10.769972200352 38964.488295395 112528.19793143
2	5943324 1331805 391642 633723 26323.75197406878 42628.305892038358 32768 -6e-012 13.259042643167 64519.488295396 232413.01679052
0	7275129 1013255 633694 875619 42626.988541140419 58847.523085822318 32768 0 21 72789 448275
1	8288384 1307320 633728 875660 42628.813660135932 58850.5 32768 -4e-012 9.00549579349 36474.290954095 99266.350070871
2	9595704 1334964 633728 875660 42628.813660135932 58850.5 32768 -4e-012 14.802964641919 62450.290954096 216914.91063448
0	10930668 1029637 875626 1118760 58848.041532348462 75301.923510937212 32768 0 24 75252 493472
1	11960305 1327176 875662 1118760 58850.5 75301.923510937212 32768 -1.2e-011 12.319442655237 37563.801404516 108677.03058272
2	13287481 1356249 875662 1118760 58850.5 75301.923510937212 32768 -1.2e-011 14.748784388377 63077.801404516 226648.16646771
0	14643730 1046158 1118769 1362025 75302.243373671363 91769.385324265298 32768 0 27 75026 492716
1	15689888 1344402 1118769 1362044 75302.243373671363 91771.472951827426 32768 -8e-012 10.365456744992 37918.368493891 109261.40445321
2	17034290 1374438 1118769 1362044 75302.243373671363 91771.472951827426 32768 -8e-012 12.994918236787 63628.368493891 227503.65487755
0	18408728 1062577 1362030 1605443 91770.205778160665 108287.039274660405 32768 0 23 71187 433225
1	19471305 1358777 1362046 1605443 91771.5 108287.039274660405 32768 -8e-012 10.517726738624 35663.570265858 96994.46351237
2	20830082 1389044 1362046 1605443 91771.5 108287.039274660405 32768 -8e-012 13.802578730439 60803.570265858 206534.21486878
0	22219126 1078950 1605449 1848301 108287.34256221346 124656.625134461921 32768 0 27 74415 495151
1	23298076 1376734 1605453 1848333 108287.5 124659.975641778452 32768 -8e-012 12.526807868361 37326.438042976 108141.07541924
2	24674810 1406038 1605453 1848333 108287.5 124659.975641778452 32768 -8e-012 14.189238136464 62344.438042975 220957.17663927
0	26080848 1078841 1848309 2092380 124657.390967877016 141264.539999955219 32768 0 26 72007 453995
1	27159689 1380732 1848347 2092395 124661.01652816388 141265.842080517235 32768 -2.4e-011 13.135483810003 36571.111177647 102618.07071194
2	28540421 1409453 1848347 2092395 124661.01652816388 141265.842080517235 32768 -2.4e-011 14.430969884624 62119.111177646 216915.60623318
0	29949874 577517 2092386 2222161 141265.128028657286 149999.848571743832 17535 0 28 41991 287583
1	30527391 741304 2092397 2222145 141265.842080517235 149998.912617570461 17522 -2.4e-011 9.691636623483 20679.013632363 59917.725915907
2	31268695 755843 2092397 2222145 141265.842080517235 149998.912617570461 17522 -2.4e-011 12.934669077494 34610.013632363 124933.13884507

