version 2
run Exponential-capacity-11-20210215-11:02:33-7332
attr configname Exponential-capacity
attr datetime 20210215-11:02:33
attr experiment Exponential-capacity
attr inifile aerocom.ini
attr iterationvars "$0=50, $1=3"
attr iterationvarsf 50,3-
attr measurement "$0=50, $1=3"
attr network Aerocom
attr processid 7332
attr repetition 0
attr replication #0
attr resultdir results
attr runnumber 11
attr seedset 0
param **.t 1s
param **.k 50ms
param **.X 0.4s
param **.m 3s
param **.tDistribution "\"exponential\""
param **.operationMode 0
param **.s "70 byte"
param **.dimPoolMax 10000
param **.dimPoolMin 8000
param **.nDL 1
param **.nA 1
param **.DLMaxCapacity 0
param **.trasmitting false

scalar Aerocom.aircraft[0].linkSelector responseTime:mean 0.036090493788995
attr "" ""
attr source computeResponseTime
scalar Aerocom.aircraft[0].linkSelector meanMalus:sum 455.19999999999
attr "" ""
attr source computeMeanMalus
scalar Aerocom.aircraft[0].linkSelector waitingTime:mean 0.028264018057564
attr "" ""
attr source computeWaitingTime
scalar Aerocom.aircraft[0].linkSelector serviceTime:mean 0.0078264757314305
attr "" ""
attr source computeServiceTime
scalar Aerocom.aircraft[0].linkSelector queueLength:mean 0.55873552751398
attr "" ""
attr source computeQueueLength
scalar Aerocom.aircraft[0].dataLink[0] sentPackets:count 7687
attr source computeSentPackets
scalar Aerocom.aircraft[0].dataLink[0] actualCapacity:mean 8967.5224510682
attr "" ""
attr source computeActualCapacity
scalar Aerocom.controlTower receivedPackets:count 7687
attr source computeReceivedPackets

