version 2
run Exponential-capacity-4-20210217-10:37:02-20236
attr configname Exponential-capacity
attr datetime 20210217-10:37:02
attr experiment Exponential-capacity
attr inifile aerocom.ini
attr iterationvars $0=1.9
attr iterationvarsf 1.9-
attr measurement $0=1.9
attr network Aerocom
attr processid 20236
attr repetition 1
attr replication #1
attr resultdir results
attr runnumber 4
attr seedset 1
param **.t 2s
param **.k 50ms
param **.X 2s
param **.m 1.9s
param **.tDistribution "\"exponential\""
param **.operationMode 0
param **.s "70 byte"
param **.dimPoolMax 10000
param **.dimPoolMin 8000
param **.nDL 10
param **.nA 10
param **.DLMaxCapacity 0
param **.trasmitting false

scalar Aerocom.aircraft[0].linkSelector responseTime:mean 0.010791616128158
attr "" ""
attr source computeResponseTime
scalar Aerocom.aircraft[0].linkSelector meanMalus:sum 2474
attr "" ""
attr source computeMeanMalus
scalar Aerocom.aircraft[0].linkSelector waitingTime:mean 0.0034333716020326
attr "" ""
attr source computeWaitingTime
scalar Aerocom.aircraft[0].linkSelector serviceTime:mean 0.0073582445261402
attr "" ""
attr source computeServiceTime
scalar Aerocom.aircraft[0].linkSelector queueLength:mean 0.068079640333976
attr "" ""
attr source computeQueueLength
scalar Aerocom.aircraft[0].dataLink[0] sentPackets:count 730
attr source computeSentPackets
scalar Aerocom.aircraft[0].dataLink[0] actualCapacity:mean 9497.5337620579
attr "" ""
attr source computeActualCapacity
scalar Aerocom.aircraft[0].dataLink[1] sentPackets:count 923
attr source computeSentPackets
scalar Aerocom.aircraft[0].dataLink[1] actualCapacity:mean 9375.6451897617
attr "" ""
attr source computeActualCapacity
scalar Aerocom.aircraft[0].dataLink[2] sentPackets:count 992
attr source computeSentPackets
scalar Aerocom.aircraft[0].dataLink[2] actualCapacity:mean 9380.658882402
attr "" ""
attr source computeActualCapacity
scalar Aerocom.aircraft[0].dataLink[3] sentPackets:count 713
attr source computeSentPackets
scalar Aerocom.aircraft[0].dataLink[3] actualCapacity:mean 9426.8473282443
attr "" ""
attr source computeActualCapacity
scalar Aerocom.aircraft[0].dataLink[4] sentPackets:count 910
attr source computeSentPackets
scalar Aerocom.aircraft[0].dataLink[4] actualCapacity:mean 9490.0421903052
attr "" ""
attr source computeActualCapacity
scalar Aerocom.aircraft[0].dataLink[5] sentPackets:count 605
attr source computeSentPackets
scalar Aerocom.aircraft[0].dataLink[5] actualCapacity:mean 9338.1012345679
attr "" ""
attr source computeActualCapacity
scalar Aerocom.aircraft[0].dataLink[6] sentPackets:count 787
attr source computeSentPackets
scalar Aerocom.aircraft[0].dataLink[6] actualCapacity:mean 9401.1007049345
attr "" ""
attr source computeActualCapacity
scalar Aerocom.aircraft[0].dataLink[7] sentPackets:count 784
attr source computeSentPackets
scalar Aerocom.aircraft[0].dataLink[7] actualCapacity:mean 9435.3509127789
attr "" ""
attr source computeActualCapacity
scalar Aerocom.aircraft[0].dataLink[8] sentPackets:count 484
attr source computeSentPackets
scalar Aerocom.aircraft[0].dataLink[8] actualCapacity:mean 9347.2753623188
attr "" ""
attr source computeActualCapacity
scalar Aerocom.aircraft[0].dataLink[9] sentPackets:count 857
attr source computeSentPackets
scalar Aerocom.aircraft[0].dataLink[9] actualCapacity:mean 9463.6
attr "" ""
attr source computeActualCapacity
scalar Aerocom.aircraft[1].linkSelector responseTime:mean 0.010967326470031
attr "" ""
attr source computeResponseTime
scalar Aerocom.aircraft[1].linkSelector meanMalus:sum 2966
attr "" ""
attr source computeMeanMalus
scalar Aerocom.aircraft[1].linkSelector waitingTime:mean 0.0035714272119599
attr "" ""
attr source computeWaitingTime
scalar Aerocom.aircraft[1].linkSelector serviceTime:mean 0.0073958992580943
attr "" ""
attr source computeServiceTime
scalar Aerocom.aircraft[1].linkSelector queueLength:mean 0.073807380738074
attr "" ""
attr source computeQueueLength
scalar Aerocom.aircraft[1].dataLink[0] sentPackets:count 674
attr source computeSentPackets
scalar Aerocom.aircraft[1].dataLink[0] actualCapacity:mean 9304.8086560364
attr "" ""
attr source computeActualCapacity
scalar Aerocom.aircraft[1].dataLink[1] sentPackets:count 818
attr source computeSentPackets
scalar Aerocom.aircraft[1].dataLink[1] actualCapacity:mean 9457.4897360704
attr "" ""
attr source computeActualCapacity
scalar Aerocom.aircraft[1].dataLink[2] sentPackets:count 670
attr source computeSentPackets
scalar Aerocom.aircraft[1].dataLink[2] actualCapacity:mean 9311.9473081329
attr "" ""
attr source computeActualCapacity
scalar Aerocom.aircraft[1].dataLink[3] sentPackets:count 635
attr source computeSentPackets
scalar Aerocom.aircraft[1].dataLink[3] actualCapacity:mean 9255.9738095238
attr "" ""
attr source computeActualCapacity
scalar Aerocom.aircraft[1].dataLink[4] sentPackets:count 1146
attr source computeSentPackets
scalar Aerocom.aircraft[1].dataLink[4] actualCapacity:mean 9445.9335302807
attr "" ""
attr source computeActualCapacity
scalar Aerocom.aircraft[1].dataLink[5] sentPackets:count 700
attr source computeSentPackets
scalar Aerocom.aircraft[1].dataLink[5] actualCapacity:mean 9354.0728476821
attr "" ""
attr source computeActualCapacity
scalar Aerocom.aircraft[1].dataLink[6] sentPackets:count 498
attr source computeSentPackets
scalar Aerocom.aircraft[1].dataLink[6] actualCapacity:mean 9320.5905848787
attr "" ""
attr source computeActualCapacity
scalar Aerocom.aircraft[1].dataLink[7] sentPackets:count 584
attr source computeSentPackets
scalar Aerocom.aircraft[1].dataLink[7] actualCapacity:mean 9294.6544303797
attr "" ""
attr source computeActualCapacity
scalar Aerocom.aircraft[1].dataLink[8] sentPackets:count 1120
attr source computeSentPackets
scalar Aerocom.aircraft[1].dataLink[8] actualCapacity:mean 9409.2716981132
attr "" ""
attr source computeActualCapacity
scalar Aerocom.aircraft[1].dataLink[9] sentPackets:count 932
attr source computeSentPackets
scalar Aerocom.aircraft[1].dataLink[9] actualCapacity:mean 9454.5039577836
attr "" ""
attr source computeActualCapacity
scalar Aerocom.aircraft[2].linkSelector responseTime:mean 0.011184417011541
attr "" ""
attr source computeResponseTime
scalar Aerocom.aircraft[2].linkSelector meanMalus:sum 2348
attr "" ""
attr source computeMeanMalus
scalar Aerocom.aircraft[2].linkSelector waitingTime:mean 0.0038129194793082
attr "" ""
attr source computeWaitingTime
scalar Aerocom.aircraft[2].linkSelector serviceTime:mean 0.0073714975322448
attr "" ""
attr source computeServiceTime
scalar Aerocom.aircraft[2].linkSelector queueLength:mean 0.075345116759128
attr "" ""
attr source computeQueueLength
scalar Aerocom.aircraft[2].dataLink[0] sentPackets:count 1109
attr source computeSentPackets
scalar Aerocom.aircraft[2].dataLink[0] actualCapacity:mean 9475.0561456753
attr "" ""
attr source computeActualCapacity
scalar Aerocom.aircraft[2].dataLink[1] sentPackets:count 430
attr source computeSentPackets
scalar Aerocom.aircraft[2].dataLink[1] actualCapacity:mean 9271.3785488959
attr "" ""
attr source computeActualCapacity
scalar Aerocom.aircraft[2].dataLink[2] sentPackets:count 846
attr source computeSentPackets
scalar Aerocom.aircraft[2].dataLink[2] actualCapacity:mean 9407.0142857143
attr "" ""
attr source computeActualCapacity
scalar Aerocom.aircraft[2].dataLink[3] sentPackets:count 849
attr source computeSentPackets
scalar Aerocom.aircraft[2].dataLink[3] actualCapacity:mean 9422.6707663198
attr "" ""
attr source computeActualCapacity
scalar Aerocom.aircraft[2].dataLink[4] sentPackets:count 696
attr source computeSentPackets
scalar Aerocom.aircraft[2].dataLink[4] actualCapacity:mean 9428.7138084633
attr "" ""
attr source computeActualCapacity
scalar Aerocom.aircraft[2].dataLink[5] sentPackets:count 832
attr source computeSentPackets
scalar Aerocom.aircraft[2].dataLink[5] actualCapacity:mean 9418.5664739884
attr "" ""
attr source computeActualCapacity
scalar Aerocom.aircraft[2].dataLink[6] sentPackets:count 977
attr source computeSentPackets
scalar Aerocom.aircraft[2].dataLink[6] actualCapacity:mean 9399.7629566695
attr "" ""
attr source computeActualCapacity
scalar Aerocom.aircraft[2].dataLink[7] sentPackets:count 459
attr source computeSentPackets
scalar Aerocom.aircraft[2].dataLink[7] actualCapacity:mean 9392.2012012012
attr "" ""
attr source computeActualCapacity
scalar Aerocom.aircraft[2].dataLink[8] sentPackets:count 686
attr source computeSentPackets
scalar Aerocom.aircraft[2].dataLink[8] actualCapacity:mean 9376.1898876405
attr "" ""
attr source computeActualCapacity
scalar Aerocom.aircraft[2].dataLink[9] sentPackets:count 867
attr source computeSentPackets
scalar Aerocom.aircraft[2].dataLink[9] actualCapacity:mean 9443.972972973
attr "" ""
attr source computeActualCapacity
scalar Aerocom.aircraft[3].linkSelector responseTime:mean 0.01084593263502
attr "" ""
attr source computeResponseTime
scalar Aerocom.aircraft[3].linkSelector meanMalus:sum 2124
attr "" ""
attr source computeMeanMalus
scalar Aerocom.aircraft[3].linkSelector waitingTime:mean 0.0034858018819187
attr "" ""
attr source computeWaitingTime
scalar Aerocom.aircraft[3].linkSelector serviceTime:mean 0.007360130753117
attr "" ""
attr source computeServiceTime
scalar Aerocom.aircraft[3].linkSelector queueLength:mean 0.079759414225941
attr "" ""
attr source computeQueueLength
scalar Aerocom.aircraft[3].dataLink[0] sentPackets:count 887
attr source computeSentPackets
scalar Aerocom.aircraft[3].dataLink[0] actualCapacity:mean 9456.8042086002
attr "" ""
attr source computeActualCapacity
scalar Aerocom.aircraft[3].dataLink[1] sentPackets:count 762
attr source computeSentPackets
scalar Aerocom.aircraft[3].dataLink[1] actualCapacity:mean 9398.2750775595
attr "" ""
attr source computeActualCapacity
scalar Aerocom.aircraft[3].dataLink[2] sentPackets:count 857
attr source computeSentPackets
scalar Aerocom.aircraft[3].dataLink[2] actualCapacity:mean 9485.8684210526
attr "" ""
attr source computeActualCapacity
scalar Aerocom.aircraft[3].dataLink[3] sentPackets:count 893
attr source computeSentPackets
scalar Aerocom.aircraft[3].dataLink[3] actualCapacity:mean 9524.8087431694
attr "" ""
attr source computeActualCapacity
scalar Aerocom.aircraft[3].dataLink[4] sentPackets:count 446
attr source computeSentPackets
scalar Aerocom.aircraft[3].dataLink[4] actualCapacity:mean 9216.3661538462
attr "" ""
attr source computeActualCapacity
scalar Aerocom.aircraft[3].dataLink[5] sentPackets:count 844
attr source computeSentPackets
scalar Aerocom.aircraft[3].dataLink[5] actualCapacity:mean 9335.3183984747
attr "" ""
attr source computeActualCapacity
scalar Aerocom.aircraft[3].dataLink[6] sentPackets:count 825
attr source computeSentPackets
scalar Aerocom.aircraft[3].dataLink[6] actualCapacity:mean 9472.1532492726
attr "" ""
attr source computeActualCapacity
scalar Aerocom.aircraft[3].dataLink[7] sentPackets:count 744
attr source computeSentPackets
scalar Aerocom.aircraft[3].dataLink[7] actualCapacity:mean 9365.0284510011
attr "" ""
attr source computeActualCapacity
scalar Aerocom.aircraft[3].dataLink[8] sentPackets:count 716
attr source computeSentPackets
scalar Aerocom.aircraft[3].dataLink[8] actualCapacity:mean 9417.0414394766
attr "" ""
attr source computeActualCapacity
scalar Aerocom.aircraft[3].dataLink[9] sentPackets:count 674
attr source computeSentPackets
scalar Aerocom.aircraft[3].dataLink[9] actualCapacity:mean 9387.9920454545
attr "" ""
attr source computeActualCapacity
scalar Aerocom.aircraft[4].linkSelector responseTime:mean 0.010556626135321
attr "" ""
attr source computeResponseTime
scalar Aerocom.aircraft[4].linkSelector meanMalus:sum 2672
attr "" ""
attr source computeMeanMalus
scalar Aerocom.aircraft[4].linkSelector waitingTime:mean 0.0032104641362608
attr "" ""
attr source computeWaitingTime
scalar Aerocom.aircraft[4].linkSelector serviceTime:mean 0.0073461619990813
attr "" ""
attr source computeServiceTime
scalar Aerocom.aircraft[4].linkSelector queueLength:mean 0.058337569903406
attr "" ""
attr source computeQueueLength
scalar Aerocom.aircraft[4].dataLink[0] sentPackets:count 773
attr source computeSentPackets
scalar Aerocom.aircraft[4].dataLink[0] actualCapacity:mean 9374.2395087001
attr "" ""
attr source computeActualCapacity
scalar Aerocom.aircraft[4].dataLink[1] sentPackets:count 1039
attr source computeSentPackets
scalar Aerocom.aircraft[4].dataLink[1] actualCapacity:mean 9492.9283990346
attr "" ""
attr source computeActualCapacity
scalar Aerocom.aircraft[4].dataLink[2] sentPackets:count 913
attr source computeSentPackets
scalar Aerocom.aircraft[4].dataLink[2] actualCapacity:mean 9449.0624442462
attr "" ""
attr source computeActualCapacity
scalar Aerocom.aircraft[4].dataLink[3] sentPackets:count 576
attr source computeSentPackets
scalar Aerocom.aircraft[4].dataLink[3] actualCapacity:mean 9351.6384615385
attr "" ""
attr source computeActualCapacity
scalar Aerocom.aircraft[4].dataLink[4] sentPackets:count 656
attr source computeSentPackets
scalar Aerocom.aircraft[4].dataLink[4] actualCapacity:mean 9383.7412993039
attr "" ""
attr source computeActualCapacity
scalar Aerocom.aircraft[4].dataLink[5] sentPackets:count 382
attr source computeSentPackets
scalar Aerocom.aircraft[4].dataLink[5] actualCapacity:mean 9399.8412969283
attr "" ""
attr source computeActualCapacity
scalar Aerocom.aircraft[4].dataLink[6] sentPackets:count 715
attr source computeSentPackets
scalar Aerocom.aircraft[4].dataLink[6] actualCapacity:mean 9514.2076086957
attr "" ""
attr source computeActualCapacity
scalar Aerocom.aircraft[4].dataLink[7] sentPackets:count 1047
attr source computeSentPackets
scalar Aerocom.aircraft[4].dataLink[7] actualCapacity:mean 9439.7816
attr "" ""
attr source computeActualCapacity
scalar Aerocom.aircraft[4].dataLink[8] sentPackets:count 994
attr source computeSentPackets
scalar Aerocom.aircraft[4].dataLink[8] actualCapacity:mean 9423.9725
attr "" ""
attr source computeActualCapacity
scalar Aerocom.aircraft[4].dataLink[9] sentPackets:count 773
attr source computeSentPackets
scalar Aerocom.aircraft[4].dataLink[9] actualCapacity:mean 9443.468845761
attr "" ""
attr source computeActualCapacity
scalar Aerocom.aircraft[5].linkSelector responseTime:mean 0.010994233079857
attr "" ""
attr source computeResponseTime
scalar Aerocom.aircraft[5].linkSelector meanMalus:sum 1972
attr "" ""
attr source computeMeanMalus
scalar Aerocom.aircraft[5].linkSelector waitingTime:mean 0.0036498606604335
attr "" ""
attr source computeWaitingTime
scalar Aerocom.aircraft[5].linkSelector serviceTime:mean 0.0073443724194444
attr "" ""
attr source computeServiceTime
scalar Aerocom.aircraft[5].linkSelector queueLength:mean 0.077772073921971
attr "" ""
attr source computeQueueLength
scalar Aerocom.aircraft[5].dataLink[0] sentPackets:count 909
attr source computeSentPackets
scalar Aerocom.aircraft[5].dataLink[0] actualCapacity:mean 9498.7827648115
attr "" ""
attr source computeActualCapacity
scalar Aerocom.aircraft[5].dataLink[1] sentPackets:count 996
attr source computeSentPackets
scalar Aerocom.aircraft[5].dataLink[1] actualCapacity:mean 9482.3583333333
attr "" ""
attr source computeActualCapacity
scalar Aerocom.aircraft[5].dataLink[2] sentPackets:count 947
attr source computeSentPackets
scalar Aerocom.aircraft[5].dataLink[2] actualCapacity:mean 9448.9791666667
attr "" ""
attr source computeActualCapacity
scalar Aerocom.aircraft[5].dataLink[3] sentPackets:count 980
attr source computeSentPackets
scalar Aerocom.aircraft[5].dataLink[3] actualCapacity:mean 9413.0405405405
attr "" ""
attr source computeActualCapacity
scalar Aerocom.aircraft[5].dataLink[4] sentPackets:count 474
attr source computeSentPackets
scalar Aerocom.aircraft[5].dataLink[4] actualCapacity:mean 9280.280058651
attr "" ""
attr source computeActualCapacity
scalar Aerocom.aircraft[5].dataLink[5] sentPackets:count 456
attr source computeSentPackets
scalar Aerocom.aircraft[5].dataLink[5] actualCapacity:mean 9248.3201820941
attr "" ""
attr source computeActualCapacity
scalar Aerocom.aircraft[5].dataLink[6] sentPackets:count 745
attr source computeSentPackets
scalar Aerocom.aircraft[5].dataLink[6] actualCapacity:mean 9365.9800420168
attr "" ""
attr source computeActualCapacity
scalar Aerocom.aircraft[5].dataLink[7] sentPackets:count 801
attr source computeSentPackets
scalar Aerocom.aircraft[5].dataLink[7] actualCapacity:mean 9496.0417910448
attr "" ""
attr source computeActualCapacity
scalar Aerocom.aircraft[5].dataLink[8] sentPackets:count 779
attr source computeSentPackets
scalar Aerocom.aircraft[5].dataLink[8] actualCapacity:mean 9451.6469387755
attr "" ""
attr source computeActualCapacity
scalar Aerocom.aircraft[5].dataLink[9] sentPackets:count 705
attr source computeSentPackets
scalar Aerocom.aircraft[5].dataLink[9] actualCapacity:mean 9507.6301969365
attr "" ""
attr source computeActualCapacity
scalar Aerocom.aircraft[6].linkSelector responseTime:mean 0.010969731308657
attr "" ""
attr source computeResponseTime
scalar Aerocom.aircraft[6].linkSelector meanMalus:sum 2648
attr "" ""
attr source computeMeanMalus
scalar Aerocom.aircraft[6].linkSelector waitingTime:mean 0.0035758337245238
attr "" ""
attr source computeWaitingTime
scalar Aerocom.aircraft[6].linkSelector serviceTime:mean 0.0073931239209435
attr "" ""
attr source computeServiceTime
scalar Aerocom.aircraft[6].linkSelector queueLength:mean 0.072585871678548
attr "" ""
attr source computeQueueLength
scalar Aerocom.aircraft[6].dataLink[0] sentPackets:count 529
attr source computeSentPackets
scalar Aerocom.aircraft[6].dataLink[0] actualCapacity:mean 9303.0040871935
attr "" ""
attr source computeActualCapacity
scalar Aerocom.aircraft[6].dataLink[1] sentPackets:count 490
attr source computeSentPackets
scalar Aerocom.aircraft[6].dataLink[1] actualCapacity:mean 9236.5454545455
attr "" ""
attr source computeActualCapacity
scalar Aerocom.aircraft[6].dataLink[2] sentPackets:count 1259
attr source computeSentPackets
scalar Aerocom.aircraft[6].dataLink[2] actualCapacity:mean 9513.4313055366
attr "" ""
attr source computeActualCapacity
scalar Aerocom.aircraft[6].dataLink[3] sentPackets:count 645
attr source computeSentPackets
scalar Aerocom.aircraft[6].dataLink[3] actualCapacity:mean 9360.1578327444
attr "" ""
attr source computeActualCapacity
scalar Aerocom.aircraft[6].dataLink[4] sentPackets:count 1187
attr source computeSentPackets
scalar Aerocom.aircraft[6].dataLink[4] actualCapacity:mean 9390.539899353
attr "" ""
attr source computeActualCapacity
scalar Aerocom.aircraft[6].dataLink[5] sentPackets:count 866
attr source computeSentPackets
scalar Aerocom.aircraft[6].dataLink[5] actualCapacity:mean 9413.5615671642
attr "" ""
attr source computeActualCapacity
scalar Aerocom.aircraft[6].dataLink[6] sentPackets:count 691
attr source computeSentPackets
scalar Aerocom.aircraft[6].dataLink[6] actualCapacity:mean 9326.3122222222
attr "" ""
attr source computeActualCapacity
scalar Aerocom.aircraft[6].dataLink[7] sentPackets:count 779
attr source computeSentPackets
scalar Aerocom.aircraft[6].dataLink[7] actualCapacity:mean 9299.2563323202
attr "" ""
attr source computeActualCapacity
scalar Aerocom.aircraft[6].dataLink[8] sentPackets:count 550
attr source computeSentPackets
scalar Aerocom.aircraft[6].dataLink[8] actualCapacity:mean 9288.4854111406
attr "" ""
attr source computeActualCapacity
scalar Aerocom.aircraft[6].dataLink[9] sentPackets:count 720
attr source computeSentPackets
scalar Aerocom.aircraft[6].dataLink[9] actualCapacity:mean 9455.1561822126
attr "" ""
attr source computeActualCapacity
scalar Aerocom.aircraft[7].linkSelector responseTime:mean 0.011003467079422
attr "" ""
attr source computeResponseTime
scalar Aerocom.aircraft[7].linkSelector meanMalus:sum 2466
attr "" ""
attr source computeMeanMalus
scalar Aerocom.aircraft[7].linkSelector waitingTime:mean 0.0035822300788674
attr "" ""
attr source computeWaitingTime
scalar Aerocom.aircraft[7].linkSelector serviceTime:mean 0.0074217181053666
attr "" ""
attr source computeServiceTime
scalar Aerocom.aircraft[7].linkSelector queueLength:mean 0.069200154063423
attr "" ""
attr source computeQueueLength
scalar Aerocom.aircraft[7].dataLink[0] sentPackets:count 704
attr source computeSentPackets
scalar Aerocom.aircraft[7].dataLink[0] actualCapacity:mean 9308.813876652
attr "" ""
attr source computeActualCapacity
scalar Aerocom.aircraft[7].dataLink[1] sentPackets:count 730
attr source computeSentPackets
scalar Aerocom.aircraft[7].dataLink[1] actualCapacity:mean 9423.8141025641
attr "" ""
attr source computeActualCapacity
scalar Aerocom.aircraft[7].dataLink[2] sentPackets:count 931
attr source computeSentPackets
scalar Aerocom.aircraft[7].dataLink[2] actualCapacity:mean 9320.6994727592
attr "" ""
attr source computeActualCapacity
scalar Aerocom.aircraft[7].dataLink[3] sentPackets:count 441
attr source computeSentPackets
scalar Aerocom.aircraft[7].dataLink[3] actualCapacity:mean 9371.0278637771
attr "" ""
attr source computeActualCapacity
scalar Aerocom.aircraft[7].dataLink[4] sentPackets:count 736
attr source computeSentPackets
scalar Aerocom.aircraft[7].dataLink[4] actualCapacity:mean 9317.9117959617
attr "" ""
attr source computeActualCapacity
scalar Aerocom.aircraft[7].dataLink[5] sentPackets:count 745
attr source computeSentPackets
scalar Aerocom.aircraft[7].dataLink[5] actualCapacity:mean 9261.186512118
attr "" ""
attr source computeActualCapacity
scalar Aerocom.aircraft[7].dataLink[6] sentPackets:count 729
attr source computeSentPackets
scalar Aerocom.aircraft[7].dataLink[6] actualCapacity:mean 9392.7002141328
attr "" ""
attr source computeActualCapacity
scalar Aerocom.aircraft[7].dataLink[7] sentPackets:count 645
attr source computeSentPackets
scalar Aerocom.aircraft[7].dataLink[7] actualCapacity:mean 9174.4068396226
attr "" ""
attr source computeActualCapacity
scalar Aerocom.aircraft[7].dataLink[8] sentPackets:count 1059
attr source computeSentPackets
scalar Aerocom.aircraft[7].dataLink[8] actualCapacity:mean 9429.4004739336
attr "" ""
attr source computeActualCapacity
scalar Aerocom.aircraft[7].dataLink[9] sentPackets:count 1070
attr source computeSentPackets
scalar Aerocom.aircraft[7].dataLink[9] actualCapacity:mean 9452.4524744698
attr "" ""
attr source computeActualCapacity
scalar Aerocom.aircraft[8].linkSelector responseTime:mean 0.010618083960405
attr "" ""
attr source computeResponseTime
scalar Aerocom.aircraft[8].linkSelector meanMalus:sum 2694
attr "" ""
attr source computeMeanMalus
scalar Aerocom.aircraft[8].linkSelector waitingTime:mean 0.0032690272643727
attr "" ""
attr source computeWaitingTime
scalar Aerocom.aircraft[8].linkSelector serviceTime:mean 0.0073488930869962
attr "" ""
attr source computeServiceTime
scalar Aerocom.aircraft[8].linkSelector queueLength:mean 0.061951471347445
attr "" ""
attr source computeQueueLength
scalar Aerocom.aircraft[8].dataLink[0] sentPackets:count 839
attr source computeSentPackets
scalar Aerocom.aircraft[8].dataLink[0] actualCapacity:mean 9444.2777777778
attr "" ""
attr source computeActualCapacity
scalar Aerocom.aircraft[8].dataLink[1] sentPackets:count 1026
attr source computeSentPackets
scalar Aerocom.aircraft[8].dataLink[1] actualCapacity:mean 9454.2485783916
attr "" ""
attr source computeActualCapacity
scalar Aerocom.aircraft[8].dataLink[2] sentPackets:count 656
attr source computeSentPackets
scalar Aerocom.aircraft[8].dataLink[2] actualCapacity:mean 9414.2943221321
attr "" ""
attr source computeActualCapacity
scalar Aerocom.aircraft[8].dataLink[3] sentPackets:count 803
attr source computeSentPackets
scalar Aerocom.aircraft[8].dataLink[3] actualCapacity:mean 9421.679245283
attr "" ""
attr source computeActualCapacity
scalar Aerocom.aircraft[8].dataLink[4] sentPackets:count 618
attr source computeSentPackets
scalar Aerocom.aircraft[8].dataLink[4] actualCapacity:mean 9349.2375152253
attr "" ""
attr source computeActualCapacity
scalar Aerocom.aircraft[8].dataLink[5] sentPackets:count 586
attr source computeSentPackets
scalar Aerocom.aircraft[8].dataLink[5] actualCapacity:mean 9283.2831858407
attr "" ""
attr source computeActualCapacity
scalar Aerocom.aircraft[8].dataLink[6] sentPackets:count 974
attr source computeSentPackets
scalar Aerocom.aircraft[8].dataLink[6] actualCapacity:mean 9452.1550847458
attr "" ""
attr source computeActualCapacity
scalar Aerocom.aircraft[8].dataLink[7] sentPackets:count 662
attr source computeSentPackets
scalar Aerocom.aircraft[8].dataLink[7] actualCapacity:mean 9374.3041474654
attr "" ""
attr source computeActualCapacity
scalar Aerocom.aircraft[8].dataLink[8] sentPackets:count 866
attr source computeSentPackets
scalar Aerocom.aircraft[8].dataLink[8] actualCapacity:mean 9565.1483208955
attr "" ""
attr source computeActualCapacity
scalar Aerocom.aircraft[8].dataLink[9] sentPackets:count 718
attr source computeSentPackets
scalar Aerocom.aircraft[8].dataLink[9] actualCapacity:mean 9452.3496199783
attr "" ""
attr source computeActualCapacity
scalar Aerocom.aircraft[9].linkSelector responseTime:mean 0.010833853778865
attr "" ""
attr source computeResponseTime
scalar Aerocom.aircraft[9].linkSelector meanMalus:sum 2978
attr "" ""
attr source computeMeanMalus
scalar Aerocom.aircraft[9].linkSelector waitingTime:mean 0.0034751366315344
attr "" ""
attr source computeWaitingTime
scalar Aerocom.aircraft[9].linkSelector serviceTime:mean 0.0073587171473519
attr "" ""
attr source computeServiceTime
scalar Aerocom.aircraft[9].linkSelector queueLength:mean 0.065811417575369
attr "" ""
attr source computeQueueLength
scalar Aerocom.aircraft[9].dataLink[0] sentPackets:count 990
attr source computeSentPackets
scalar Aerocom.aircraft[9].dataLink[0] actualCapacity:mean 9533.8066945607
attr "" ""
attr source computeActualCapacity
scalar Aerocom.aircraft[9].dataLink[1] sentPackets:count 741
attr source computeSentPackets
scalar Aerocom.aircraft[9].dataLink[1] actualCapacity:mean 9425.7296726505
attr "" ""
attr source computeActualCapacity
scalar Aerocom.aircraft[9].dataLink[2] sentPackets:count 375
attr source computeSentPackets
scalar Aerocom.aircraft[9].dataLink[2] actualCapacity:mean 9342.9275862069
attr "" ""
attr source computeActualCapacity
scalar Aerocom.aircraft[9].dataLink[3] sentPackets:count 903
attr source computeSentPackets
scalar Aerocom.aircraft[9].dataLink[3] actualCapacity:mean 9445.045987376
attr "" ""
attr source computeActualCapacity
scalar Aerocom.aircraft[9].dataLink[4] sentPackets:count 559
attr source computeSentPackets
scalar Aerocom.aircraft[9].dataLink[4] actualCapacity:mean 9335.0834419817
attr "" ""
attr source computeActualCapacity
scalar Aerocom.aircraft[9].dataLink[5] sentPackets:count 895
attr source computeSentPackets
scalar Aerocom.aircraft[9].dataLink[5] actualCapacity:mean 9465.6542649728
attr "" ""
attr source computeActualCapacity
scalar Aerocom.aircraft[9].dataLink[6] sentPackets:count 904
attr source computeSentPackets
scalar Aerocom.aircraft[9].dataLink[6] actualCapacity:mean 9414.8637184116
attr "" ""
attr source computeActualCapacity
scalar Aerocom.aircraft[9].dataLink[7] sentPackets:count 801
attr source computeSentPackets
scalar Aerocom.aircraft[9].dataLink[7] actualCapacity:mean 9428.1402985075
attr "" ""
attr source computeActualCapacity
scalar Aerocom.aircraft[9].dataLink[8] sentPackets:count 1032
attr source computeSentPackets
scalar Aerocom.aircraft[9].dataLink[8] actualCapacity:mean 9395.1254045307
attr "" ""
attr source computeActualCapacity
scalar Aerocom.aircraft[9].dataLink[9] sentPackets:count 595
attr source computeSentPackets
scalar Aerocom.aircraft[9].dataLink[9] actualCapacity:mean 9322.8994974874
attr "" ""
attr source computeActualCapacity
scalar Aerocom.controlTower receivedPackets:count 77670
attr source computeReceivedPackets

