file 9170720 1613479540                                         
version 2
run Exponential-capacity-9-20210216-13:45:39-18524
attr configname Exponential-capacity
attr datetime 20210216-13:45:39
attr experiment Exponential-capacity
attr inifile aerocom.ini
attr iterationvars "$0=0.5, $1=10, $2=4, $3=4"
attr iterationvarsf 0.5,10,4,4-
attr measurement "$0=0.5, $1=10, $2=4, $3=4"
attr network Aerocom
attr processid 18524
attr repetition 0
attr replication #0
attr resultdir results
attr runnumber 9
attr seedset 0
param **.t 0.5s
param **.k 10ms
param **.X 4s
param **.m 4s
param **.tDistribution "\"exponential\""
param **.operationMode 0
param **.s "70 byte"
param **.dimPoolMax 10000
param **.dimPoolMin 8000
param **.nDL 10
param **.nA 1
param **.DLMaxCapacity 0
param **.trasmitting false

vector 0 Aerocom.aircraft[0].packetGenerator arrivalTime:vector ETV
attr "" ""
attr source computeArrivalTime
vector 1 Aerocom.aircraft[0].linkSelector waitingTime:vector ETV
attr "" ""
attr source computeWaitingTime
vector 2 Aerocom.aircraft[0].linkSelector queueLength:vector ETV
attr "" ""
attr source computeQueueLength
vector 3 Aerocom.aircraft[0].dataLink[4] actualCapacity:vector ETV
attr "" ""
attr source computeActualCapacity
vector 4 Aerocom.aircraft[0].linkSelector serviceTime:vector ETV
attr "" ""
attr source computeServiceTime
vector 5 Aerocom.aircraft[0].linkSelector responseTime:vector ETV
attr "" ""
attr source computeResponseTime
vector 6 Aerocom.aircraft[0].dataLink[0] tDistribution:vector ETV
attr "" ""
attr source computeTDistribution
vector 7 Aerocom.aircraft[0].dataLink[3] tDistribution:vector ETV
attr "" ""
attr source computeTDistribution
vector 8 Aerocom.aircraft[0].dataLink[7] tDistribution:vector ETV
attr "" ""
attr source computeTDistribution
vector 9 Aerocom.aircraft[0].dataLink[2] tDistribution:vector ETV
attr "" ""
attr source computeTDistribution
vector 10 Aerocom.aircraft[0].dataLink[9] tDistribution:vector ETV
attr "" ""
attr source computeTDistribution
vector 11 Aerocom.aircraft[0].dataLink[5] tDistribution:vector ETV
attr "" ""
attr source computeTDistribution
vector 12 Aerocom.aircraft[0].dataLink[6] tDistribution:vector ETV
attr "" ""
attr source computeTDistribution
vector 13 Aerocom.aircraft[0].dataLink[1] tDistribution:vector ETV
attr "" ""
attr source computeTDistribution
vector 14 Aerocom.aircraft[0].dataLink[8] tDistribution:vector ETV
attr "" ""
attr source computeTDistribution
vector 15 Aerocom.aircraft[0].dataLink[4] tDistribution:vector ETV
attr "" ""
attr source computeTDistribution
vector 16 Aerocom.aircraft[0].dataLink[0] actualCapacity:vector ETV
attr "" ""
attr source computeActualCapacity
vector 17 Aerocom.aircraft[0].dataLink[1] actualCapacity:vector ETV
attr "" ""
attr source computeActualCapacity
vector 18 Aerocom.aircraft[0].dataLink[2] actualCapacity:vector ETV
attr "" ""
attr source computeActualCapacity
vector 19 Aerocom.aircraft[0].dataLink[3] actualCapacity:vector ETV
attr "" ""
attr source computeActualCapacity
vector 20 Aerocom.aircraft[0].dataLink[5] actualCapacity:vector ETV
attr "" ""
attr source computeActualCapacity
vector 21 Aerocom.aircraft[0].dataLink[6] actualCapacity:vector ETV
attr "" ""
attr source computeActualCapacity
vector 22 Aerocom.aircraft[0].dataLink[7] actualCapacity:vector ETV
attr "" ""
attr source computeActualCapacity
vector 23 Aerocom.aircraft[0].dataLink[8] actualCapacity:vector ETV
attr "" ""
attr source computeActualCapacity
vector 24 Aerocom.aircraft[0].dataLink[9] actualCapacity:vector ETV
attr "" ""
attr source computeActualCapacity
0	3612 1342767 5145 195220 10.002616319138 334.179259405181 32768 4.011e-008 0.107223249796 324.17673621716 6.4215077879631
1	1346379 1188872 5146 195224 10.002616319138 334.183073377198 32768 0 0.12775968321 241.17805748877 7.2956324363232
2	2535251 920492 5146 195224 10.002616319138 334.183073377198 32768 0 14 24408 97978
4	3455743 1472827 5146 195224 10.002616319138 334.183073377198 32768 0.0070028011204482 0.0087478130467383 253.42781854781 1.9660108924444
5	4928570 1342678 5151 195228 10.011308731903 334.190490202797 32768 0.00700280112 0.136319233222 494.60587603641 13.050352544014
0	6271248 272531 195222 232860 334.179352536302 399.974672125632 6522 2.306095e-006 0.10350655095 65.828555667873 1.3356747668135
1	6543779 241162 195227 232865 334.184544105001 399.983253752771 6522 0 0.092524096621 42.424805186675 1.0405941454121
2	6784941 188465 195227 232865 334.184544105001 399.983253752771 6522 0 11 4174 13992
3	6973406 107312 5146 232872 10.002616319138 400 3450 8053 9993 31004972 279804663458
4	7080718 298491 195227 232865 334.184544105001 399.983253752771 6522 0.0070035017508754 0.0087478130467383 50.277434961425 0.38882860675497
5	7379209 272504 195231 232868 334.191960144836 399.990814781071 6522 0.007004202522 0.100475931223 92.702240148113 2.0902725452067
6	7651713 33991 5165 232851 10.042820177235 399.967497856534 788 0.00062020026830132 2.9799121312984 390.37915609227 381.96671869248
7	7685704 35707 5177 232608 10.062091937059 399.519600555502 827 0.00036199919213032 3.6981388542622 390.50754970754 370.17857299301
8	7721411 36094 5196 232455 10.100728150422 399.263459716624 836 0.00019418306873277 2.7142132760003 391.25474958391 368.06052080671
9	7757505 32877 5239 232816 10.171203108278 399.905483447295 762 0.00045111153041332 3.1786045526238 390.53559259343 392.23059181944
10	7790382 33543 5251 232331 10.192621587094 399.068006015217 760 0.00027665290109629 3.2522337397256 390.66987786196 387.16390925616
11	7823925 30820 5257 232815 10.199131011911 399.90237018197 700 0.0011978778005887 3.7747751881069 390.40676740378 417.98564983781
12	7854745 33089 5263 232712 10.241083994123 399.706936420127 749 0.00040164675543452 3.6444460937736 390.19670470527 429.01833469629
13	7887834 35594 5351 232580 10.398736202718 399.465438120764 805 0.00056323607031456 3.3069891392411 390.05446963084 378.77187713309
14	7923428 36011 5429 232213 10.548171519696 398.804411642983 813 6.1795907249355e-005 3.8756011976659 390.15883067755 392.65495195696
15	7959439 37123 5847 232293 11.369278336466 398.993347524372 841 0.00023429031071929 3.194958277539 389.73593214821 360.44654827189
16	7996562 94710 6178 232872 12 400 2971 8023 9930 27022686 246479148518
17	8091272 133510 6178 232872 12 400 4226 8016 9996 38496015 351492869745
18	8224782 128257 6178 232872 12 400 4085 8009 9982 37426558 343925201696
19	8353039 145587 6178 232872 12 400 4558 8037 9967 41276807 374983913539
20	8498626 155801 6178 232872 12 400 4912 8005 9979 44600404 406107081870
21	8654427 147048 6178 232872 12 400 4591 8028 9986 41890877 383018150397
22	8801475 173155 6178 232872 12 400 5363 8002 9993 48645056 442674247442
23	8974630 79130 6178 232872 12 400 2471 8044 9987 21967190 195927602946
24	9053760 116958 6178 232872 12 400 3643 8005 9921 33385937 306874180295

