version 2
run Exponential-capacity-17-20210216-13:45:49-14472
attr configname Exponential-capacity
attr datetime 20210216-13:45:49
attr experiment Exponential-capacity
attr inifile aerocom.ini
attr iterationvars "$0=0.5, $1=50, $2=0.5, $3=4"
attr iterationvarsf 0.5,50,0.5,4-
attr measurement "$0=0.5, $1=50, $2=0.5, $3=4"
attr network Aerocom
attr processid 14472
attr repetition 2
attr replication #2
attr resultdir results
attr runnumber 17
attr seedset 2
param **.t 0.5s
param **.k 50ms
param **.X 0.5s
param **.m 4s
param **.tDistribution "\"exponential\""
param **.operationMode 0
param **.s "70 byte"
param **.dimPoolMax 10000
param **.dimPoolMin 8000
param **.nDL 10
param **.nA 1
param **.DLMaxCapacity 0
param **.trasmitting false

vector 0 Aerocom.aircraft[0].packetGenerator arrivalTime:vector ETV
attr "" ""
attr source computeArrivalTime
vector 1 Aerocom.aircraft[0].linkSelector waitingTime:vector ETV
attr "" ""
attr source computeWaitingTime
vector 2 Aerocom.aircraft[0].linkSelector queueLength:vector ETV
attr "" ""
attr source computeQueueLength
vector 3 Aerocom.aircraft[0].dataLink[6] actualCapacity:vector ETV
attr "" ""
attr source computeActualCapacity
vector 4 Aerocom.aircraft[0].linkSelector serviceTime:vector ETV
attr "" ""
attr source computeServiceTime
vector 5 Aerocom.aircraft[0].linkSelector responseTime:vector ETV
attr "" ""
attr source computeResponseTime
vector 6 Aerocom.aircraft[0].dataLink[4] tDistribution:vector ETV
attr "" ""
attr source computeTDistribution
vector 7 Aerocom.aircraft[0].dataLink[9] tDistribution:vector ETV
attr "" ""
attr source computeTDistribution
vector 8 Aerocom.aircraft[0].dataLink[2] tDistribution:vector ETV
attr "" ""
attr source computeTDistribution
vector 9 Aerocom.aircraft[0].dataLink[1] tDistribution:vector ETV
attr "" ""
attr source computeTDistribution
vector 10 Aerocom.aircraft[0].dataLink[7] tDistribution:vector ETV
attr "" ""
attr source computeTDistribution
vector 11 Aerocom.aircraft[0].dataLink[5] tDistribution:vector ETV
attr "" ""
attr source computeTDistribution
vector 12 Aerocom.aircraft[0].dataLink[0] tDistribution:vector ETV
attr "" ""
attr source computeTDistribution
vector 13 Aerocom.aircraft[0].dataLink[8] tDistribution:vector ETV
attr "" ""
attr source computeTDistribution
vector 14 Aerocom.aircraft[0].dataLink[3] tDistribution:vector ETV
attr "" ""
attr source computeTDistribution
vector 15 Aerocom.aircraft[0].dataLink[6] tDistribution:vector ETV
attr "" ""
attr source computeTDistribution
vector 16 Aerocom.aircraft[0].dataLink[0] actualCapacity:vector ETV
attr "" ""
attr source computeActualCapacity
vector 17 Aerocom.aircraft[0].dataLink[1] actualCapacity:vector ETV
attr "" ""
attr source computeActualCapacity
vector 18 Aerocom.aircraft[0].dataLink[2] actualCapacity:vector ETV
attr "" ""
attr source computeActualCapacity
vector 19 Aerocom.aircraft[0].dataLink[3] actualCapacity:vector ETV
attr "" ""
attr source computeActualCapacity
vector 20 Aerocom.aircraft[0].dataLink[4] actualCapacity:vector ETV
attr "" ""
attr source computeActualCapacity
vector 21 Aerocom.aircraft[0].dataLink[5] actualCapacity:vector ETV
attr "" ""
attr source computeActualCapacity
vector 22 Aerocom.aircraft[0].dataLink[7] actualCapacity:vector ETV
attr "" ""
attr source computeActualCapacity
vector 23 Aerocom.aircraft[0].dataLink[8] actualCapacity:vector ETV
attr "" ""
attr source computeActualCapacity
vector 24 Aerocom.aircraft[0].dataLink[9] actualCapacity:vector ETV
attr "" ""
attr source computeActualCapacity
0	1194	10.009046581726	0.019478254405
0	1199	10.028524836131	0.02292942436
0	1204	10.051454260491	0.00124084291
0	1206	10.052695103401	0.088058607678
0	1214	10.140753711079	0.060531770836
0	1220	10.201285481915	0.016172402908
0	1226	10.217457884823	0.079679454295
0	1234	10.297137339118	0.006714203355
0	1236	10.303851542473	0.006547708414
0	1241	10.310399250887	0.041366061895
0	1249	10.351765312782	0.095155022514
0	1254	10.446920335296	0.015553608654
0	1259	10.46247394395	0.11879572873
0	1266	10.58126967268	0.074590507201
0	1275	10.655860179881	0.011027490382
0	1280	10.666887670263	0.009886361877
0	1285	10.67677403214	0.004556440046
0	1287	10.681330472186	0.076452071881
0	1298	10.757782544067	0.101157364566
0	1303	10.858939908633	0.046824202827
0	1311	10.90576411146	0.084299166182
0	1316	10.990063277642	0.002132270014
0	1318	10.992195547656	0.018111898043
0	1327	11.010307445699	0.041194139417
0	1332	11.051501585116	0.001299563155
0	1334	11.052801148271	0.055151762222
0	1343	11.107952910493	0.071259794599
0	1348	11.179212705092	0.139348666404
0	1355	11.318561371496	0.050914320359
0	1360	11.369475691855	0.077090332203
0	1366	11.446566024058	0.041555045935
0	1372	11.488121069993	0.069400886563
0	1378	11.557521956556	0.120117794117
0	1386	11.677639750673	0.03436332238
0	1391	11.712003073053	0.056458210862
0	1397	11.768461283915	0.002183620412
0	1399	11.770644904327	0.016676214346
0	1407	11.787321118673	0.084877265526
0	1416	11.872198384199	0.029891464616
0	1423	11.902089848815	0.000685869586
0	1425	11.902775718401	0.243208992601
0	1439	12.145984711002	0.039929961208
0	1443	12.18591467221	0.014591697247
0	1446	12.200506369457	0.041827415021
0	1450	12.242333784478	0.108134173002
0	1456	12.35046795748	0.005990911542
0	1458	12.356458869022	0.021131135656
0	1460	12.377590004678	0.003241661105
0	1462	12.380831665783	0.01660158356
0	1465	12.397433249343	0.042750871507
0	1468	12.44018412085	0.060471857484
0	1471	12.500655978334	0.033226554372
0	1486	12.533882532706	0.021685706983
0	1494	12.555568239689	0.017935429061
0	1506	12.57350366875	0.002379418011
0	1508	12.575883086761	0.002030452849
0	1510	12.57791353961	0.024348180181
0	1521	12.602261719791	0.050241636622
0	1538	12.652503356413	0.078050819919
0	1548	12.730554176332	0.006638622701
0	1550	12.737192799033	0.119573410839
0	1563	12.856766209872	0.00058368588
0	1565	12.857349895752	0.003572372235
0	1567	12.860922267987	0.01619425058
0	1575	12.877116518567	0.14588581515
0	1588	13.023002333717	0.017944264904
0	1594	13.040946598621	0.016423205704
0	1599	13.057369804325	0.009941918403
0	1604	13.067311722728	0.085385649478
0	1610	13.152697372206	0.003466323062
0	1612	13.156163695268	0.001567433483
0	1614	13.157731128751	0.075532586394
0	1628	13.233263715145	0.086501508296
0	1637	13.319765223441	0.025603692963
0	1644	13.345368916404	0.061961204038
0	1651	13.407330120442	0.014105868902
0	1656	13.421435989344	0.095207297421
0	1662	13.516643286765	0.037092947496
0	1668	13.553736234261	0.002230085089
0	1670	13.55596631935	0.014717592863
0	1679	13.570683912213	0.035347176494
0	1684	13.606031088707	0.095496236591
0	1691	13.701527325298	0.01161962281
0	1696	13.713146948108	0.033034345576
0	1702	13.746181293684	0.065680898182
0	1707	13.811862191866	0.048795395314
0	1713	13.86065758718	0.05175301263
0	1721	13.91241059981	0.180730359563
0	1733	14.093140959373	0.076661823714
0	1739	14.169802783087	0.021905680807
0	1744	14.191708463894	0.027993894319
0	1749	14.219702358213	0.012721755096
0	1754	14.232424113309	0.049742643065
0	1759	14.282166756374	0.192484828772
0	1768	14.474651585146	0.021802803708
0	1773	14.496454388854	0.044224394679
0	1778	14.540678783533	0.153570855608
0	1785	14.694249639141	0.199991880176
0	1793	14.894241519317	0.047885870808
0	1798	14.942127390125	0.173152701122
0	1807	15.115280091247	0.033726521172
0	1815	15.149006612419	0.061056616281
0	1823	15.2100632287	0.014811442141
0	1828	15.224874670841	0.000978808862
0	1830	15.225853479703	0.013516444051
0	1835	15.239369923754	0.047444621021
0	1844	15.286814544775	0.036867066277
0	1850	15.323681611052	0.014354723565
0	1855	15.338036334617	0.055447221923
0	1862	15.39348355654	0.006930683388
0	1864	15.400414239928	0.039893011945
0	1872	15.440307251873	0.022805914517
0	1877	15.46311316639	0.02401367532
0	1882	15.48712684171	0.011163021837
0	1888	15.498289863547	0.051639402936
0	1894	15.549929266483	0.072724680374
0	1899	15.622653946857	0.114029739139
0	1908	15.736683685996	0.136042464386
0	1916	15.872726150382	0.036470727199
0	1921	15.909196877581	0.001337860053
0	1923	15.910534737634	0.10652512558
0	1934	16.017059863214	0.014789987261
0	1936	16.031849850475	0.01076301381
0	1938	16.042612864285	0.01547580515
0	1941	16.058088669435	0.086863964978
0	1945	16.144952634413	0.007676660298
0	1947	16.152629294711	0.019577990651
0	1949	16.172207285362	0.151308858488
0	1957	16.32351614385	0.05906552658
0	1959	16.38258167043	0.014225153049
0	1961	16.396806823479	0.060578178624
0	1963	16.457385002103	0.022017283538
0	1965	16.479402285641	0.078059833712
0	1989	16.557462119353	0.002508858334
0	1994	16.559970977687	0.011822671491
0	1999	16.571793649178	0.013599010943
0	2007	16.585392660121	0.053497678884
0	2025	16.638890339005	0.107204230841
0	2032	16.746094569846	0.122543612153
0	2039	16.868638181999	0.166816872754
0	2047	17.035455054753	0.013072780907
0	2053	17.04852783566	0.053359725757
0	2058	17.101887561417	0.002957418417
0	2060	17.104844979834	0.017610041742
0	2068	17.122455021576	0.017152781437
0	2073	17.139607803013	0.003058461977
0	2075	17.14266626499	0.02936697242
0	2083	17.17203323741	0.099915750194
0	2089	17.271948987604	0.000397627652
0	2091	17.272346615256	0.008429270103
0	2096	17.280775885359	0.073853523777
0	2106	17.354629409136	0.015704594458
0	2111	17.370334003594	0.012987051098
0	2116	17.383321054692	0.039726297965
0	2121	17.423047352657	0.059776369951
0	2128	17.482823722608	0.014536163629
0	2133	17.497359886237	0.088139481701
0	2140	17.585499367938	0.093112772711
0	2145	17.678612140649	0.039402417086
0	2152	17.718014557735	0.034879339608
0	2157	17.752893897343	0.034976209872
0	2163	17.787870107215	0.033149272514
0	2169	17.821019379729	0.007896661939
0	2172	17.828916041668	0.117830224172
0	2180	17.94674626584	0.059151491344
0	2186	18.005897757184	0.123413326806
0	2193	18.12931108399	0.01402479061
0	2199	18.1433358746	0.013829042721
0	2204	18.157164917321	0.027806471894
0	2211	18.184971389215	0.000947261188
0	2213	18.185918650403	0.050651565992
0	2221	18.236570216395	0.055477043725
0	2226	18.29204726012	0.006527548348
0	2228	18.298574808468	0.015774141493
0	2236	18.314348949961	0.153494738885
0	2244	18.467843688846	0.000720488957
0	2246	18.468564177803	0.02736421928
0	2254	18.495928397083	0.005108856887
0	2256	18.50103725397	0.029844168931
0	2265	18.530881422901	0.027136261243
0	2270	18.558017684144	0.012555793214
0	2275	18.570573477358	0.006422827828
0	2277	18.576996305186	0.007816517163
0	2283	18.584812822349	0.011602214367
0	2291	18.596415036716	0.068265104615
0	2301	18.664680141331	0.068335462913
0	2306	18.733015604244	0.095491963435
0	2315	18.828507567679	0.03041163286
0	2320	18.858919200539	0.029101571156
0	2325	18.888020771695	0.006024251104
0	2327	18.894045022799	0.015089125506
0	2335	18.909134148305	0.012124198046
0	2341	18.921258346351	0.005110176688
0	2343	18.926368523039	0.133137057263
0	2353	19.059505580302	0.003182260101
0	2355	19.062687840403	0.000396303985
0	2357	19.063084144388	0.00706484797
0	2362	19.070148992358	0.051343217317
0	2374	19.121492209675	0.154554450074
0	2382	19.276046659749	0.051734365893
0	2389	19.327781025642	0.077287762143
0	2398	19.405068787785	0.057010992896
0	2407	19.462079780681	0.019376226343
0	2412	19.481456007024	0.043155684384
0	2418	19.524611691408	0.028161716732
0	2424	19.55277340814	0.07674626486
0	2429	19.629519673	0.037236341024
0	2437	19.666756014024	0.086255677597
0	2442	19.753011691621	0.041592364388
0	2448	19.794604056009	0.05204019294
0	2455	19.846644248949	0.07881201901
0	2461	19.925456267959	0.009900578353
0	2466	19.935356846312	0.005834180142
0	2469	19.941191026454	0.064781201962
0	2479	20.005972228416	0.030035745362
0	2482	20.036007973778	0.016753507149
0	2484	20.052761480927	0.040334755331
0	2487	20.093096236258	0.09209263709
0	2490	20.185188873348	0.122226180225
0	2493	20.307415053573	0.042217942432
0	2495	20.349632996005	0.128862630964
0	2499	20.478495626969	0.004456186788
0	2502	20.482951813757	0.03259630884
0	2511	20.515548122597	0.12092909688
0	2539	20.636477219477	0.00589790084
0	2541	20.642375120317	0.031037224607
0	2549	20.673412344924	0.060531537074
0	2556	20.733943881998	0.143150800031
0	2564	20.877094682029	0.035199516472
0	2569	20.912294198501	0.002066746197
0	2571	20.914360944698	0.005580501023
0	2576	20.919941445721	0.005683915472
0	2578	20.925625361193	0.106845281428
0	2590	21.032470642621	0.070471924897
0	2596	21.102942567518	0.003474590386
0	2598	21.106417157904	0.00213376812
0	2600	21.108550926024	0.028676109457
0	2611	21.137227035481	0.030034156982
0	2616	21.167261192463	0.058839526968
0	2622	21.226100719431	0.084664306236
0	2627	21.310765025667	0.012340120963
0	2632	21.32310514663	0.027167246157
0	2637	21.350272392787	0.007054982237
0	2639	21.357327375024	0.010533528015
0	2648	21.367860903039	0.088254591318
0	2656	21.456115494357	0.092706405357
0	2663	21.548821899714	0.040318789291
0	2669	21.589140689005	0.005672228651
0	2671	21.594812917656	0.01271121548
0	2679	21.607524133136	0.016985173845
0	2684	21.624509306981	0.041221856779
0	2689	21.66573116376	0.012229135763
0	2694	21.677960299523	0.087535607477
0	2701	21.765495907	0.031205989078
0	2706	21.796701896078	0.11664408686
0	2712	21.913345982938	0.019253014501
0	2719	21.932598997439	0.049420193947
0	2724	21.982019191386	0.119896559204
0	2732	22.10191575059	0.07906385829
0	2737	22.18097960888	0.077001977618
0	2743	22.257981586498	0.059892801234
0	2750	22.317874387732	0.061166393665
0	2758	22.379040781397	0.026862182012
0	2763	22.405902963409	0.007535531574
0	2765	22.413438494983	0.013992029394
0	2773	22.427430524377	0.047314478702
0	2779	22.474745003079	0.039635110693
0	2784	22.514380113772	0.095356840896
0	2791	22.609736954668	0.129419599683
0	2799	22.739156554351	0.128699002799
0	2807	22.86785555715	0.044531608375
0	2814	22.912387165525	0.054266631212
0	2821	22.966653796737	0.030527391571
0	2828	22.997181188308	0.014986347806
0	2833	23.012167536114	0.041953978026
0	2838	23.05412151414	0.016203451015
0	2843	23.070324965155	0.02812987469
0	2849	23.098454839845	0.050458418082
0	2855	23.148913257927	0.015146096511
0	2861	23.164059354438	0.064441345855
0	2866	23.228500700293	0.004179622324
0	2868	23.232680322617	0.018234437584
0	2876	23.250914760201	0.135834589748
0	2882	23.386749349949	0.056654377788
0	2889	23.443403727737	0.013038878024
0	2894	23.456442605761	0.03531095702
0	2899	23.491753562781	0.00067831831
0	2901	23.492431881091	0.088417506206
0	2910	23.580849387297	0.027323752591
0	2916	23.608173139888	0.057489710536
0	2923	23.665662850424	0.003406651623
0	2926	23.669069502047	0.120453542699
0	2936	23.789523044746	0.036967010157
0	2941	23.826490054903	0.006388238033
0	2943	23.832878292936	0.024408332459
0	2952	23.857286625395	0.091545747767
0	2959	23.948832373162	0.013346581661
0	2964	23.962178954823	0.148085727796
0	2972	24.110264682619	0.041463487409
0	2974	24.151728170028	0.042621324945
0	2977	24.194349494973	0.012076795583
0	2979	24.206426290556	0.000207682196
0	2981	24.206633972752	0.008545882413
0	2983	24.215179855165	0.001704334548
0	2985	24.216884189713	0.050369592995
0	2987	24.267253782708	0.026591059171
0	2990	24.293844841879	0.017979583736
0	2992	24.311824425615	0.030650046468
0	2996	24.342474472083	0.112712127925
0	2999	24.455186600008	0.032471044969
0	3002	24.487657644977	0.052622433494
0	3020	24.540280078471	0.057194216765
0	3047	24.597474295236	0.114557581459
0	3059	24.712031876695	0.070302702475
0	3064	24.78233457917	0.013260777666
0	3069	24.795595356836	0.085958376396
0	3075	24.881553733232	0.01499057244
0	3081	24.896544305672	0.021256037454
0	3087	24.917800343126	0.072922449243
0	3095	24.990722792369	0.047719119156
0	3104	25.038441911525	0.015269790911
0	3109	25.053711702436	0.024950398232
0	3115	25.078662100668	0.050634242017
0	3123	25.129296342685	0.064612095064
0	3129	25.193908437749	0.05092066687
0	3135	25.244829104619	0.041445211636
0	3140	25.286274316255	0.035165900113
0	3147	25.321440216368	0.045166076531
0	3153	25.366606292899	0.066890834968
0	3159	25.433497127867	0.024529635863
0	3164	25.45802676373	0.091089617611
0	3170	25.549116381341	0.0503190236
0	3176	25.599435404941	0.079887996393
0	3183	25.679323401334	0.101169121959
0	3189	25.780492523293	0.041357007608
0	3198	25.821849530901	0.052733660773
0	3203	25.874583191674	0.145407696259
0	3210	26.019990887933	0.006882365095
0	3212	26.026873253028	0.009127716046
0	3220	26.036000969074	0.004646256925
0	3222	26.040647225999	0.015996995528
0	3230	26.056644221527	0.056577394708
0	3235	26.113221616235	0.003519502806
0	3237	26.116741119041	0.021971322907
0	3245	26.138712441948	0.057053518777
0	3250	26.195765960725	0.018896851514
0	3255	26.214662812239	0.008818718917
0	3260	26.223481531156	0.110388132843
0	3268	26.333869663999	0.02143729412
0	3273	26.355306958119	0.099723920102
0	3279	26.455030878221	0.009028421345
0	3284	26.464059299566	0.081907902041
0	3292	26.545967201607	0.021929492285
0	3297	26.567896693892	0.022105671319
0	3302	26.590002365211	0.020917934804
0	3308	26.610920300015	0.05119118831
0	3313	26.662111488325	0.015183771474
0	3319	26.677295259799	0.045668816989
0	3325	26.722964076788	0.159866546349
0	3335	26.882830623137	0.013429432815
0	3340	26.896260055952	0.09469038776
0	3348	26.990950443712	0.044542878122
0	3353	27.035493321834	0.042255377966
0	3358	27.0777486998	0.290567928354
0	3371	27.368316628154	0.000527871234
0	3373	27.368844499388	0.002695078852
0	3375	27.37153957824	0.040511986824
0	3387	27.412051565064	0.013558978002
0	3392	27.425610543066	0.229508986543
0	3400	27.655119529609	0.020097571805
0	3405	27.675217101414	0.096451190992
0	3411	27.771668292406	0.080705990662
0	3421	27.852374283068	0.0172142355
0	3426	27.869588518568	0.02932052996
0	3431	27.898909048528	0.033063791094
0	3436	27.931972839622	0.003238848333
0	3438	27.935211687955	0.02675047333
0	3448	27.961962161285	0.019155110647
0	3453	27.981117271932	0.028779922441
0	3459	28.009897194373	0.088750810172
0	3465	28.098648004545	0.002345102742
0	3467	28.100993107287	0.067055965035
0	3469	28.168049072322	0.02513227458
0	3471	28.193181346902	0.016344359464
0	3473	28.209525706366	0.029312423175
0	3475	28.238838129541	0.065208105539
0	3480	28.30404623508	0.008533860468
0	3482	28.312580095548	0.019260588003
0	3485	28.331840683551	0.009864187022
0	3487	28.341704870573	0.008275663284
0	3489	28.349980533857	0.096912308409
0	3494	28.446892842266	0.209581547344
0	3538	28.65647438961	0.014081920255
0	3543	28.670556309865	0.01516551433
0	3548	28.685721824195	0.038673769674
0	3553	28.724395593869	0.046904737859
0	3558	28.771300331728	0.013490697281
0	3563	28.784791029009	0.124799338401
0	3570	28.90959036741	0.002587234732
0	3572	28.912177602142	0.051499624091
0	3582	28.963677226233	0.166995163026
0	3589	29.130672389259	0.027824243452
0	3594	29.158496632711	0.120795330339
0	3601	29.27929196305	0.025309815906
0	3609	29.304601778956	0.021994073357
0	3614	29.326595852313	0.002507150326
0	3616	29.329103002639	0.006073616269
0	3621	29.335176618908	0.004236876707
0	3623	29.339413495615	0.027197439013
0	3634	29.366610934628	0.029953751332
0	3640	29.39656468596	0.010096215934
0	3647	29.406660901894	0.127757452912
0	3654	29.534418354806	0.051412076619
0	3660	29.585830431425	0.013287513782
0	3665	29.599117945207	0.073733935807
0	3673	29.672851881014	0.1015741989
0	3679	29.774426079914	0.071620644259
0	3685	29.846046724173	0.08205339774
0	3691	29.928100121913	0.00336130926
0	3693	29.931461431173	0.009567349438
0	3698	29.941028780611	0.048678989209
0	3706	29.98970776982	0.018725761491
0	3711	30.008433531311	0.032275147299
0	3716	30.04070867861	0.027965551248
0	3721	30.068674229858	0.046474087653
0	3729	30.115148317511	0.098046917362
0	3734	30.213195234873	0.028152785216
0	3739	30.241348020089	0.050277403765
0	3746	30.291625423854	0.114896412239
0	3752	30.406521836093	0.087089676881
0	3759	30.493611512974	0.00948761051
0	3764	30.503099123484	0.034363434132
0	3771	30.537462557616	0.01491386997
0	3776	30.552376427586	0.043668835563
0	3782	30.596045263149	0.01143655242
0	3787	30.607481815569	0.030248778558
0	3792	30.637730594127	0.067172226131
0	3800	30.704902820258	0.014938612106
0	3806	30.719841432364	0.009740418526
0	3811	30.72958185089	0.048160813951
0	3817	30.777742664841	0.024236237697
0	3822	30.801978902538	0.042832449922
0	3827	30.84481135246	0.018661184667
0	3832	30.863472537127	0.101025920601
0	3839	30.964498457728	0.073475092209
0	3846	31.037973549937	0.129231886345
0	3854	31.167205436282	2.5964924e-005
0	3856	31.167231401206	0.042683669147
0	3864	31.209915070353	0.06959431893
0	3870	31.279509389283	0.059222001708
0	3875	31.338731390991	0.110751311947
0	3884	31.449482702938	0.024895205425
0	3889	31.474377908363	0.026104110783
0	3894	31.500482019146	0.056418636655
0	3901	31.556900655801	0.049915475432
0	3907	31.606816131233	0.316334433155
0	3916	31.923150564388	0.093091453324
0	3925	32.016242017712	0.140990070847
0	3931	32.157232088559	0.019952146893
0	3933	32.177184235452	0.007613118646
0	3935	32.184797354098	0.069622253525
0	3937	32.254419607623	0.139166973759
0	3945	32.393586581382	0.019449014937
0	3947	32.413035596319	0.001971230653
0	3949	32.415006826972	0.012284598707
0	3951	32.427291425679	0.001275361314
0	3953	32.428566786993	0.069497128655
0	3956	32.498063915648	0.009788505902
0	3962	32.50785242155	0.043494570896
0	3982	32.551346992446	0.018195619756
0	3992	32.569542612202	0.000617228025
0	3994	32.570159840227	0.209149925425
0	4018	32.779309765652	0.036221821343
0	4023	32.815531586995	0.143641623115
0	4032	32.95917321011	0.204768127459
0	4038	33.163941337569	0.07218676082
0	4045	33.236128098389	0.04815195955
0	4051	33.284280057939	0.048787453724
0	4056	33.333067511663	0.010988335015
0	4061	33.344055846678	0.173500974983
0	4068	33.517556821661	0.082888470679
0	4075	33.60044529234	0.042550467802
0	4081	33.642995760142	0.062309295088
0	4087	33.70530505523	0.011990301996
0	4092	33.717295357226	0.000363002999
0	4094	33.717658360225	0.007161990535
0	4099	33.72482035076	0.063830099746
0	4109	33.788650450506	0.072145229227
0	4116	33.860795679733	0.058579984389
0	4121	33.919375664122	0.037466653227
0	4127	33.956842317349	0.074117014556
0	4133	34.030959331905	0.085021388456
0	4138	34.115980720361	0.014726686287
0	4143	34.130707406648	0.078957817319
0	4152	34.209665223967	0.004277136732
0	4154	34.213942360699	0.05545995669
0	4165	34.269402317389	0.081020910471
0	4172	34.35042322786	0.074974985752
0	4177	34.425398213612	0.013665417145
0	4182	34.439063630757	0.058260821833
0	4189	34.49732445259	0.01389961275
0	4194	34.51122406534	0.027997709027
0	4199	34.539221774367	0.015153660093
0	4204	34.55437543446	0.088640504685
0	4210	34.643015939145	0.010631216954
0	4215	34.653647156099	0.123781528611
0	4221	34.77742868471	0.031426994971
0	4227	34.808855679681	0.075128330905
0	4236	34.883984010586	0.014829342612
0	4241	34.898813353198	0.004488011343
0	4244	34.903301364541	0.195583319159
0	4256	35.0988846837	0.149467121432
0	4263	35.248351805132	0.01357927154
0	4268	35.261931076672	0.032420709742
0	4273	35.294351786414	0.041052325632
0	4279	35.335404112046	0.108354758255
0	4284	35.443758870301	0.067111909316
0	4289	35.510870779617	0.00443912125
0	4291	35.515309900867	0.123601311352
0	4302	35.638911212219	0.139218553075
0	4311	35.778129765294	0.04531196882
0	4317	35.823441734114	0.018906379733
0	4322	35.842348113847	0.005099321321
0	4324	35.847447435168	0.027327992916
0	4333	35.874775428084	0.039435513203
0	4339	35.914210941287	0.057812888571
0	4344	35.972023829858	0.082905355084
0	4351	36.054929184942	0.004760292516
0	4353	36.059689477458	0.113594315002
0	4359	36.17328379246	0.011660644158
0	4361	36.184944436618	0.060361916521
0	4364	36.245306353139	0.043734786221
0	4366	36.28904113936	0.008525557428
0	4368	36.297566696788	0.024327111037
0	4370	36.321893807825	0.00258046908
0	4372	36.324474276905	0.00562482433
0	4374	36.330099101235	0.053001259877
0	4376	36.383100361112	0.000506808728
0	4378	36.38360716984	0.044066308175
0	4380	36.427673478015	0.113235581821
0	4400	36.540909059836	0.035250406002
0	4419	36.576159465838	0.055134839131
0	4438	36.631294304969	0.002244338533
0	4440	36.633538643502	0.01957306101
0	4448	36.653111704512	0.029922708704
0	4454	36.683034413216	0.108607164806
0	4463	36.791641578022	0.043886256274
0	4468	36.835527834296	0.170900359106
0	4475	37.006428193402	0.010402391614
0	4480	37.016830585016	0.004252908027
0	4482	37.021083493043	0.05306410088
0	4490	37.074147593923	0.015087718103
0	4495	37.089235312026	0.022176161905
0	4500	37.111411473931	0.037716200055
0	4507	37.149127673986	0.005509574819
0	4509	37.154637248805	0.126693213395
0	4521	37.2813304622	0.013206662889
0	4526	37.294537125089	0.013267099219
0	4531	37.307804224308	0.000414132001
0	4533	37.308218356309	0.136938975916
0	4545	37.445157332225	0.026715195519
0	4550	37.471872527744	0.115696453434
0	4557	37.587568981178	0.001500754296
0	4559	37.589069735474	0.020640056065
0	4568	37.609709791539	0.04838048513
0	4573	37.658090276669	0.012759808288
0	4578	37.670850084957	0.059866822555
0	4586	37.730716907512	0.010127610253
0	4592	37.740844517765	0.025493549261
0	4597	37.766338067026	0.002827326527
0	4599	37.769165393553	0.178023204709
0	4610	37.947188598262	0.156269213294
0	4617	38.103457811556	0.045330449341
0	4624	38.148788260897	0.007938761669
0	4629	38.156727022566	0.083693053958
0	4634	38.240420076524	0.158235122183
0	4641	38.398655198707	0.008941688714
0	4646	38.407596887421	0.020709722444
0	4653	38.428306609865	0.052717478342
0	4661	38.481024088207	0.003057190225
0	4663	38.484081278432	0.003115659363
0	4665	38.487196937795	0.085526859134
0	4677	38.572723796929	0.002804548943
0	4679	38.575528345872	0.081329843224
0	4687	38.656858189096	0.022760485381
0	4692	38.679618674477	0.031118075677
0	4697	38.710736750154	0.069039787716
0	4703	38.77977653787	0.073998313255
0	4713	38.853774851125	0.017493020756
0	4718	38.871267871881	0.069079117052
0	4724	38.940346988933	0.094960522283
0	4729	39.035307511216	0.029954813285
0	4735	39.065262324501	0.00453423925
0	4737	39.069796563751	0.016659880751
0	4746	39.086456444502	0.077636271719
0	4753	39.164092716221	0.007686093007
0	4758	39.171778809228	0.018099961573
0	4763	39.189878770801	0.120443859408
0	4770	39.310322630209	0.160429275121
0	4780	39.47075190533	0.004120503165
0	4782	39.474872408495	0.063227160615
0	4791	39.53809956911	0.064669504279
0	4796	39.602769073389	0.055677419983
0	4804	39.658446493372	0.004043280133
0	4806	39.662489773505	0.021400199548
0	4814	39.683889973053	0.055426379723
0	4820	39.739316352776	0.008529656337
0	4827	39.747846009113	0.003109390016
0	4829	39.750955399129	0.065801421238
0	4838	39.816756820367	0.005897188363
0	4840	39.82265400873	0.205610146854
0	4854	40.028264155584	0.032250528442
0	4856	40.060514684026	0.003630791514
0	4858	40.06414547554	0.004221166846
0	4860	40.068366642386	0.110145771783
0	4867	40.178512414169	0.001623732571
0	4869	40.18013614674	0.025637173766
0	4871	40.205773320506	0.051029438172
0	4874	40.256802758678	0.114980336687
0	4878	40.371783095365	0.112772803
0	4881	40.484555898365	0.001245195174
0	4883	40.485801093539	0.033008121208
0	4892	40.518809214747	0.039073154365
0	4909	40.557882369112	0.090903278929
0	4932	40.648785648041	0.050237228941
0	4939	40.699022876982	0.061719432438
0	4948	40.76074230942	0.019372569866
0	4953	40.780114879286	0.135175474219
0	4958	40.915290353505	0.01811598678
0	4963	40.933406340285	0.18317192598
0	4970	41.116578266265	0.094247009205
0	4977	41.21082527547	0.044355640539
0	4982	41.255180916009	0.050325834816
0	4989	41.305506750825	0.146008365735
0	4997	41.45151511656	0.004277804516
0	4999	41.455792921076	0.061097534939
0	5010	41.516890456015	0.066455402267
0	5015	41.583345858282	0.031243975241
0	5021	41.614589833523	0.007069582125
0	5023	41.621659415648	0.123270239748
0	5036	41.744929655396	0.109963638409
0	5046	41.854893293805	0.043326848409
0	5051	41.898220142214	0.065423619399
0	5056	41.963643761613	0.013669209724
0	5061	41.977312971337	0.008357390193
0	5066	41.98567036153	0.024673928335
0	5072	42.010344289865	0.01954122728
0	5077	42.029885517145	0.02741909752
0	5082	42.057304614665	0.009378042583
0	5087	42.066682657248	0.008959952055
0	5094	42.075642609303	0.0865488096
0	5101	42.162191418903	0.001265879672
0	5103	42.163457298575	0.148483457636
0	5113	42.311940756211	0.002702293576
0	5115	42.314643049787	0.000406111803
0	5117	42.31504916159	0.056717133105
0	5128	42.371766294695	0.004249848421
0	5130	42.376016143116	0.014643143958
0	5138	42.390659287074	0.030572750557
0	5143	42.421232037631	0.008246973855
0	5148	42.429479011486	0.037689316871
0	5154	42.467168328357	0.011006344601
0	5159	42.478174672958	0.095819189687
0	5167	42.573993862645	0.085265321097
0	5172	42.659259183742	0.021527457146
0	5177	42.680786640888	0.111170904726
0	5183	42.791957545614	0.01027595631
0	5189	42.802233501924	0.030286060859
0	5194	42.832519562783	0.0165540458
0	5199	42.849073608583	0.067515949832
0	5207	42.916589558415	0.001525110205
0	5209	42.91811466862	0.042787009422
0	5217	42.960901678042	0.016936729431
0	5222	42.977838407473	0.033521865734
0	5229	43.011360273207	0.056243440769
0	5235	43.067603713976	0.051697375435
0	5240	43.119301089411	0.042435242898
0	5245	43.161736332309	0.148123361573
0	5253	43.309859693882	0.050304692486
0	5259	43.360164386368	0.081086405851
0	5265	43.441250792219	0.171708411066
0	5280	43.612959203285	0.026418003035
0	5286	43.63937720632	0.028038796151
0	5291	43.667416002471	0.014478189234
0	5296	43.681894191705	0.012132716367
0	5301	43.694026908072	0.000131360143
0	5303	43.694158268215	0.001144323835
0	5305	43.69530259205	0.017214599895
0	5314	43.712517191945	0.05637925229
0	5324	43.768896444235	0.193648951069
0	5333	43.962545395304	0.000772503928
0	5335	43.963317899232	0.027572394114
0	5343	43.990890293346	0.007941425357
0	5348	43.998831718703	0.038835554997
0	5354	44.0376672737	0.033878586456
0	5357	44.071545860156	0.003289348134
0	5359	44.07483520829	0.007487093348
0	5361	44.082322301638	0.007669856088
0	5363	44.089992157726	0.04471521534
0	5365	44.134707373066	0.212008687533
0	5369	44.346716060599	0.0119803542
0	5373	44.358696414799	0.038364160772
0	5375	44.397060575571	0.078103987409
0	5381	44.47516456298	0.012497436635
0	5383	44.487661999615	0.004459840072
0	5385	44.492121839687	0.051352371789
0	5402	44.543474211476	0.027511707213
0	5416	44.570985918689	0.064886430259
0	5440	44.635872348948	0.003838081361
0	5442	44.639710430309	0.035070403365
0	5450	44.674780833674	0.028675161451
0	5456	44.703455995125	0.019936459963
0	5461	44.723392455088	0.065647487495
0	5467	44.789039942583	0.064042449916
0	5474	44.853082392499	0.012910084339
0	5479	44.865992476838	0.006974713055
0	5482	44.872967189893	0.006522444443
0	5487	44.879489634336	0.063736426088
0	5495	44.943226060424	0.179877698622
0	5518	45.123103759046	0.029687397922
0	5525	45.152791156968	0.031664026022
0	5531	45.18445518299	0.036342077598
0	5538	45.220797260588	0.144129656845
0	5549	45.364926917433	0.049282769189
0	5559	45.414209686622	0.048343268347
0	5565	45.462552954969	0.098160743314
0	5571	45.560713698283	0.005018552258
0	5573	45.565732250541	0.018937046137
0	5581	45.584669296678	0.001158087326
0	5583	45.585827384004	0.05955539415
0	5592	45.645382778154	0.110298431882
0	5604	45.755681210036	0.006198105095
0	5607	45.761879315131	0.045871280895
0	5616	45.807750596026	0.028863014814
0	5621	45.83661361084	0.036335481541
0	5627	45.872949092381	0.06314676904
0	5634	45.936095861421	0.200929023027
0	5646	46.137024884448	0.110328428684
0	5656	46.247353313132	0.142044999296
0	5670	46.389398312428	0.040726648317
0	5676	46.430124960745	0.068362766292
0	5686	46.498487727037	0.050171842212
0	5691	46.548659569249	0.013244490503
0	5696	46.561904059752	0.037990072798
0	5701	46.59989413255	0.136762016331
0	5709	46.736656148881	0.02121398766
0	5715	46.757870136541	0.030991729463
0	5721	46.788861866004	0.093465045856
0	5728	46.88232691186	0.055234053054
0	5734	46.937560964914	0.042695617143
0	5743	46.980256582057	0.030957733309
0	5749	47.011214315366	0.015119419035
0	5754	47.026333734401	0.006204509094
0	5756	47.032538243495	0.079754972734
0	5768	47.112293216229	0.007354279529
0	5770	47.119647495758	0.089942425358
0	5781	47.209589921116	0.079892631777
0	5788	47.289482552893	0.030154815521
0	5795	47.319637368414	0.197884742707
0	5809	47.517522111121	0.056911463336
0	5817	47.574433574457	0.019352269515
0	5822	47.593785843972	0.004895396014
0	5824	47.598681239986	0.05405400937
0	5836	47.652735249356	0.064109384824
0	5842	47.71684463418	0.034946257874
0	5848	47.751790892054	0.020509369099
0	5854	47.772300261153	0.041789104489
0	5860	47.814089365642	0.001140020669
0	5862	47.815229386311	0.118595086436
0	5874	47.933824472747	0.0610584855
0	5879	47.994882958247	0.002422227951
0	5881	47.997305186198	0.039731246324
0	5892	48.037036432522	0.01899021283
0	5898	48.056026645352	0.088091015414
0	5909	48.144117660766	0.085741647827
0	5919	48.229859308593	0.006120620617
0	5921	48.23597992921	0.025992602865
0	5931	48.261972532075	0.24959494678
0	5946	48.511567478855	0.130656587022
0	5956	48.642224065877	0.020212334962
0	5962	48.662436400839	0.046683032784
0	5967	48.709119433623	0.007190412927
0	5969	48.71630984655	0.023115290746
0	5978	48.739425137296	0.002164921535
0	5980	48.741590058831	0.041057868283
0	5991	48.782647927114	0.019345987075
0	5996	48.801993914189	0.025310317389
0	6002	48.827304231578	0.011779063243
0	6008	48.839083294821	0.14254553391
0	6019	48.981628828731	0.042703386679
0	6026	49.02433221541	0.110526587672
0	6031	49.134858803082	0.158967189562
0	6043	49.293825992644	0.086858582604
0	6051	49.380684575248	0.012218217514
0	6056	49.392902792762	0.060606680038
0	6064	49.4535094728	0.019958460605
0	6069	49.473467933405	0.079157202487
0	6077	49.552625135892	0.015470271824
0	6082	49.568095407716	0.008336390809
0	6085	49.576431798525	0.015808382949
0	6093	49.592240181474	0.010923915735
0	6098	49.603164097209	0.058092556752
0	6105	49.661256653961	0.009253149064
0	6110	49.670509803025	0.111851801532
0	6118	49.782361604557	0.065001137683
0	6127	49.84736274224	0.043883738579
0	6133	49.891246480819	0.00239427576
0	6135	49.893640756579	0.025597716144
0	6144	49.919238472723	0.053052822334
0	6152	49.972291295057	0.027734626472
0	6159	50.000025921529	0.03860215447
0	6165	50.038628075999	0.040258319522
0	6173	50.078886395521	0.257402289878
0	6196	50.336288685399	0.018225930304
0	6201	50.354514615703	0.001989704607
0	6204	50.35650432031	0.014899655931
0	6212	50.371403976241	0.019910529357
0	6217	50.391314505598	0.120352141065
0	6228	50.511666646663	0.013787012063
0	6233	50.525453658726	0.035821301297
0	6239	50.561274960023	0.023986698424
0	6244	50.585261658447	0.006368189699
0	6247	50.591629848146	0.10374740289
0	6255	50.695377251036	0.042266688856
0	6260	50.737643939892	0.012102870799
0	6265	50.749746810691	0.014381730033
0	6270	50.764128540724	0.003281160346
0	6272	50.76740970107	0.000270482297
0	6274	50.767680183367	0.032091928982
0	6285	50.799772112349	0.042443616102
0	6291	50.842215728451	0.075044537511
0	6302	50.917260265962	0.022173880292
0	6308	50.939434146254	0.152503268815
0	6317	51.091937415069	0.057487294964
0	6326	51.149424710033	0.085961497938
0	6333	51.235386207971	0.04759520146
0	6342	51.282981409431	0.002196854035
0	6344	51.285178263466	0.009540897065
0	6350	51.294719160531	0.129126510826
0	6362	51.423845671357	0.017930978073
0	6368	51.44177664943	0.050419845004
0	6377	51.492196494434	0.062916053625
0	6383	51.555112548059	0.025496821918
0	6388	51.580609369977	0.028166087043
0	6394	51.60877545702	0.200385155035
0	6409	51.809160612055	0.007235263473
0	6411	51.816395875528	0.005164758349
0	6416	51.821560633877	0.00955534243
0	6421	51.831115976307	0.029881351045
0	6429	51.860997327352	0.064672282097
0	6434	51.925669609449	0.004122364605
0	6436	51.929791974054	0.048968494735
0	6447	51.978760468789	0.015936529816
0	6453	51.994696998605	0.040529647426
0	6463	52.035226646031	0.123095359139
0	6472	52.15832200517	0.002870010778
0	6474	52.161192015948	0.323646684947
0	6493	52.484838700895	0.02459048476
0	6500	52.509429185655	0.009354785815
0	6505	52.51878397147	0.029505467417
0	6511	52.548289438887	0.01666432374
0	6516	52.564953762627	0.043895298185
0	6522	52.608849060812	0.061873409893
0	6529	52.670722470705	0.059550736863
0	6535	52.730273207568	0.003598742189
0	6537	52.733871949757	0.06327212343
0	6549	52.797144073187	0.025372060342
0	6555	52.822516133529	0.044823336895
0	6560	52.867339470424	0.235723962015
0	6575	53.103063432439	0.015785036926
0	6582	53.118848469365	0.161435626578
0	6594	53.280284095943	0.026238536172
0	6601	53.306522632115	0.062246795987
0	6608	53.368769428102	0.074724714262
0	6616	53.443494142364	0.116126319235
0	6624	53.559620461599	0.031328445749
0	6629	53.590948907348	0.026625951021
0	6638	53.617574858369	0.025870007517
0	6644	53.643444865886	0.046510436341
0	6651	53.689955302227	0.096389284169
0	6659	53.786344586396	0.070818955501
0	6668	53.857163541897	0.265891812447
0	6678	54.123055354344	0.122902318726
0	6688	54.24595767307	0.027251555522
0	6693	54.273209228592	0.000113686042
0	6695	54.273322914634	0.05028257759
0	6706	54.323605492224	0.208656358734
0	6715	54.532261850958	0.121122185728
0	6724	54.653384036686	0.009017831712
0	6730	54.662401868398	0.008389612372
0	6735	54.67079148077	0.086196252265
0	6742	54.756987733035	0.017208527981
0	6747	54.774196261016	0.030155463186
0	6754	54.804351724202	0.052101204606
0	6761	54.856452928808	0.056607216207
0	6768	54.913060145015	0.009823281862
0	6773	54.922883426877	0.003977800189
0	6775	54.926861227066	0.016432373545
0	6784	54.943293600611	0.015122545748
0	6789	54.958416146359	0.137602422115
0	6799	55.096018568474	0.03070925678
0	6804	55.126727825254	0.018908974556
0	6810	55.14563679981	0.09521219649
0	6820	55.2408489963	0.005049543128
0	6823	55.245898539428	0.119465376261
0	6840	55.365363915689	0.034590404206
0	6845	55.399954319895	0.01614638345
0	6850	55.416100703345	0.003953200059
0	6852	55.420053903404	0.003562068653
0	6855	55.423615972057	0.014449373882
0	6868	55.438065345939	0.019159134559
0	6875	55.457224480498	0.155246060632
0	6882	55.61247054113	0.02381783643
0	6888	55.63628837756	0.092108793186
0	6896	55.728397170746	0.044249056725
0	6904	55.772646227471	0.00805133747
0	6906	55.780697564941	0.010671593132
0	6914	55.791369158073	0.01413130853
0	6920	55.805500466603	0.032740902006
0	6926	55.838241368609	0.00281580055
0	6928	55.841057169159	0.027553093648
0	6937	55.868610262807	0.011147036547
0	6943	55.879757299354	0.079869194142
0	6953	55.959626493496	0.082779809447
0	6964	56.042406302943	0.005962169337
0	6966	56.04836847228	0.123195061701
0	6980	56.171563533981	0.002392478593
0	6982	56.173956012574	0.049037602405
0	6990	56.222993614979	0.059887449683
0	6997	56.282881064662	0.004466741805
0	6999	56.287347806467	0.033125156298
0	7010	56.320472962765	0.034787187469
0	7018	56.355260150234	0.017171594402
0	7024	56.372431744636	0.055051783254
0	7031	56.42748352789	0.105295378517
0	7042	56.532778906407	0.005633982474
0	7044	56.538412888881	0.101676426155
0	7053	56.640089315036	0.043639438788
0	7059	56.683728753824	0.004568441164
0	7061	56.688297194988	0.070454515699
0	7070	56.758751710687	0.031028990037
0	7075	56.789780700724	0.02435685157
0	7081	56.814137552294	0.054151953796
0	7088	56.86828950609	0.087326558276
0	7097	56.955616064366	0.032215542044
0	7102	56.98783160641	0.009302758886
0	7107	56.997134365296	0.004900479256
0	7109	57.002034844552	0.015319488348
0	7117	57.0173543329	0.062107573726
0	7123	57.079461906626	0.081727067332
0	7130	57.161188973958	0.085499137718
0	7135	57.246688111676	0.057686425107
0	7141	57.304374536783	0.154199660307
0	7150	57.45857419709	0.076162467908
0	7157	57.534736664998	0.004557237884
0	7160	57.539293902882	0.009839971466
0	7165	57.549133874348	0.02843935571
0	7175	57.577573230058	0.1533164728
0	7185	57.730889702858	0.005959975456
0	7187	57.736849678314	0.009737099439
0	7193	57.746586777753	0.01314191896
0	7201	57.759728696713	0.059691832123
0	7207	57.819420528836	0.024801311482
0	7212	57.844221840318	0.018447411151
0	7217	57.862669251469	0.006520948868
0	7219	57.869190200337	0.035581744169
0	7228	57.904771944506	0.00928748904
0	7234	57.914059433546	0.122958552721
0	7243	58.037017986267	0.028240343676
0	7249	58.065258329943	0.075198267735
0	7254	58.140456597678	0.034355764007
0	7259	58.174812361685	0.069121458008
0	7265	58.243933819693	0.08292450325
0	7270	58.326858322943	0.005873886654
0	7272	58.332732209597	0.068255150752
0	7283	58.400987360349	0.122223837012
0	7291	58.523211197361	0.016408054855
0	7296	58.539619252216	0.116691983513
0	7302	58.656311235729	0.179170524591
0	7309	58.83548176032	0.207119361497
0	7316	59.042601121817	0.080260291193
0	7321	59.12286141301	0.005996358997
0	7323	59.128857772007	0.117897949543
0	7334	59.24675572155	0.024128323744
0	7339	59.270884045294	0.030906542905
0	7345	59.301790588199	0.016076542528
0	7350	59.317867130727	0.065777792371
0	7356	59.383644923098	0.094427814874
0	7363	59.478072737972	0.072035178065
0	7371	59.550107916037	0.114701960696
0	7377	59.664809876733	0.019590380916
0	7382	59.684400257649	0.035179360687
0	7387	59.719579618336	0.026084648256
0	7392	59.745664266592	0.012505343836
0	7397	59.758169610428	0.220883437617
0	7405	59.979053048045	0.002472736572
0	7407	59.981525784617	0.022829191909
0	7416	60.004354976526	0.106416475608
0	7421	60.110771452134	0.012055941933
0	7423	60.122827394067	0.148225477325
0	7428	60.271052871392	0.020572475176
0	7431	60.291625346568	0.070258889064
0	7435	60.361884235632	0.04033308828
0	7437	60.402217323912	0.086859035191
0	7442	60.489076359103	0.068101462695
0	7467	60.557177821798	0.018625827458
0	7475	60.575803649256	0.037102750681
0	7481	60.612906399937	0.006905126442
0	7484	60.619811526379	0.006407330628
0	7489	60.626218857007	0.005313682675
0	7494	60.631532539682	0.051737719973
0	7503	60.683270259655	0.055732873202
0	7509	60.739003132857	0.091049113205
0	7516	60.830052246062	0.007650299853
0	7521	60.837702545915	0.040322405448
0	7527	60.878024951363	0.12822109805
0	7535	61.006246049413	0.012643928198
0	7540	61.018889977611	0.014045960802
0	7545	61.032935938413	0.048999332036
0	7552	61.081935270449	0.068929290809
0	7559	61.150864561258	0.131885067086
0	7569	61.282749628344	0.047214318486
0	7574	61.32996394683	0.044719881373
0	7581	61.374683828203	0.021147128124
0	7586	61.395830956327	0.022420497323
0	7591	61.41825145365	0.049879174861
0	7597	61.468130628511	0.030487744948
0	7602	61.498618373459	0.000904773889
0	7604	61.499523147348	0.044946522503
0	7612	61.544469669851	0.072293190562
0	7619	61.616762860413	0.006868922668
0	7621	61.623631783081	0.009435451207
0	7629	61.633067234288	0.082251407644
0	7638	61.715318641932	0.047389908828
0	7643	61.76270855076	0.101279869411
0	7650	61.863988420171	0.006255875236
0	7652	61.870244295407	0.007222514938
0	7657	61.877466810345	0.042244581681
0	7665	61.919711392026	0.009636778402
0	7670	61.929348170428	0.066148315059
0	7677	61.995496485487	0.011517660727
0	7682	62.007014146214	0.079624710897
0	7691	62.086638857111	0.04339097493
0	7697	62.130029832041	0.007324117303
0	7702	62.137353949344	0.067462997319
0	7708	62.204816946663	0.032393557883
0	7713	62.237210504546	0.046591029826
0	7718	62.283801534372	0.0264695732
0	7723	62.310271107572	0.044008329633
0	7730	62.354279437205	0.025465385187
0	7735	62.379744822392	0.042146907565
0	7740	62.421891729957	0.088793787554
0	7746	62.510685517511	0.120782637481
0	7752	62.631468154992	0.010395188993
0	7757	62.641863343985	0.00604814999
0	7759	62.647911493975	0.071672830657
0	7770	62.719584324632	0.037727148409
0	7775	62.757311473041	0.066551469303
0	7780	62.823862942344	0.002756295134
0	7782	62.826619237478	0.02744653556
0	7790	62.854065773038	0.009286921392
0	7796	62.86335269443	0.007369715578
0	7801	62.870722410008	0.077569462712
0	7808	62.94829187272	0.060951230439
0	7813	63.009243103159	0.005463846451
0	7815	63.01470694961	0.103991389272
0	7825	63.118698338882	0.039967733063
0	7831	63.158666071945	0.00967099135
0	7837	63.168337063295	0.035991434892
0	7842	63.204328498187	0.006253320292
0	7844	63.210581818479	0.129077311392
0	7855	63.339659129871	0.011824373901
0	7860	63.351483503772	0.01442271595
0	7865	63.365906219722	0.029302427652
0	7870	63.395208647374	0.044433141193
0	7879	63.439641788567	0.030853292906
0	7885	63.470495081473	0.096240516061
0	7893	63.566735597534	0.070720885007
0	7902	63.637456482541	0.004785450505
0	7904	63.642241933046	0.008970206571
0	7910	63.651212139617	0.053947606435
0	7919	63.705159746052	0.11490989744
0	7931	63.820069643492	0.02621736742
0	7937	63.846287010912	0.036875326858
0	7942	63.88316233777	0.0102596668
0	7947	63.89342200457	0.016383660909
0	7953	63.909805665479	0.049444183831
0	7960	63.95924984931	0.001151175009
0	7962	63.960401024319	0.095174580176
0	7973	64.055575604495	0.044084295039
0	7975	64.099659899534	0.090155548179
0	7978	64.189815447713	0.011275416308
0	7981	64.201090864021	0.075068773985
0	7985	64.276159638006	0.029127877866
0	7987	64.305287515872	0.023441349386
0	7989	64.328728865258	0.16192674627
0	7995	64.490655611528	0.06374762568
0	8020	64.554403237208	0.011308475072
0	8025	64.56571171228	0.009876472271
0	8030	64.575588184551	0.026700092497
0	8038	64.602288277048	0.083100180736
0	8045	64.685388457784	0.09281225791
0	8053	64.778200715694	0.150446399273
0	8058	64.928647114967	0.001379638972
0	8060	64.930026753939	0.011343514383
0	8065	64.941370268322	0.055598301939
0	8073	64.996968570261	0.014386376691
0	8078	65.011354946952	0.031331859193
0	8083	65.042686806145	0.004269034079
0	8085	65.046955840224	0.020989055005
0	8094	65.067944895229	0.06000656194
0	8101	65.127951457169	0.03465528625
0	8107	65.162606743419	0.032938045144
0	8112	65.195544788563	0.028292024672
0	8118	65.223836813235	0.014430342919
0	8123	65.238267156154	0.040773888003
0	8131	65.279041044157	0.009814749778
0	8136	65.288855793935	0.005720249762
0	8139	65.294576043697	0.030451230134
0	8147	65.325027273831	0.02192763726
0	8152	65.346954911091	0.019871829829
0	8159	65.36682674092	0.132867029705
0	8167	65.499693770625	0.013447603151
0	8173	65.513141373776	0.035047004314
0	8178	65.54818837809	0.041875338416
0	8183	65.590063716506	0.051288068912
0	8188	65.641351785418	0.058204362856
0	8195	65.699556148274	0.031803523141
0	8200	65.731359671415	0.008951413478
0	8205	65.740311084893	0.17196775864
0	8211	65.912278843533	0.017298551982
0	8218	65.929577395515	0.006187281399
0	8220	65.935764676914	0.213382907766
0	8235	66.14914758468	0.021583325202
0	8240	66.170730909882	0.160483520944
0	8249	66.331214430826	0.057004245204
0	8255	66.38821867603	0.123704989316
0	8262	66.511923665346	0.076955949422
0	8273	66.588879614768	0.022958381919
0	8278	66.611837996687	0.025350189702
0	8283	66.637188186389	0.011185567953
0	8288	66.648373754342	0.067501765626
0	8293	66.715875519968	0.010677856636
0	8298	66.726553376604	0.023314612858
0	8303	66.749867989462	0.008375845328
0	8310	66.75824383479	0.005134833428
0	8312	66.763378668218	0.063810872803
0	8321	66.827189541021	0.000855882022
0	8323	66.828045423043	0.087525690411
0	8333	66.915571113454	0.00763912216
0	8335	66.923210235614	0.068613614687
0	8343	66.991823850301	0.217423477829
0	8357	67.20924732813	0.014466027871
0	8363	67.223713356001	0.010662033058
0	8368	67.234375389059	0.065194716473
0	8373	67.299570105532	0.0004017305
0	8375	67.299971836032	0.05806168382
0	8385	67.358033519852	0.04201809514
0	8392	67.400051614992	0.034615881625
0	8397	67.434667496617	0.032917706211
0	8402	67.467585202828	0.023887764297
0	8407	67.491472967125	0.017684709302
0	8413	67.509157676427	0.091065347002
0	8422	67.600223023429	0.133399301796
0	8430	67.733622325225	0.005426172147
0	8432	67.739048497372	0.060500795202
0	8441	67.799549292574	0.010467285215
0	8446	67.810016577789	0.026740113812
0	8454	67.836756691601	0.099215307135
0	8460	67.935971998736	0.00119816016
0	8462	67.937170158896	0.078479122213
0	8472	68.015649281109	0.058677661972
0	8474	68.074326943081	0.085278519805
0	8478	68.159605462886	0.055881819457
0	8481	68.215487282343	0.053404762946
0	8484	68.268892045289	0.020590162502
0	8486	68.289482207791	0.219273634428
0	8495	68.508755842219	0.179356676911
0	8517	68.68811251913	0.010695303889
0	8522	68.698807823019	0.127027966317
0	8532	68.825835789336	0.028663115526
0	8537	68.854498904862	0.034911157531
0	8543	68.889410062393	0.071011479846
0	8548	68.960421542239	0.093728777314
0	8555	69.054150319553	0.038630602087
0	8560	69.09278092164	0.095533664579
0	8565	69.188314586219	0.046064979638
0	8572	69.234379565857	0.023038601702
0	8577	69.257418167559	0.140563424911
0	8586	69.39798159247	0.248085130843
0	8595	69.646066723313	0.025500835167
0	8601	69.67156755848	0.024659550771
0	8606	69.696227109251	0.090364452074
0	8612	69.786591561325	0.071496373084
0	8618	69.858087934409	0.006505661422
0	8620	69.864593595831	0.030425042828
0	8630	69.895018638659	0.032738735132
0	8635	69.927757373791	0.006093867867
0	8637	69.933851241658	0.064747972883
0	8647	69.998599214541	0.041085049005
0	8652	70.039684263546	0.102850983622
0	8657	70.142535247168	0.061394965021
0	8663	70.203930212189	0.058995690969
0	8670	70.262925903158	0.047330123707
0	8676	70.310256026865	0.024414205062
0	8682	70.334670231927	0.017752675491
0	8687	70.352422907418	0.021943968181
0	8692	70.374366875599	0.109578111254
0	8701	70.483944986853	0.017467197594
0	8706	70.501412184447	0.078726831567
0	8715	70.580139016014	0.044431590495
0	8722	70.624570606509	0.02548453103
0	8727	70.650055137539	0.045567238212
0	8734	70.695622375751	0.016099015576
0	8740	70.711721391327	0.047764322195
0	8746	70.759485713522	0.085985893251
0	8751	70.845471606773	0.075123567407
0	8758	70.92059517418	0.015640965962
0	8763	70.936236140142	0.029872924104
0	8768	70.966109064246	0.01507905761
0	8773	70.981188121856	0.020303048826
0	8779	71.001491170682	0.015601020945
0	8784	71.017092191627	0.005070834581
0	8786	71.022163026208	0.046612161798
0	8794	71.068775188006	0.208219206169
0	8805	71.276994394175	0.0160550899
0	8810	71.293049484075	0.024227779633
0	8816	71.317277263708	0.097712079753
0	8823	71.414989343461	0.027150940553
0	8828	71.442140284014	0.016678983241
0	8833	71.458819267255	0.06839050364
0	8841	71.527209770895	0.146764202573
0	8846	71.673973973468	0.015258799859
0	8851	71.689232773327	0.024838283026
0	8857	71.714071056353	0.055877270967
0	8863	71.76994832732	0.062717338235
0	8869	71.832665665555	0.206496261161
0	8879	72.039161926716	0.009681329539
0	8881	72.048843256255	0.01555705464
0	8883	72.064400310895	0.009664151653
0	8885	72.074064462548	0.016756255961
0	8889	72.090820718509	0.015202698237
0	8892	72.106023416746	0.02886908539
0	8895	72.134892502136	0.016740448716
0	8898	72.151632950852	0.086585290165
0	8903	72.238218241017	0.055013348154
0	8906	72.293231589171	0.016966854096
0	8909	72.310198443267	0.157405311824
0	8913	72.467603755091	0.051712005063
0	8924	72.519315760154	0.05416439144
0	8949	72.573480151594	0.009952215461
0	8954	72.583432367055	0.048820579025
0	8972	72.63225294608	0.091551491181
0	8978	72.723804437261	0.18703962246
0	8986	72.910844059721	0.017303284832
0	8991	72.928147344553	0.018664401991
0	8996	72.946811746544	0.172958431176
0	9003	73.11977017772	0.079564319613
0	9010	73.199334497333	0.004752068395
0	9012	73.204086565728	0.048335336257
0	9020	73.252421901985	0.040620988379
0	9025	73.293042890364	0.048827390859
0	9031	73.341870281223	0.025461196196
0	9037	73.367331477419	0.024942152621
0	9042	73.39227363004	0.011945348809
0	9047	73.404218978849	0.189577845253
0	9055	73.593796824102	0.006488286976
0	9057	73.600285111078	0.018997713893
0	9065	73.619282824971	0.002344185281
0	9067	73.621627010252	0.015526228351
0	9075	73.637153238603	0.019656583168
0	9080	73.656809821771	0.048213674256
0	9085	73.705023496027	0.059525397333
0	9090	73.76454889336	0.003889276998
0	9092	73.768438170358	0.040682075275
0	9100	73.809120245633	0.025303658586
0	9105	73.834423904219	0.013085573154
0	9110	73.847509477373	0.046523109457
0	9116	73.89403258683	0.040476079237
0	9122	73.934508666067	0.042850220694
0	9127	73.977358886761	0.19002387939
0	9138	74.167382766151	0.111116721063
0	9143	74.278499487214	0.133107485192
0	9150	74.411606972406	0.114045624618
0	9157	74.525652597024	0.068374057148
0	9166	74.594026654172	0.0026738104
0	9168	74.596700464572	0.093675133594
0	9177	74.690375598166	0.063529594992
0	9183	74.753905193158	0.042107823651
0	9190	74.796013016809	0.130376182591
0	9197	74.9263891994	0.00119157169
0	9199	74.92758077109	0.017644363908
0	9208	74.945225134998	0.006602580545
0	9210	74.951827715543	0.005934990413
0	9215	74.957762705956	0.08259888304
0	9225	75.040361588996	0.095849286016
0	9235	75.136210875012	0.105355675726
0	9242	75.241566550738	0.038121965327
0	9247	75.279688516065	0.06402098589
0	9253	75.343709501955	0.080931346221
0	9261	75.424640848176	0.012281036792
0	9266	75.436921884968	0.029666812707
0	9274	75.466588697675	0.012237732561
0	9279	75.478826430236	0.119592485569
0	9286	75.598418915805	0.033481347189
0	9291	75.631900262994	0.118843515942
0	9298	75.750743778936	0.024248391293
0	9304	75.774992170229	0.028975224875
0	9311	75.803967395104	0.009057779917
0	9316	75.813025175021	0.09445050049
0	9322	75.907475675511	0.058002323362
0	9327	75.965477998873	0.0824299061
0	9335	76.047907904973	0.010203685645
0	9338	76.058111590618	0.045261879419
0	9340	76.103373470037	0.037768250278
0	9343	76.141141720315	0.019701899742
0	9346	76.160843620057	0.054552042568
0	9349	76.215395662625	0.014038196019
0	9351	76.229433858644	0.050577470313
0	9354	76.280011328957	0.067052706036
0	9357	76.347064034993	0.046949083697
0	9359	76.39401311869	0.070690050197
0	9362	76.464703168887	0.070722129221
0	9377	76.535425298108	0.001012092442
0	9379	76.53643739055	0.002998713618
0	9384	76.539436104168	0.069899200563
0	9416	76.609335304731	0.030268000591
0	9421	76.639603305322	0.01152323494
0	9426	76.651126540262	0.154587968942
0	9435	76.805714509204	0.017250461894
0	9440	76.822964971098	0.062820645813
0	9445	76.885785616911	0.076735332496
0	9450	76.962520949407	0.00412343044
0	9452	76.966644379847	0.048329303637
0	9463	77.014973683484	0.006675917284
0	9465	77.021649600768	0.119389043268
0	9474	77.141038644036	0.15656358648
0	9484	77.297602230516	0.124543374856
0	9491	77.422145605372	0.038242402342
0	9497	77.460388007714	0.008325560198
0	9502	77.468713567912	0.165955972133
0	9508	77.634669540045	0.019435898481
0	9513	77.654105438526	0.130428172975
0	9522	77.784533611501	0.057023092901
0	9527	77.841556704402	0.073437969595
0	9533	77.914994673997	0.068410605301
0	9540	77.983405279298	0.037164084744
0	9545	78.020569364042	0.019865530077
0	9550	78.040434894119	0.096154412215
0	9555	78.136589306334	0.015487852318
0	9560	78.152077158652	0.024015203556
0	9565	78.176092362208	0.083604818022
0	9571	78.25969718023	0.111727593059
0	9578	78.371424773289	1.717179e-006
0	9580	78.371426490468	0.01820481746
0	9588	78.389631307928	0.102393828006
0	9598	78.492025135934	0.006089055873
0	9600	78.498114191807	0.025617797867
0	9608	78.523731989674	0.028335548109
0	9613	78.552067537783	0.034572113393
0	9618	78.586639651176	0.018383280251
0	9624	78.605022931427	0.138023670454
0	9633	78.743046601881	0.002551258109
0	9635	78.74559785999	0.038673678869
0	9644	78.784271538859	0.063137912348
0	9651	78.847409451207	0.031800995871
0	9656	78.879210447078	0.010954324619
0	9661	78.890164771697	0.060009304449
0	9668	78.950174076146	0.028279789641
0	9674	78.978453865787	0.026240974005
0	9680	79.004694839792	0.0053642245
0	9682	79.010059064292	0.044352145627
0	9694	79.054411209919	0.01305420141
0	9699	79.067465411329	0.066826486362
0	9706	79.134291897691	0.053094712628
0	9712	79.187386610319	0.007233348937
0	9714	79.194619959256	0.008012460605
0	9723	79.202632419861	0.058563459961
0	9728	79.261195879822	0.006401779137
0	9730	79.267597658959	0.018882040074
0	9738	79.286479699033	0.122204977514
0	9745	79.408684676547	0.016025906789
0	9750	79.424710583336	0.006477192395
0	9752	79.431187775731	0.031247595729
0	9761	79.46243537146	0.003215639962
0	9763	79.465651011422	0.011053418731
0	9769	79.476704430153	0.043922533578
0	9778	79.520626963731	0.131535136031
0	9786	79.652162099762	0.016649357397
0	9791	79.668811457159	0.127602542694
0	9799	79.796413999853	0.017955216907
0	9805	79.81436921676	0.05105683864
0	9811	79.8654260554	0.099832066008
0	9820	79.965258121408	0.02231742969
0	9825	79.987575551098	0.085920362077
0	9831	80.073495913175	0.032866454336
0	9833	80.106362367511	0.11319847674
0	9839	80.219560844251	0.036543982952
0	9842	80.256104827203	0.124788581587
0	9844	80.38089340879	0.003316277237
0	9846	80.384209686027	0.001209846728
0	9848	80.385419532755	0.010449781691
0	9850	80.395869314446	0.014443735944
0	9853	80.41031305039	0.047478935793
0	9855	80.457791986183	0.002127294045
0	9857	80.459919280228	0.013883008666
0	9859	80.473802288894	0.039412286976
0	9868	80.51321457587	0.005174951703
0	9873	80.518389527573	0.059986537724
0	9899	80.578376065297	0.071789778406
0	9922	80.650165843703	0.138630514409
0	9928	80.788796358112	0.007580492216
0	9930	80.796376850328	0.120679721367
0	9940	80.917056571695	0.003991426536
0	9942	80.921047998231	0.019999090971
0	9951	80.941047089202	0.134499204185
0	9957	81.075546293387	0.18652038547
0	9967	81.262066678857	0.017482284884
0	9972	81.279548963741	0.031957704405
0	9979	81.311506668146	0.086454999544
0	9987	81.39796166769	0.065979018708
0	9993	81.463940686398	0.012618468046
0	9999	81.476559154444	0.00485983221
0	10001	81.481418986654	0.053837124712
0	10010	81.535256111366	0.01806596752
0	10015	81.553322078886	0.053501429333
0	10023	81.606823508219	0.00945748651
0	10028	81.616280994729	0.095866603799
0	10034	81.712147598528	0.020187158871
0	10039	81.732334757399	0.004899351172
0	10041	81.737234108571	0.030645089396
0	10050	81.767879197967	0.038018689068
0	10055	81.805897887035	0.028886699245
0	10060	81.83478458628	0.061902947811
0	10067	81.896687534091	0.126904480221
0	10076	82.023592014312	0.016372327508
0	10081	82.03996434182	0.002913433999
0	10083	82.042877775819	0.041458206407
0	10093	82.084335982226	0.005750993037
0	10095	82.090086975263	0.006264896024
0	10101	82.096351871287	0.027445972219
0	10110	82.123797843506	0.026451348738
0	10116	82.150249192244	0.078396165448
0	10126	82.228645357692	0.048471077362
0	10131	82.277116435054	0.09947840373
0	10136	82.376594838784	0.042874918279
0	10142	82.419469757063	0.224896176402
0	10151	82.644365933465	0.00877721846
0	10156	82.653143151925	0.090192642359
0	10164	82.743335794284	0.010254048237
0	10170	82.753589842521	0.000808377803
0	10172	82.754398220324	0.027422692139
0	10181	82.781820912463	0.108197512533
0	10188	82.890018424996	0.002339519825
0	10190	82.892357944821	0.024326244106
0	10199	82.916684188927	0.135053918755
0	10206	83.051738107682	0.021240901605
0	10211	83.072979009287	0.00282693994
0	10213	83.075805949227	0.005611246847
0	10218	83.081417196074	0.08045357004
0	10227	83.161870766114	0.015043560672
0	10232	83.176914326786	0.188387037145
0	10239	83.365301363931	0.057096112404
0	10245	83.422397476335	0.068065125429
0	10252	83.490462601764	0.030887185042
0	10257	83.521349786806	0.015201302291
0	10263	83.536551089097	0.002001063446
0	10265	83.538552152543	0.070080000896
0	10275	83.608632153439	0.021438461709
0	10280	83.630070615148	0.030090600595
0	10285	83.660161215743	0.044042136365
0	10290	83.704203352108	0.020101352674
0	10295	83.724304704782	0.074696618148
0	10301	83.79900132293	0.103119787604
0	10307	83.902121110534	0.051123476285
0	10313	83.953244586819	0.082096686534
0	10319	84.035341273353	0.103428929976
0	10323	84.138770203329	0.016688128034
0	10325	84.155458331363	0.049784555999
0	10328	84.205242887362	0.01616068578
0	10330	84.221403573142	0.072216026937
0	10333	84.293619600079	0.029466962568
0	10336	84.323086562647	0.044354036757
0	10339	84.367440599404	0.006114854072
0	10341	84.373555453476	0.016575744259
0	10343	84.390131197735	0.023462630838
0	10345	84.413593828573	0.111690192019
0	10362	84.525284020592	0.034019040633
0	10378	84.559303061225	0.019195370155
0	10390	84.57849843138	0.056643985127
0	10406	84.635142416507	0.09910683224
0	10413	84.734249248747	0.003492071468
0	10415	84.737741320215	0.036283341977
0	10424	84.774024662192	0.008743499547
0	10429	84.782768161739	0.208193240009
0	10438	84.990961401748	0.023847251745
0	10444	85.014808653493	0.02130889182
0	10449	85.036117545313	0.031675453299
0	10454	85.067792998612	0.130013302663
0	10460	85.197806301275	0.159042873636
0	10469	85.356849174911	0.023456010617
0	10474	85.380305185528	0.110977321329
0	10480	85.491282506857	0.03290835305
0	10486	85.524190859907	0.049666598488
0	10493	85.573857458395	0.074270070001
0	10500	85.648127528396	0.082523747752
0	10510	85.730651276148	0.003162083188
0	10512	85.733813359336	0.000880957391
0	10514	85.734694316727	0.070208842233
0	10527	85.80490315896	0.02617966755
0	10532	85.83108282651	0.060887724871
0	10538	85.891970551381	0.130670934738
0	10545	86.022641486119	0.137768429037
0	10553	86.160409915156	0.044124842814
0	10558	86.20453475797	0.047916240277
0	10563	86.252450998247	0.002753073441
0	10565	86.255204071688	0.12071969627
0	10576	86.375923767958	0.049784683043
0	10583	86.425708451001	0.003579311283
0	10585	86.429287762284	0.022285043843
0	10593	86.451572806127	0.071801795543
0	10599	86.52337460167	0.03579095673
0	10604	86.5591655584	0.005761847679
0	10607	86.564927406079	0.014970317116
0	10615	86.579897723195	0.004430695518
0	10617	86.584328418713	0.007486003429
0	10623	86.591814422142	0.007781490173
0	10628	86.599595912315	0.022648014469
0	10637	86.622243926784	0.003033241386
0	10639	86.62527716817	0.005143111321
0	10644	86.630420279491	0.128378413026
0	10652	86.758798692517	0.024423026037
0	10658	86.783221718554	0.015327868111
0	10663	86.798549586665	0.131766204117
0	10672	86.930315790782	0.008730740496
0	10677	86.939046531278	0.039929072369
0	10682	86.978975603647	0.008100082799
0	10688	86.987075686446	0.012244689355
0	10693	86.999320375801	0.065520942872
0	10699	87.064841318673	0.067200142206
0	10705	87.132041460879	0.002972678629
0	10707	87.135014139508	0.066471689758
0	10715	87.201485829266	0.057927595094
0	10721	87.25941342436	0.079927226189
0	10729	87.339340650549	0.135615470383
0	10737	87.474956120932	0.057145565859
0	10743	87.532101686791	0.054527140771
0	10748	87.586628827562	0.193106827319
0	10757	87.779735654881	0.020447127651
0	10762	87.800182782532	0.009702228858
0	10767	87.80988501139	0.024518093136
0	10773	87.834403104526	0.026840550625
0	10779	87.861243655151	0.078543911713
0	10787	87.939787566864	0.034252496407
0	10794	87.974040063271	0.007840469558
0	10799	87.981880532829	0.011366075929
0	10804	87.993246608758	0.011092631498
0	10810	88.004339240256	0.024147934753
0	10812	88.028487175009	0.134815543436
0	10818	88.163302718445	0.142667132224
0	10824	88.305969850669	0.038360674697
0	10827	88.344330525366	0.043661574353
0	10829	88.387992099719	0.032712704926
0	10832	88.420704804645	0.078491606314
0	10835	88.499196410959	0.004127615605
0	10838	88.503324026564	0.01660710813
0	10846	88.519931134694	0.024040651923
0	10858	88.543971786617	0.048546833548
0	10879	88.592518620165	0.046460298011
0	10884	88.638978918176	0.012886866812
0	10889	88.651865784988	0.004051425358
0	10891	88.655917210346	0.012273018217
0	10899	88.668190228563	0.015915715497
0	10904	88.68410594406	0.173131568802
0	10911	88.857237512862	0.101623425755
0	10917	88.958860938617	0.017575146175
0	10922	88.976436084792	0.019972991214
0	10927	88.996409076006	0.01279920127
0	10933	89.009208277276	0.013202734808
0	10940	89.022411012084	0.01642807438
0	10947	89.038839086464	0.023167257117
0	10955	89.062006343581	0.00137779658
0	10958	89.063384140161	0.00149970196
0	10960	89.064883842121	0.04192501918
0	10975	89.106808861301	0.039873575676
0	10982	89.146682436977	0.008916222982
0	10987	89.155598659959	0.111081505638
0	10997	89.266680165597	0.02616763168
0	11003	89.292847797277	0.000156990095
0	11005	89.293004787372	0.066948710568
0	11014	89.35995349794	0.04863007394
0	11020	89.40858357188	0.099417609456
0	11030	89.508001181336	0.001319031975
0	11032	89.509320213311	0.012949375279
0	11038	89.52226958859	0.041427636607
0	11048	89.563697225197	0.036129380856
0	11056	89.599826606053	0.100391959898
0	11066	89.700218565951	0.004187297984
0	11068	89.704405863935	0.06121438482
0	11076	89.765620248755	0.00676879586
0	11078	89.772389044615	0.234916815552
0	11096	90.007305860167	0.02409607868
0	11103	90.031401938847	0.014244105733
0	11109	90.04564604458	0.053190882867
0	11116	90.098836927447	0.025363505458
0	11123	90.124200432905	0.017963343517
0	11128	90.142163776422	0.030123859138
0	11133	90.17228763556	0.004439581853
0	11135	90.176727217413	0.009199607571
0	11140	90.185926824984	0.028519319495
0	11149	90.214446144479	0.00301364443
0	11152	90.217459788909	0.035261606231
0	11161	90.25272139514	0.097261178362
0	11169	90.349982573502	0.105476910644
0	11174	90.455459484146	0.088377971912
0	11182	90.543837456058	0.019253903728
0	11188	90.563091359786	0.016035588765
0	11193	90.579126948551	0.019287542955
0	11198	90.598414491506	0.110027000423
0	11210	90.708441491929	0.003303418629
0	11212	90.711744910558	0.082115018673
0	11225	90.793859929231	0.026053709157
0	11231	90.819913638388	0.143248246263
0	11239	90.963161884651	0.010160474995
0	11246	90.973322359646	0.018679279145
0	11253	90.992001638791	0.043557697944
0	11258	91.035559336735	0.025242805045
0	11264	91.06080214178	0.030088365578
0	11273	91.090890507358	0.146824639543
0	11284	91.237715146901	0.012008470045
0	11289	91.249723616946	0.004390795133
0	11291	91.254114412079	0.000847726659
0	11293	91.254962138738	0.028739608445
0	11305	91.283701747183	0.238913723836
0	11324	91.522615471019	0.012606743063
0	11329	91.535222214082	0.187105664187
0	11340	91.722327878269	0.00421167752
0	11342	91.726539555789	0.006432987094
0	11347	91.732972542883	0.009536600065
0	11352	91.742509142948	0.104632306501
0	11372	91.847141449449	0.238893798576
0	11380	92.086035248025	0.22330480591
0	11391	92.309340053935	0.004258986334
0	11393	92.313599040269	0.014444544402
0	11401	92.328043584671	0.11251284272
0	11408	92.440556427391	0.091207700005
0	11416	92.531764127396	0.110741118414
0	11422	92.64250524581	0.036919228469
0	11428	92.679424474279	0.172185808006
0	11439	92.851610282285	0.037231421494
0	11444	92.888841703779	0.008806213317
0	11449	92.897647917096	0.004630749828
0	11451	92.902278666924	0.01278291647
0	11459	92.915061583394	0.030268049364
0	11465	92.945329632758	0.021917146709
0	11470	92.967246779467	0.237210058744
0	11477	93.204456838211	0.089084659737
0	11483	93.293541497948	0.00712907334
0	11485	93.300670571288	0.014403879666
0	11493	93.315074450954	0.097350229608
0	11499	93.412424680562	0.02899620287
0	11505	93.441420883432	0.106879063591
0	11511	93.548299947023	0.039235335404
0	11517	93.587535282427	0.004475581636
0	11519	93.592010864063	0.000808833581
0	11521	93.592819697644	0.063031400064
0	11535	93.655851097708	0.031743260665
0	11540	93.687594358373	0.000555126887
0	11542	93.68814948526	0.027303119873
0	11552	93.715452605133	0.02281554277
0	11560	93.738268147903	0.004228288629
0	11563	93.742496436532	0.103489746367
0	11575	93.845986182899	0.071572027343
0	11582	93.917558210242	0.107975578333
0	11589	94.025533788575	0.050940772411
0	11594	94.076474560986	0.181857270976
0	11599	94.258331831962	0.040250219766
0	11605	94.298582051728	0.030569169122
0	11610	94.32915122085	0.012845755285
0	11616	94.341996976135	0.016542353065
0	11621	94.3585393292	0.039492324636
0	11627	94.398031653836	0.035521735786
0	11634	94.433553389622	0.055468536863
0	11641	94.489021926485	0.028406281681
0	11647	94.517428208166	0.044874458896
0	11653	94.562302667062	0.054612180487
0	11658	94.616914847549	0.010747408959
0	11663	94.627662256508	0.137858864058
0	11670	94.765521120566	0.030154661235
0	11675	94.795675781801	0.029772198982
0	11681	94.825447980783	0.024710797988
0	11686	94.850158778771	0.106132302197
0	11694	94.956291080968	0.036494343909
0	11700	94.992785424877	0.083670627195
0	11706	95.076456052072	0.075502950373
0	11712	95.151959002445	0.010596465876
0	11717	95.162555468321	0.057419743201
0	11723	95.219975211522	0.054060690052
0	11728	95.274035901574	0.021538270717
0	11733	95.295574172291	0.093856272471
0	11741	95.389430444762	0.004044746053
0	11743	95.393475190815	0.052872376817
0	11752	95.446347567632	0.021861446993
0	11758	95.468209014625	0.089460572191
0	11764	95.557669586816	0.042299785487
0	11769	95.599969372303	0.030692931744
0	11774	95.630662304047	0.052940163422
0	11782	95.683602467469	0.032159242846
0	11788	95.715761710315	0.036987264157
0	11793	95.752748974472	0.071373874344
0	11798	95.824122848816	0.007014450943
0	11800	95.831137299759	0.046808445941
0	11808	95.8779457457	0.026400927522
0	11815	95.904346673222	0.100936051205
0	11821	96.005282724427	0.005884376861
0	11823	96.011167101288	0.028819906369
0	11826	96.039987007657	0.043451971682
0	11828	96.083438979339	0.091548289232
0	11831	96.174987268571	0.009187120678
0	11833	96.184174389249	0.050536695062
0	11835	96.234711084311	0.003578553746
0	11837	96.238289638057	0.018090279604
0	11839	96.256379917661	0.099454805983
0	11846	96.355834723644	0.06304083316
0	11851	96.418875556804	0.099630495094
0	11860	96.518506051898	0.095823709212
0	11897	96.61432976111	0.024292688822
0	11902	96.638622449932	0.017113676276
0	11907	96.655736126208	0.008810915307
0	11912	96.664547041515	0.009470730786
0	11917	96.674017772301	0.00250088322
0	11919	96.676518655521	0.044763797605
0	11930	96.721282453126	0.020400668881
0	11937	96.741683122007	0.179140645219
0	11942	96.920823767226	0.106799049262
0	11947	97.027622816488	0.027992503049
0	11952	97.055615319537	0.108376229849
0	11959	97.163991549386	0.004244945217
0	11961	97.168236494603	0.024508621998
0	11969	97.192745116601	0.009627469417
0	11974	97.202372586018	0.042571356833
0	11979	97.244943942851	0.067577346048
0	11986	97.312521288899	0.109031529619
0	11992	97.421552818518	0.003846956462
0	11994	97.42539977498	0.016589486806
0	12003	97.441989261786	0.026161830118
0	12008	97.468151091904	0.022671963372
0	12014	97.490823055276	0.029211784726
0	12020	97.520034840002	0.006811602752
0	12022	97.526846442754	0.120736444136
0	12031	97.64758288689	0.035061272802
0	12036	97.682644159692	0.002843865597
0	12038	97.685488025289	0.039866321864
0	12047	97.725354347153	0.001623552101
0	12049	97.726977899254	0.167616441943
0	12059	97.894594341197	0.117805741894
0	12066	98.012400083091	0.04189997528
0	12073	98.054300058371	0.031820595285
0	12079	98.086120653656	0.114283087995
0	12087	98.200403741651	0.007563384807
0	12092	98.207967126458	0.085691867775
0	12102	98.293658994233	0.074902760385
0	12107	98.368561754618	0.01809341742
0	12112	98.386655172038	0.018796938001
0	12117	98.405452110039	0.034264521148
0	12123	98.439716631187	0.050660090618
0	12129	98.490376721805	0.019409381813
0	12136	98.509786103618	0.043100778091
0	12143	98.552886881709	0.044783030735
0	12150	98.597669912444	0.010129127884
0	12155	98.607799040328	0.007592885189
0	12161	98.615391925517	0.097480147587
0	12167	98.712872073104	0.101799515144
0	12172	98.814671588248	0.027653963818
0	12178	98.842325552066	0.071308439121
0	12185	98.913633991187	0.069199026489
0	12190	98.982833017676	0.081909331901
0	12196	99.064742349577	0.130982483875
0	12202	99.195724833452	0.085724826574
0	12209	99.281449660026	0.019059715331
0	12214	99.300509375357	0.07555963923
0	12222	99.376069014587	0.085100316582
0	12229	99.461169331169	0.003970190738
0	12231	99.465139521907	0.047419917566
0	12239	99.512559439473	0.0447365298
0	12246	99.557295969273	0.014674825475
0	12251	99.571970794748	0.08451676617
0	12257	99.656487560918	0.060216715868
0	12263	99.716704276786	0.19523232655
0	12273	99.911936603336	0.006929323794
0	12275	99.91886592713	0.042237087614
0	12283	99.961103014744	0.026256518497
0	12290	99.987359533241	0.076543790763
0	12297	100.063903324004	0.005062978589
0	12299	100.068966302593	0.06802145629
0	12305	100.136987758883	0.008222453853
0	12307	100.145210212736	0.017458488268
0	12309	100.162668701004	0.018116077178
0	12312	100.180784778182	0.048739850188
0	12314	100.22952462837	0.065996240112
0	12317	100.295520868482	0.005567757387
0	12320	100.301088625869	0.00725822764
0	12322	100.308346853509	0.011192563619
0	12324	100.319539417128	0.150153747726
0	12328	100.469693164854	0.024334452682
0	12330	100.494027617536	0.024219856803
0	12341	100.518247474339	0.077104455546
0	12372	100.595351929885	0.015559796283
0	12381	100.610911726168	0.048817993763
0	12393	100.659729719931	0.013315822513
0	12399	100.673045542444	0.001290648737
0	12401	100.674336191181	0.020382033718
0	12409	100.694718224899	0.071167387027
0	12414	100.765885611926	0.017146717928
0	12419	100.783032329854	0.009576584509
0	12424	100.792608914363	0.006153950761
0	12426	100.798762865124	0.004216720106
0	12431	100.80297958523	0.01078830801
0	12436	100.81376789324	0.102264053197
0	12446	100.916031946437	0.101767498041
0	12453	101.017799444478	0.001526963663
0	12455	101.019326408141	0.050803415676
0	12465	101.070129823817	0.049998965591
0	12472	101.120128789408	0.014903085072
0	12477	101.13503187448	0.041968823216
0	12482	101.177000697696	0.113675545814
0	12487	101.29067624351	0.026379485867
0	12493	101.317055729377	0.061058274647
0	12499	101.378114004024	0.053892803592
0	12504	101.432006807616	0.022687300313
0	12510	101.454694107929	0.041316121377
0	12515	101.496010229306	0.20085430836
0	12524	101.696864537666	0.039022536705
0	12529	101.735887074371	0.015175961852
0	12535	101.751063036223	0.011412524667
0	12540	101.76247556089	0.028373190851
0	12546	101.790848751741	0.018721519085
0	12551	101.809570270826	0.035760364576
0	12556	101.845330635402	0.083035424768
0	12564	101.92836606017	0.12178213577
0	12573	102.05014819594	0.019536618332
0	12580	102.069684814272	0.039556386812
0	12585	102.109241201084	0.110161518592
0	12595	102.219402719676	0.068985638481
0	12602	102.288388358157	0.045012923107
0	12608	102.333401281264	0.006309750221
0	12610	102.339711031485	0.008459305146
0	12615	102.348170336631	0.101044911728
0	12624	102.449215248359	0.020114129522
0	12631	102.469329377881	0.177855944216
0	12637	102.647185322097	0.03463424522
0	12644	102.681819567317	0.109560104937
0	12650	102.791379672254	0.09341386037
0	12657	102.884793532624	0.011642336032
0	12662	102.896435868656	0.040888631323
0	12667	102.937324499979	0.139056223286
0	12675	103.076380723265	0.035508638203
0	12681	103.111889361468	0.018871586597
0	12686	103.130760948065	0.033759983483
0	12692	103.164520931548	0.002754350397
0	12694	103.167275281945	0.152790063275
0	12707	103.32006534522	0.002764990473
0	12709	103.322830335693	0.020775326935
0	12718	103.343605662628	0.183614444921
0	12727	103.527220107549	0.010791913485
0	12732	103.538012021034	0.029991410086
0	12738	103.56800343112	0.056204810563
0	12744	103.624208241683	0.125414872573
0	12751	103.749623114256	0.113501503185
0	12758	103.863124617441	0.00185812028
0	12760	103.864982737721	0.030665311609
0	12769	103.89564804933	0.070913458655
0	12774	103.966561507985	0.032665164064
0	12779	103.999226672049	0.007364158611
0	12782	104.00659083066	0.04289158877
0	12787	104.04948241943	0.018348340944
0	12790	104.067830760374	0.170207754187
0	12797	104.238038514561	0.029774531512
0	12801	104.267813046073	0.010290792682
0	12803	104.278103838755	0.089013114974
0	12806	104.367116953729	0.127991273164
0	12812	104.495108226893	0.103439038146
0	12843	104.598547265039	0.005875588594
0	12845	104.604422853633	0.062710633203
0	12853	104.667133486836	0.107544754186
0	12862	104.774678241022	0.019591494157
0	12867	104.794269735179	0.022647620274
0	12874	104.816917355453	0.086837996544
0	12881	104.903755351997	0.042989934655
0	12887	104.946745286652	0.012038218986
0	12892	104.958783505638	0.027027985782
0	12898	104.98581149142	0.044023224965
0	12905	105.029834716385	0.067834745655
0	12919	105.09766946204	0.001497189761
0	12921	105.099166651801	0.059038075885
0	12932	105.158204727686	0.105381586739
0	12942	105.263586314425	0.00058688343
0	12944	105.264173197855	0.050557781885
0	12954	105.31473097974	0.02423880987
0	12962	105.33896978961	0.013891272047
0	12967	105.352861061657	0.105126142322
0	12974	105.457987203979	0.022013153423
0	12981	105.480000357402	0.068564180639
0	12988	105.548564538041	0.034210945445
0	12993	105.582775483486	0.010104944703
0	12998	105.592880428189	0.078216002116
0	13008	105.671096430305	0.03453282835
0	13013	105.705629258655	0.03340575475
0	13019	105.739035013405	0.113553373395
0	13031	105.8525883868	0.054074391436
0	13038	105.906662778236	0.016910936215
0	13044	105.923573714451	0.000359490984
0	13046	105.923933205435	0.050444492479
0	13056	105.974377697914	0.015713961305
0	13063	105.990091659219	0.109776476552
0	13073	106.099868135771	0.057793142953
0	13079	106.157661278724	0.144351533733
0	13088	106.302012812457	0.2721145099
0	13108	106.574127322357	0.025814849792
0	13114	106.599942172149	0.039892188109
0	13122	106.639834360258	0.019034524369
0	13127	106.658868884627	0.012834878961
0	13133	106.671703763588	0.061439062767
0	13139	106.733142826355	0.054545744961
0	13145	106.787688571316	0.048866209601
0	13151	106.836554780917	0.120488805363
0	13159	106.95704358628	0.049545888931
0	13165	107.006589475211	0.075171554316
0	13170	107.081761029527	0.113601579134
0	13182	107.195362608661	0.007039980231
0	13184	107.202402588892	0.083684941684
0	13194	107.286087530576	0.021472079259
0	13201	107.307559609835	0.027049238764
0	13208	107.334608848599	0.022690810796
0	13214	107.357299659395	0.04863825485
0	13225	107.405937914245	0.136285616886
0	13235	107.542223531131	0.022732787043
0	13240	107.564956318174	0.024324553822
0	13246	107.589280871996	0.040020469037
0	13252	107.629301341033	0.035975649126
0	13260	107.665276990159	0.042370824123
0	13268	107.707647814282	0.022667355238
0	13275	107.73031516952	0.071965635435
0	13285	107.802280804955	0.20041870654
0	13300	108.002699511495	0.085458357125
0	13309	108.08815786862	0.010672515462
0	13315	108.098830384082	0.013724783252
0	13320	108.112555167334	0.008040148376
0	13325	108.12059531571	0.001923609663
0	13327	108.122518925373	0.021096992038
0	13336	108.143615917411	0.006368607144
0	13338	108.149984524555	0.003439425244
0	13343	108.153423949799	0.039063998483
0	13353	108.192487948282	0.067742999104
0	13362	108.260230947386	0.032214901439
0	13368	108.292445848825	0.00377924036
0	13370	108.296225089185	0.010950132739
0	13378	108.307175221924	0.082557672634
0	13386	108.389732894558	0.032274468479
0	13391	108.422007363037	0.154430520651
0	13397	108.576437883688	0.062136569261
0	13403	108.638574452949	0.036772895257
0	13408	108.675347348206	0.02849858359
0	13413	108.703845931796	0.093507879696
0	13421	108.797353811492	0.02012318709
0	13426	108.817476998582	0.051298939165
0	13431	108.868775937747	0.115568866829
0	13441	108.984344804576	0.017522461228
0	13446	109.001867265804	0.066843910586
0	13453	109.06871117639	0.079614493347
0	13459	109.148325669737	0.058251340705
0	13465	109.206577010442	0.166806338317
0	13473	109.373383348759	0.046420648479
0	13478	109.419803997238	0.110214868765
0	13486	109.530018866003	0.08861795006
0	13492	109.618636816063	0.019812765916
0	13497	109.638449581979	0.065388573095
0	13502	109.703838155074	0.033837552264
0	13507	109.737675707338	0.028080977885
0	13512	109.765756685223	0.00198667849
0	13514	109.767743363713	0.00841151839
0	13519	109.776154882103	0.060226727627
0	13528	109.83638160973	0.010762036261
0	13534	109.847143645991	0.015074154699
0	13539	109.86221780069	0.03963620868
0	13544	109.90185400937	0.026174458131
0	13550	109.928028467501	0.01379555982
0	13555	109.941824027321	0.02172176461
0	13560	109.963545791931	0.029219206596
0	13565	109.992764998527	0.005043283125
0	13567	109.997808281652	0.0707007113
0	13577	110.068508992952	0.005554066819
0	13579	110.074063059771	0.034624285131
0	13588	110.108687344902	0.063769783159
0	13594	110.172457128061	0.085738161965
0	13602	110.258195290026	0.034428024492
0	13607	110.292623314518	0.55693822094
0	13621	110.849561535458	0.053038369232
0	13628	110.90259990469	0.014069124757
0	13633	110.916669029447	0.045216926323
0	13639	110.96188595577	0.026207823083
0	13644	110.988093778853	0.026624829241
0	13649	111.014718608094	0.024057619966
0	13654	111.03877622806	0.006765514845
[...]
24	16757	136.682796154814	9806
24	16763	136.703362778201	9811
24	16771	136.769720409914	9828
24	16776	136.802575856078	9836
24	16782	136.861346466914	9276
24	16789	136.891550964472	8940
24	16792	136.899380942101	8852
24	16800	136.929912878799	8648
24	16806	136.970396468415	8655
24	16835	137.134212441502	8685
24	16842	137.188281791078	8695
24	16850	137.214142017975	8699
24	16858	137.306591586714	8716
24	16864	137.331753948013	8721
24	16870	137.354662838686	8725
24	16884	137.527721276491	8776
24	16891	137.610120254945	8800
24	16897	137.645872887481	8810
24	16900	137.65381840394	8813
24	16909	137.71241683936	8830
24	16915	137.755052777308	8842
24	16920	137.77058428004	8847
24	16925	137.778981543772	8849
24	16931	137.822915799841	8862
24	16934	137.830814693996	8864
24	16951	138.033808589053	8835
24	16958	138.068219191757	8826
24	16970	138.190223037142	8796
24	16975	138.207453005137	8792
24	16982	138.241199088399	8783
24	16989	138.256841519765	8775
24	16996	138.283855128631	8371
24	17005	138.329587393073	8546
24	17012	138.342920440667	8575
24	17019	138.359192233404	8611
24	17025	138.373472494418	8643
24	17031	138.394875570458	8690
24	17036	138.407853030534	8719
24	17041	138.429319030571	8766
24	17049	138.469603593984	8855
24	17056	138.509311325751	8943
24	17061	138.537105641991	9005
24	17072	138.675865067895	8892
24	17077	138.683737312609	8821
24	17080	138.691672920817	8750
24	17090	138.716550929915	8528
24	17096	138.735328575461	8383
24	17106	138.799179071809	8498
24	17115	138.857879431869	8603
24	17130	139.031066690281	8912
24	17136	139.047745195564	8942
24	17141	139.060758222668	8965
24	17148	139.161245481361	9145
24	17157	139.232065739714	9272
24	17163	139.248071364915	9300
24	17170	139.310697276647	9412
24	17175	139.319871859088	9429
24	17184	139.453615585575	9668
24	17187	139.460855966212	9681
24	17194	139.475220343085	9707
24	17202	139.534203448564	9657
24	17212	139.613488877758	9354
24	17215	139.620972307307	9351
24	17228	139.69054925858	9320
24	17233	139.727315694216	9303
24	17239	139.751852555609	9292
24	17244	139.755598246635	9290
24	17245	139.759385917641	9289
24	17255	139.792283205588	9274
24	17264	139.871542523237	9238
24	17269	139.891314846521	9229
24	17274	139.946237849485	9205
24	17282	139.994388529166	9183
24	17285	140	9180
24	17811	144	8986
24	18285	148	9327
24	18319	148.5	9533
24	18320	148.507342914088	9536
24	18323	148.514683518115	9539
24	18328	148.522021813534	9542
24	18331	148.529357801796	9545
24	18334	148.536691484352	9548
24	18337	148.544022862651	9551
24	18341	148.55135193814	9554
24	18344	148.558678712266	9557
24	18347	148.566003186473	9560
24	18352	148.573325362205	9563
24	18357	148.580645240904	9566
24	18366	148.599215537512	9574
24	18371	148.610405578524	9578
24	18376	148.638936920573	9590
24	18383	148.714346159867	9621
24	18391	148.830996994094	9668
24	18394	148.838237374731	9671
24	18403	148.975520501081	9728
24	18408	149.030006787571	9750
24	18413	149.03718627475	9753
24	18417	149.044363553536	9756
24	18425	149.119684554232	9786
24	18430	149.17657308113	9810
24	18436	149.259992997402	9844
24	18441	149.275105587655	9850
24	18453	149.596330927779	8865
24	18458	149.678860031832	8656
24	18464	149.714187208192	8567
24	18469	149.757717031596	8457
24	18474	149.801425634576	8347
24	18479	149.819443933932	8301
24	18485	149.886260104779	8245
24	18493	149.945333050024	8240
24	18499	149.997531042773	8236
24	18507	150.006030314264	8236
24	18512	150.014529585755	8235
24	18515	150.023029889337	8234
24	18518	150.031531225261	8234
24	18523	150.040032561185	8233
24	18530	150.095842549038	8228
24	18537	150.147003302807	8224
24	18540	150.155514975959	8224
24	18549	150.213513031215	8219
24	18555	150.30902886324	8212
24	18566	150.513729026101	8845
24	18571	150.524916688638	8813
24	18576	150.536201276514	8781
24	18581	150.576276086973	8667
24	18587	150.596473454361	8609
24	18594	150.655002761193	8442
24	18601	150.67506943816	8385
24	18605	150.683417679066	8361
24	18610	150.691789883348	8337
24	18618	150.712159779443	8279
24	18623	150.722055286547	8251
24	18626	150.73053910669	8226
24	18632	150.739048710386	8201
24	18640	150.807513310546	8193
24	18643	150.816057189467	8226
24	18648	150.824566793163	8258
24	18658	150.928229383125	8652
24	18663	150.950630633219	8738
24	18668	150.962239756466	8782
24	18677	151.142400460076	8990
24	18682	151.16610457491	8978
24	18687	151.192211407012	8964
24	18694	151.311302948812	8901
24	18700	151.320715079538	8896
24	18709	151.459940681214	8907
24	18715	151.511686715179	8962
24	18723	151.643820859429	9074
24	18729	151.665403284401	9073
24	18736	151.74619544966	9070
24	18745	151.882053668339	9065
24	18751	151.932621473681	9064
24	18757	151.964124788344	9062
24	18765	152	9061
24	19288	156	8118
24	19763	160	8375
24	20266	164	9907
24	20296	164.5	9923
24	20300	164.507054318251	9923
24	20305	164.514108636502	9923
24	20309	164.521162954753	9923
24	20316	164.528217273004	9923
24	20319	164.535271591255	9924
24	20322	164.542325198671	9924
24	20325	164.549378806087	9924
24	20328	164.556432413503	9924
24	20331	164.563486020919	9924
24	20337	164.570539628335	9925
24	20340	164.57759252506	9925
24	20343	164.584645421785	9925
24	20346	164.59169831851	9925
24	20349	164.598751215235	9926
24	20355	164.605803401413	9926
24	20359	164.612855587591	9926
24	20368	164.720349256806	9929
24	20373	164.743026537167	9930
24	20380	164.867818262227	9934
24	20387	164.941800899215	9936
24	20390	164.948845987782	9936
24	20397	164.963870660413	9937
24	20402	164.987790687721	9937
24	20405	164.994835067312	9938
24	20412	165.00328585796	9938
24	20418	165.018635988312	9938
24	20426	165.152371934729	9942
24	20434	165.245941999395	9945
24	20439	165.277328549415	9946
24	20444	165.329129018483	9948
24	20452	165.485892315245	9953
24	20458	165.658236414804	9958
24	20463	165.673840465513	9958
24	20469	165.765274498539	9961
24	20474	165.791399051526	9962
24	20479	165.847423500392	9964
24	20484	165.901371553243	9965
24	20491	165.93209597568	9966
24	20497	165.955840040718	9967
24	20502	166.01471434646	9969
24	20513	166.352255820908	9979
24	20520	166.469700743339	9983
24	20525	166.483981340004	9983
24	20533	166.558796770848	9985
24	20538	166.592656368625	9986
24	20543	166.721487394915	9990
24	20548	166.763325562445	9991
24	20553	166.776977989691	9992
24	20558	166.801742450133	9993
24	20564	166.879752958036	9995
24	20567	166.886756459787	9995
24	20576	166.912191730208	9988
24	20579	166.9192001403	9985
24	20586	166.986336992854	9954
24	20591	167.023775048428	9937
24	20597	167.116549900726	9895
24	20600	167.123624180665	9891
24	20607	167.154926402707	9877
24	20610	167.162013574925	9874
24	20617	167.23654861303	9840
24	20622	167.314054278305	9805
24	20628	167.370028546601	9779
24	20635	167.406002950693	9763
24	20642	167.638113311764	9657
24	20650	167.737723729759	9611
24	20656	167.780537893111	9592
24	20662	167.801781806293	9582
24	20668	167.918401016792	9368
24	20674	168	8825
24	21084	172	8499
24	21543	176	8567
24	21989	180	8871
24	22364	184	8204
24	22891	188	8361
24	23387	192	8653
24	23849	196	8366
24	24345	200	9709
24	24833	204	8466
24	25351	208	8855
24	25905	212	8731
24	26388	216	8886
24	26833	220	8275
24	27336	224	8485
24	27799	228	8321
24	28310	232	9185
24	28899	236	9603
24	28937	236.5	9420
24	28940	236.507430997877	9407
24	28943	236.514872265018	9394
24	28946	236.522323829847	9381
24	28949	236.529785720903	9368
24	28952	236.537257966847	9355
24	28955	236.544740596457	9341
24	28958	236.552234440799	9328
24	28962	236.559738728964	9315
24	28965	236.567253490102	9302
24	28968	236.574778753486	9288
24	28973	236.58231535986	9275
24	28976	236.589862529671	9262
24	28979	236.597420292573	9248
24	28987	236.685131311332	9094
24	28992	236.725193641356	9023
24	28998	236.776818973481	8932
24	29003	236.803526935363	8885
24	29008	236.815581009363	8864
24	29011	236.823478121276	8850
24	29020	236.908943328973	8699
24	29025	236.918494496029	8682
24	29031	236.936602149785	8650
24	29036	236.95220431386	8623
24	29041	237.017111464171	8508
24	29053	237.362085727588	8076
24	29062	237.39480330185	8093
24	29068	237.405444842167	8099
24	29073	237.423952635949	8109
24	29079	237.459470826483	8128
24	29088	237.611763592165	8208
24	29094	237.687132504126	8248
24	29103	237.736816472839	8274
24	29109	237.829984643503	8323
24	29112	237.838395072435	8328
24	29119	237.872827432963	8346
24	29124	237.949696889175	8386
24	29128	237.958044134584	8391
24	29135	237.990240938092	8408
24	29140	238.014399267869	8421
24	29143	238.022711819822	8425
24	29151	238.071626755854	8451
24	29156	238.097006449749	8464
24	29161	238.156684955495	8496
24	29167	238.215154684244	8527
24	29172	238.239878606742	8540
24	29178	238.293894147808	8568
24	29185	238.427088146636	8505
24	29190	238.448485729051	8480
24	29195	238.474390271019	8450
24	29201	238.517818889953	8400
24	29208	238.575067616876	8334
24	29213	238.590185776886	8316
24	29224	238.718020571145	9494
24	29232	238.726700625753	9525
24	29235	238.734049707118	9551
24	29243	238.813645724828	9829
24	29251	238.986853453997	9329
24	29257	239.011694634597	9234
24	29263	239.121873242354	8817
24	29268	239.143859654185	8734
24	29274	239.233563633802	8395
24	29280	239.292173017573	8399
24	29289	239.542785516792	8893
24	29295	239.660434708466	9125
24	29300	239.716729719336	9236
24	29305	239.730141059735	9263
24	29311	239.795881212767	9392
24	29316	239.807103990844	9415
24	29321	239.839451949264	9478
24	29324	239.846837473636	9493
24	29332	239.88878737654	9576
24	29339	239.921761264602	9579
24	29346	239.971656641982	9533
24	29351	239.98089155662	9524
24	29354	239.988241409623	9518
24	29361	239.99559589586	9511
24	29364	240	9507
24	29817	244	9687
24	29825	244.133317338	9702
24	29826	244.140532345215	9703
24	29829	244.147746608845	9704
24	29841	244.283434642921	9719
24	29852	244.43839346105	9737
24	29858	244.473526255267	9741
24	29867	244.660374462048	9753
24	29872	244.673083856976	9746
24	29878	244.736192799483	9710
24	29887	244.893717458702	9620
24	29892	244.926307933411	9602
24	29897	244.933598081297	9598
24	29900	244.940891267377	9594
24	29909	245.024746607707	9546
24	29914	245.041577347223	9537
24	29919	245.069753549949	9521
24	29922	245.077105718839	9516
24	29929	245.187757710764	9454
24	29934	245.208525622201	9442
24	29941	245.341789080519	9366
24	29946	245.380393212159	9344
24	29951	245.40842001903	9328
24	29958	245.490743343115	9282
24	29966	245.550655600759	9248
24	29969	245.558224804911	9243
24	29976	245.587229271255	9227
24	29981	245.598979376577	9220
24	29986	245.672644270178	9178
24	29992	245.706865246661	9159
24	29997	245.75252137351	9133
24	30002	245.806302251084	9102
24	30005	245.813992868531	9098
24	30012	245.865069453507	9069
24	30017	245.889948833767	9055
24	30020	245.897679369383	9051
24	30029	245.918097924897	9039
24	30037	246.018132923299	8982
24	30042	246.065124679249	8956
24	30050	246.105564730114	8967
24	30055	246.129563740343	8980
24	30061	246.163456440904	8997
24	30064	246.171236812139	9002
24	30077	246.40255883542	9064
24	30083	246.464705680036	8917
24	30088	246.477370597155	8887
24	30098	246.558559668455	8695
24	30104	246.568811145159	8671
24	30110	246.62705506999	8541
24	30115	246.6375612713	8537
24	30120	246.650128608309	8532
24	30125	246.68678461477	8518
24	30133	246.83196432443	8463
24	30143	247.03367335137	8390
24	30146	247.042016617163	8387
24	30153	247.075033232565	8375
24	30158	247.137856323961	8352
24	30161	247.146237550015	8349
24	30170	247.219642766214	8322
24	30175	247.238204276532	8316
24	30186	247.431975823558	8246
24	30191	247.441393561652	8242
24	30199	247.511236362043	8217
24	30204	247.525076796498	8212
24	30210	247.616883208315	8179
24	30216	247.640576974064	8170
24	30224	247.755304125733	8129
24	30229	247.78677278426	8117
24	30234	247.797342846165	8114
24	30239	247.810714657255	8109
24	30245	247.83537252691	8100
24	30251	247.866567851445	8088
24	30254	247.875222648675	8085
24	30262	248	8040
24	30721	252	8754
24	31264	256	9136
24	31754	260	8522
24	32282	264	9069
24	32749	268	9377
24	33148	272	9897
24	33174	272.5	8295
24	33175	272.508438818565	8298
24	33178	272.51687458622	8301
24	33181	272.52530730517	8305
24	33185	272.533735962605	8308
24	33188	272.542161576471	8311
24	33191	272.550584148965	8315
24	33194	272.559002669711	8318
24	33199	272.567418154202	8321
24	33206	272.598964103926	8333
24	33210	272.607364439939	8337
24	33221	272.675661648984	8364
24	33226	272.726204604413	8383
24	33231	272.795619517618	8411
24	33240	272.885983078451	8446
24	33245	272.896997771251	8450
24	33250	272.925075519756	8461
24	33258	273.055590344175	8513
24	33264	273.125812616626	8540
24	33269	273.161938403417	8554
24	33275	273.17696982696	8560
24	33281	273.219692727713	8577
24	33286	273.24945262678	8589
24	33292	273.35808207997	8631
24	33297	273.369697457822	8636
24	33302	273.384823058955	8642
24	33307	273.413394905523	8653
24	33312	273.445871820186	8666
24	33319	273.470135968885	8610
24	33327	273.573563053887	8670
24	33334	273.637882246115	8733
24	33340	273.730553569401	8824
24	33344	273.738486479646	8832
24	33351	273.880956683306	8972
24	33358	274.012110878012	9101
24	33364	274.032368238454	9121
24	33373	274.234760102173	9320
24	33378	274.24743355902	9333
24	33381	274.254933826887	9340
24	33389	274.276150874549	9361
24	33394	274.336690973031	9421
24	33399	274.344121182138	9428
24	33402	274.351545874544	9435
24	33409	274.358965058434	9443
24	33412	274.366377956877	9450
24	33419	274.44061958649	9523
24	33424	274.517569477117	9599
24	33430	274.56539972569	9646
24	33437	274.616047278311	9684
24	33444	274.732796461618	9708
24	33452	274.819182462707	9725
24	33465	275.118139958979	9493
24	33471	275.178277735937	9407
24	33476	275.301875069417	9230
24	33481	275.321344343592	9202
24	33487	275.354049719429	9155
24	33493	275.378295586702	9120
24	33503	275.656979813769	8721
24	33511	275.739116570367	9629
24	33518	275.835961357	9596
24	33523	275.848132564993	9592
24	33530	275.868523489739	9585
24	33536	275.885397392661	9579
24	33545	275.969104153439	9550
24	33550	275.980931889093	9546
24	33555	275.996225256154	9541
24	33556	276	9539
24	33599	276.503562013307	9366
24	33600	276.511035854862	9364
24	33603	276.518511292709	9361
24	33606	276.525989126274	9358
24	33609	276.533469357093	9356
24	33613	276.540951186935	9353
24	33616	276.548435416594	9351
24	33621	276.555921246986	9348
24	33624	276.563409479763	9346
24	33628	276.570899314987	9343
24	33631	276.578391555167	9340
24	33634	276.585886201848	9338
24	33637	276.593382453722	9335
24	33644	276.600881114675	9333
24	33648	276.608381382542	9330
24	33651	276.61588406207	9327
24	33654	276.623389154812	9325
24	33663	276.690133715218	9302
24	33668	276.771660646903	9274
24	33673	276.818489234165	9258
24	33678	276.826297602356	9255
24	33683	276.846390485825	9248
24	33686	276.853959689977	9246
24	33693	276.872338269281	9239
24	33698	276.895247601368	9231
24	33703	276.926985734136	9220
24	33708	276.962964108758	9208
24	33712	276.970566193901	9205
24	33722	277.021525012443	9188
24	33735	277.07531660062	9173
24	33741	277.085044338199	9172
24	33750	277.098827355451	9169
24	33763	277.169293151869	9154
24	33768	277.190195292884	9150
24	33774	277.230107155018	9142
24	33779	277.264043828097	9135
24	33785	277.297230027963	9128
24	33790	277.322523873382	9123
24	33794	277.330196787993	9122
24	33799	277.333861081556	9121
24	33813	277.470634645248	9093
24	33827	277.613955331103	9064
24	33833	277.638197274825	9059
24	33836	277.645924397024	9057
24	33841	277.653653225554	9056
24	33852	277.732166047622	9040
24	33862	277.778595270756	9030
24	33869	277.830420185347	9020
24	33877	277.932773071519	8999
24	33880	277.94055171359	8997
24	33888	278.022837483594	8980
24	33893	278.057077505662	8973
24	33898	278.067853233684	8971
24	33903	278.076221389271	8970
24	33910	278.142027033612	8956
24	33916	278.153310269554	8954
24	33925	278.213872027762	8941
24	33930	278.228013505886	8939
24	33933	278.235844359449	8937
24	33941	278.266789261399	8931
24	33949	278.364378091621	8911
24	33956	278.381139066163	9015
24	33960	278.388903902547	9351
24	33969	278.417077607396	9293
24	33978	278.482026951969	9160
24	33982	278.489668873366	9144
24	33987	278.497324166454	9129
24	33994	278.514771858908	9093
24	34004	278.60606194823	8905
24	34009	278.644995430974	8826
24	34017	278.66665055775	8781
24	34026	278.804695695053	8498
24	34032	278.881602794378	8340
24	34039	278.910263793945	8281
24	34049	278.93503096134	8310
24	34054	278.943454547381	8352
24	34058	278.951835773435	8394
24	34066	278.987634821433	8573
24	34073	279.000496738044	8637
24	34081	279.014845718418	8679
24	34084	279.022470088315	8679
24	34092	279.033078450062	8679
24	34095	279.04114389539	8679
24	34108	279.159601097005	8677
24	34115	279.250933108038	8675
24	34122	279.337575559222	8674
24	34130	279.440685854789	8672
24	34141	279.490870498737	8671
24	34148	279.512103801783	8671
24	34163	279.688728951174	8668
24	34174	279.825614428502	8665
24	34181	279.857340562293	8665
24	34186	279.946667508015	8663
24	34190	279.954747849698	8663
24	34197	279.962828191381	8663
24	34200	279.970908533064	8663
24	34209	279.997769278438	8662
24	34211	280	8662
24	34776	284	9337
24	35268	288	8410
24	35758	292	9082
24	36133	296	9359
24	36564	300	9122
24	37017	304	9251
24	37536	308	8336
24	37989	312	9450
24	38543	316	8744
24	38988	320	8161
24	39659	324	9619
24	40130	328	9641
24	40156	328.5	8432
24	40157	328.50830170778	8444
24	40161	328.516591617775	8457
24	40166	328.524868784619	8469
24	40169	328.533134223278	8482
24	40172	328.541386993851	8494
24	40180	328.667818597283	8683
24	40185	328.704173785155	8738
24	40190	328.716462830689	8756
24	40195	328.747614883814	8803
24	40198	328.755566718416	8814
24	40203	328.763508629013	8826
24	40211	328.821707335577	8913
24	40216	328.859754120956	8970
24	40222	328.867637771942	8982
24	40225	328.875431136449	8994
24	40233	328.937032008802	9086
24	40238	328.954852980055	9113
24	40243	328.975645559724	9144
24	40247	328.983300852812	9155
24	40255	329.044572467339	9247
24	40260	329.073539367751	9290
24	40263	329.081074351605	9302
24	40268	329.088599614989	9313
24	40276	329.117194184551	9356
24	40283	329.308390317239	9642
24	40290	329.458816543708	9755
24	40293	329.465992350986	9744
24	40300	329.477551979177	9727
24	40306	329.532330327352	9647
24	40313	329.5692656584	9592
24	40320	329.628657031238	9505
24	40325	329.64883454952	9475
24	40330	329.656869903612	9463
24	40336	329.688479864234	9417
24	40341	329.712479466425	9381
24	40348	329.771508892616	9337
24	40354	329.802301615716	9318
24	40360	329.814927433146	9310
24	40363	329.822446230138	9305
24	40368	329.829969067322	9300
24	40377	329.884186238964	9265
24	40385	329.957970106355	9218
24	40392	330.034252033199	9169
24	40400	330.176928734192	9077
24	40406	330.205042011733	9059
24	40411	330.226786961179	9045
24	40415	330.234526043545	9040
24	40422	330.243044617227	9035
24	40427	330.280075236169	9011
24	40434	330.329224638558	8979
24	40439	330.379120078938	8947
24	40444	330.388377383059	8941
24	40447	330.396206484949	8936
24	40456	330.4375057526	8910
24	40462	330.470975201564	8888
24	40468	330.541824602556	8843
24	40473	330.604067699586	8803
24	40479	330.731279790311	8721
24	40484	330.82879443159	8659
24	40489	330.854294748181	8642
24	40494	330.883293009056	8624
24	40499	330.899923369539	8613
24	40505	330.980632142562	8561
24	40515	331.085172997537	8603
24	40521	331.199287306685	8984
24	40527	331.251739611761	9160
24	40533	331.300454795858	9323
24	40539	331.321655414056	9394
24	40545	331.469157857279	9887
24	40552	331.545515602755	9895
24	40557	331.611786254105	9786
24	40562	331.619702356814	9773
24	40569	331.734007007186	9585
24	40572	331.741310084912	9573
24	40580	331.785447024955	9500
24	40587	331.847906546137	9397
24	40593	331.90477322103	9304
24	40598	331.95623204551	9219
24	40604	332	9147
24	41030	336	8595
24	41520	340	8769
24	42049	344	9269
24	42526	348	9263
24	42995	352	9044
24	43429	356	9340
24	43935	360	8519
24	44515	364	8911
24	44956	368	8427
24	45492	372	8648
24	45887	376	8093
24	46400	380	8994
24	46876	384	9136
24	47315	388	9823
24	47724	392	9090
24	48156	396	9436
24	48683	400	9194

