version 2
run Exponential-capacity-0-20210213-16:39:55-10840
attr configname Exponential-capacity
attr datetime 20210213-16:39:55
attr experiment Exponential-capacity
attr inifile aerocom.ini
attr iterationvars ""
attr iterationvarsf ""
attr measurement ""
attr network Aerocom
attr processid 10840
attr repetition 0
attr replication #0
attr resultdir results
attr runnumber 0
attr seedset 0
param **.t 2s
param **.k 50ms
param **.s "70 byte"
param **.X 0.4s
param **.nDL 10
param **.nA 1
param **.dimPoolMax 10000
param **.dimPoolMin 8000
param **.tDistribution "\"exponential\""
param **.m 4s
param **.DLMaxCapacity 0
param **.trasmitting false
param **.operationMode 0

scalar Aerocom.aircraft[0].linkSelector meanMalus:sum 38.8
attr "" ""
attr source computeMeanMalus
scalar Aerocom.aircraft[0].linkSelector waitingTime:mean 0.020884010154726
attr "" ""
attr source computeWaitingTime
scalar Aerocom.aircraft[0].linkSelector serviceTime:mean 0.007539160008913
attr "" ""
attr source computeServiceTime
scalar Aerocom.aircraft[0].linkSelector queueLength:mean 0.41693768700403
attr "" ""
attr source computeQueueLength
scalar Aerocom.aircraft[0].dataLink[0] sentPackets:count 1093
attr source computeSentPackets
scalar Aerocom.aircraft[0].dataLink[0] actualCapacity:mean 9394.4601844091
attr "" ""
attr source computeActualCapacity
scalar Aerocom.aircraft[0].dataLink[0] responseTime:mean 0.030134140579435
attr "" ""
attr source computeResponseTime
scalar Aerocom.aircraft[0].dataLink[1] sentPackets:count 1093
attr source computeSentPackets
scalar Aerocom.aircraft[0].dataLink[1] actualCapacity:mean 9350.1946308725
attr "" ""
attr source computeActualCapacity
scalar Aerocom.aircraft[0].dataLink[1] responseTime:mean 0.031002226120682
attr "" ""
attr source computeResponseTime
scalar Aerocom.aircraft[0].dataLink[2] sentPackets:count 925
attr source computeSentPackets
scalar Aerocom.aircraft[0].dataLink[2] actualCapacity:mean 9213.9247311828
attr "" ""
attr source computeActualCapacity
scalar Aerocom.aircraft[0].dataLink[2] responseTime:mean 0.025669879225038
attr "" ""
attr source computeResponseTime
scalar Aerocom.aircraft[0].dataLink[3] sentPackets:count 713
attr source computeSentPackets
scalar Aerocom.aircraft[0].dataLink[3] actualCapacity:mean 9395.3168316832
attr "" ""
attr source computeActualCapacity
scalar Aerocom.aircraft[0].dataLink[3] responseTime:mean 0.024857341860882
attr "" ""
attr source computeResponseTime
scalar Aerocom.aircraft[0].dataLink[4] sentPackets:count 717
attr source computeSentPackets
scalar Aerocom.aircraft[0].dataLink[4] actualCapacity:mean 8953.4417177914
attr "" ""
attr source computeActualCapacity
scalar Aerocom.aircraft[0].dataLink[4] responseTime:mean 0.02310573631182
attr "" ""
attr source computeResponseTime
scalar Aerocom.aircraft[0].dataLink[5] sentPackets:count 710
attr source computeSentPackets
scalar Aerocom.aircraft[0].dataLink[5] actualCapacity:mean 9042.0903465347
attr "" ""
attr source computeActualCapacity
scalar Aerocom.aircraft[0].dataLink[5] responseTime:mean 0.030378452324777
attr "" ""
attr source computeResponseTime
scalar Aerocom.aircraft[0].dataLink[6] sentPackets:count 483
attr source computeSentPackets
scalar Aerocom.aircraft[0].dataLink[6] actualCapacity:mean 9379.8396551724
attr "" ""
attr source computeActualCapacity
scalar Aerocom.aircraft[0].dataLink[6] responseTime:mean 0.024213395194865
attr "" ""
attr source computeResponseTime
scalar Aerocom.aircraft[0].dataLink[7] sentPackets:count 587
attr source computeSentPackets
scalar Aerocom.aircraft[0].dataLink[7] actualCapacity:mean 9300.7857142857
attr "" ""
attr source computeActualCapacity
scalar Aerocom.aircraft[0].dataLink[7] responseTime:mean 0.031043607525373
attr "" ""
attr source computeResponseTime
scalar Aerocom.aircraft[0].dataLink[8] sentPackets:count 566
attr source computeSentPackets
scalar Aerocom.aircraft[0].dataLink[8] actualCapacity:mean 9474.5498489426
attr "" ""
attr source computeActualCapacity
scalar Aerocom.aircraft[0].dataLink[8] responseTime:mean 0.02781449442124
attr "" ""
attr source computeResponseTime
scalar Aerocom.aircraft[0].dataLink[9] sentPackets:count 800
attr source computeSentPackets
scalar Aerocom.aircraft[0].dataLink[9] actualCapacity:mean 9226.0122222222
attr "" ""
attr source computeActualCapacity
scalar Aerocom.aircraft[0].dataLink[9] responseTime:mean 0.033003439736876
attr "" ""
attr source computeResponseTime
scalar Aerocom.controlTower receivedPackets:count 7687
attr source computeReceivedPackets

