version 2
run Exponential-capacity-9-20210217-10:37:04-11836
attr configname Exponential-capacity
attr datetime 20210217-10:37:04
attr experiment Exponential-capacity
attr inifile aerocom.ini
attr iterationvars $0=2.1
attr iterationvarsf 2.1-
attr measurement $0=2.1
attr network Aerocom
attr processid 11836
attr repetition 0
attr replication #0
attr resultdir results
attr runnumber 9
attr seedset 0
param **.t 2s
param **.k 50ms
param **.X 2s
param **.m 2.1s
param **.tDistribution "\"exponential\""
param **.operationMode 0
param **.s "70 byte"
param **.dimPoolMax 10000
param **.dimPoolMin 8000
param **.nDL 10
param **.nA 10
param **.DLMaxCapacity 0
param **.trasmitting false

scalar Aerocom.aircraft[0].linkSelector responseTime:mean 1.8905534729554
attr "" ""
attr source computeResponseTime
scalar Aerocom.aircraft[0].linkSelector meanMalus:sum 10798
attr "" ""
attr source computeMeanMalus
scalar Aerocom.aircraft[0].linkSelector waitingTime:mean 1.8829657871863
attr "" ""
attr source computeWaitingTime
scalar Aerocom.aircraft[0].linkSelector serviceTime:mean 0.0075876857691171
attr "" ""
attr source computeServiceTime
scalar Aerocom.aircraft[0].linkSelector queueLength:mean 37.350135711516
attr "" ""
attr source computeQueueLength
scalar Aerocom.aircraft[0].dataLink[0] sentPackets:count 607
attr source computeSentPackets
scalar Aerocom.aircraft[0].dataLink[0] actualCapacity:mean 9249.3647798742
attr "" ""
attr source computeActualCapacity
scalar Aerocom.aircraft[0].dataLink[1] sentPackets:count 1311
attr source computeSentPackets
scalar Aerocom.aircraft[0].dataLink[1] actualCapacity:mean 9333.6497326203
attr "" ""
attr source computeActualCapacity
scalar Aerocom.aircraft[0].dataLink[2] sentPackets:count 547
attr source computeSentPackets
scalar Aerocom.aircraft[0].dataLink[2] actualCapacity:mean 9051.7098092643
attr "" ""
attr source computeActualCapacity
scalar Aerocom.aircraft[0].dataLink[3] sentPackets:count 770
attr source computeSentPackets
scalar Aerocom.aircraft[0].dataLink[3] actualCapacity:mean 9312.3191268191
attr "" ""
attr source computeActualCapacity
scalar Aerocom.aircraft[0].dataLink[4] sentPackets:count 1174
attr source computeSentPackets
scalar Aerocom.aircraft[0].dataLink[4] actualCapacity:mean 9264.6912850812
attr "" ""
attr source computeActualCapacity
scalar Aerocom.aircraft[0].dataLink[5] sentPackets:count 504
attr source computeSentPackets
scalar Aerocom.aircraft[0].dataLink[5] actualCapacity:mean 9185.8193641618
attr "" ""
attr source computeActualCapacity
scalar Aerocom.aircraft[0].dataLink[6] sentPackets:count 567
attr source computeSentPackets
scalar Aerocom.aircraft[0].dataLink[6] actualCapacity:mean 9001.0065963061
attr "" ""
attr source computeActualCapacity
scalar Aerocom.aircraft[0].dataLink[7] sentPackets:count 598
attr source computeSentPackets
scalar Aerocom.aircraft[0].dataLink[7] actualCapacity:mean 9294.3895274585
attr "" ""
attr source computeActualCapacity
scalar Aerocom.aircraft[0].dataLink[8] sentPackets:count 803
attr source computeSentPackets
scalar Aerocom.aircraft[0].dataLink[8] actualCapacity:mean 9042.8751269036
attr "" ""
attr source computeActualCapacity
scalar Aerocom.aircraft[0].dataLink[9] sentPackets:count 856
attr source computeSentPackets
scalar Aerocom.aircraft[0].dataLink[9] actualCapacity:mean 9123.049132948
attr "" ""
attr source computeActualCapacity
scalar Aerocom.aircraft[1].linkSelector responseTime:mean 1.9678485381236
attr "" ""
attr source computeResponseTime
scalar Aerocom.aircraft[1].linkSelector meanMalus:sum 10980
attr "" ""
attr source computeMeanMalus
scalar Aerocom.aircraft[1].linkSelector waitingTime:mean 1.9603192056604
attr "" ""
attr source computeWaitingTime
scalar Aerocom.aircraft[1].linkSelector serviceTime:mean 0.0075293324632334
attr "" ""
attr source computeServiceTime
scalar Aerocom.aircraft[1].linkSelector queueLength:mean 39.853955375254
attr "" ""
attr source computeQueueLength
scalar Aerocom.aircraft[1].dataLink[0] sentPackets:count 591
attr source computeSentPackets
scalar Aerocom.aircraft[1].dataLink[0] actualCapacity:mean 9296.4377406932
attr "" ""
attr source computeActualCapacity
scalar Aerocom.aircraft[1].dataLink[1] sentPackets:count 740
attr source computeSentPackets
scalar Aerocom.aircraft[1].dataLink[1] actualCapacity:mean 9215.1980519481
attr "" ""
attr source computeActualCapacity
scalar Aerocom.aircraft[1].dataLink[2] sentPackets:count 1180
attr source computeSentPackets
scalar Aerocom.aircraft[1].dataLink[2] actualCapacity:mean 9314.6278388278
attr "" ""
attr source computeActualCapacity
scalar Aerocom.aircraft[1].dataLink[3] sentPackets:count 606
attr source computeSentPackets
scalar Aerocom.aircraft[1].dataLink[3] actualCapacity:mean 9029.4337957125
attr "" ""
attr source computeActualCapacity
scalar Aerocom.aircraft[1].dataLink[4] sentPackets:count 787
attr source computeSentPackets
scalar Aerocom.aircraft[1].dataLink[4] actualCapacity:mean 9092.2724458204
attr "" ""
attr source computeActualCapacity
scalar Aerocom.aircraft[1].dataLink[5] sentPackets:count 1082
attr source computeSentPackets
scalar Aerocom.aircraft[1].dataLink[5] actualCapacity:mean 9497.4873817035
attr "" ""
attr source computeActualCapacity
scalar Aerocom.aircraft[1].dataLink[6] sentPackets:count 881
attr source computeSentPackets
scalar Aerocom.aircraft[1].dataLink[6] actualCapacity:mean 9367.2392523364
attr "" ""
attr source computeActualCapacity
scalar Aerocom.aircraft[1].dataLink[7] sentPackets:count 623
attr source computeSentPackets
scalar Aerocom.aircraft[1].dataLink[7] actualCapacity:mean 8933.4734239802
attr "" ""
attr source computeActualCapacity
scalar Aerocom.aircraft[1].dataLink[8] sentPackets:count 698
attr source computeSentPackets
scalar Aerocom.aircraft[1].dataLink[8] actualCapacity:mean 9384.1231638418
attr "" ""
attr source computeActualCapacity
scalar Aerocom.aircraft[1].dataLink[9] sentPackets:count 700
attr source computeSentPackets
scalar Aerocom.aircraft[1].dataLink[9] actualCapacity:mean 9329.4458239278
attr "" ""
attr source computeActualCapacity
scalar Aerocom.aircraft[2].linkSelector responseTime:mean 1.816679256632
attr "" ""
attr source computeResponseTime
scalar Aerocom.aircraft[2].linkSelector meanMalus:sum 10998
attr "" ""
attr source computeMeanMalus
scalar Aerocom.aircraft[2].linkSelector waitingTime:mean 1.809143859016
attr "" ""
attr source computeWaitingTime
scalar Aerocom.aircraft[2].linkSelector serviceTime:mean 0.0075353976160095
attr "" ""
attr source computeServiceTime
scalar Aerocom.aircraft[2].linkSelector queueLength:mean 35.794954721863
attr "" ""
attr source computeQueueLength
scalar Aerocom.aircraft[2].dataLink[0] sentPackets:count 662
attr source computeSentPackets
scalar Aerocom.aircraft[2].dataLink[0] actualCapacity:mean 9096.2673733804
attr "" ""
attr source computeActualCapacity
scalar Aerocom.aircraft[2].dataLink[1] sentPackets:count 1012
attr source computeSentPackets
scalar Aerocom.aircraft[2].dataLink[1] actualCapacity:mean 9197.3993316625
attr "" ""
attr source computeActualCapacity
scalar Aerocom.aircraft[2].dataLink[2] sentPackets:count 271
attr source computeSentPackets
scalar Aerocom.aircraft[2].dataLink[2] actualCapacity:mean 8919.4805194805
attr "" ""
attr source computeActualCapacity
scalar Aerocom.aircraft[2].dataLink[3] sentPackets:count 871
attr source computeSentPackets
scalar Aerocom.aircraft[2].dataLink[3] actualCapacity:mean 9395.7793560606
attr "" ""
attr source computeActualCapacity
scalar Aerocom.aircraft[2].dataLink[4] sentPackets:count 1108
attr source computeSentPackets
scalar Aerocom.aircraft[2].dataLink[4] actualCapacity:mean 9174.9217660728
attr "" ""
attr source computeActualCapacity
scalar Aerocom.aircraft[2].dataLink[5] sentPackets:count 403
attr source computeSentPackets
scalar Aerocom.aircraft[2].dataLink[5] actualCapacity:mean 9145.1224489796
attr "" ""
attr source computeActualCapacity
scalar Aerocom.aircraft[2].dataLink[6] sentPackets:count 1435
attr source computeSentPackets
scalar Aerocom.aircraft[2].dataLink[6] actualCapacity:mean 9466.5061728395
attr "" ""
attr source computeActualCapacity
scalar Aerocom.aircraft[2].dataLink[7] sentPackets:count 493
attr source computeSentPackets
scalar Aerocom.aircraft[2].dataLink[7] actualCapacity:mean 9292.362170088
attr "" ""
attr source computeActualCapacity
scalar Aerocom.aircraft[2].dataLink[8] sentPackets:count 704
attr source computeSentPackets
scalar Aerocom.aircraft[2].dataLink[8] actualCapacity:mean 9255.2460674157
attr "" ""
attr source computeActualCapacity
scalar Aerocom.aircraft[2].dataLink[9] sentPackets:count 771
attr source computeSentPackets
scalar Aerocom.aircraft[2].dataLink[9] actualCapacity:mean 9266.1486910995
attr "" ""
attr source computeActualCapacity
scalar Aerocom.aircraft[3].linkSelector responseTime:mean 1.8797589371542
attr "" ""
attr source computeResponseTime
scalar Aerocom.aircraft[3].linkSelector meanMalus:sum 10938
attr "" ""
attr source computeMeanMalus
scalar Aerocom.aircraft[3].linkSelector waitingTime:mean 1.8722103020951
attr "" ""
attr source computeWaitingTime
scalar Aerocom.aircraft[3].linkSelector serviceTime:mean 0.0075486350591948
attr "" ""
attr source computeServiceTime
scalar Aerocom.aircraft[3].linkSelector queueLength:mean 37.716969077434
attr "" ""
attr source computeQueueLength
scalar Aerocom.aircraft[3].dataLink[0] sentPackets:count 658
attr source computeSentPackets
scalar Aerocom.aircraft[3].dataLink[0] actualCapacity:mean 9278.8990498812
attr "" ""
attr source computeActualCapacity
scalar Aerocom.aircraft[3].dataLink[1] sentPackets:count 1002
attr source computeSentPackets
scalar Aerocom.aircraft[3].dataLink[1] actualCapacity:mean 9252.76306914
attr "" ""
attr source computeActualCapacity
scalar Aerocom.aircraft[3].dataLink[2] sentPackets:count 585
attr source computeSentPackets
scalar Aerocom.aircraft[3].dataLink[2] actualCapacity:mean 9238.9870967742
attr "" ""
attr source computeActualCapacity
scalar Aerocom.aircraft[3].dataLink[3] sentPackets:count 469
attr source computeSentPackets
scalar Aerocom.aircraft[3].dataLink[3] actualCapacity:mean 9209.1966463415
attr "" ""
attr source computeActualCapacity
scalar Aerocom.aircraft[3].dataLink[4] sentPackets:count 1035
attr source computeSentPackets
scalar Aerocom.aircraft[3].dataLink[4] actualCapacity:mean 9247.2920426579
attr "" ""
attr source computeActualCapacity
scalar Aerocom.aircraft[3].dataLink[5] sentPackets:count 672
attr source computeSentPackets
scalar Aerocom.aircraft[3].dataLink[5] actualCapacity:mean 9117.5540069686
attr "" ""
attr source computeActualCapacity
scalar Aerocom.aircraft[3].dataLink[6] sentPackets:count 1093
attr source computeSentPackets
scalar Aerocom.aircraft[3].dataLink[6] actualCapacity:mean 9308.2488262911
attr "" ""
attr source computeActualCapacity
scalar Aerocom.aircraft[3].dataLink[7] sentPackets:count 1433
attr source computeSentPackets
scalar Aerocom.aircraft[3].dataLink[7] actualCapacity:mean 9350.3561728395
attr "" ""
attr source computeActualCapacity
scalar Aerocom.aircraft[3].dataLink[8] sentPackets:count 484
attr source computeSentPackets
scalar Aerocom.aircraft[3].dataLink[8] actualCapacity:mean 8975.1016442451
attr "" ""
attr source computeActualCapacity
scalar Aerocom.aircraft[3].dataLink[9] sentPackets:count 395
attr source computeSentPackets
scalar Aerocom.aircraft[3].dataLink[9] actualCapacity:mean 9174.9431034483
attr "" ""
attr source computeActualCapacity
scalar Aerocom.aircraft[4].linkSelector responseTime:mean 1.8228550589895
attr "" ""
attr source computeResponseTime
scalar Aerocom.aircraft[4].linkSelector meanMalus:sum 10834
attr "" ""
attr source computeMeanMalus
scalar Aerocom.aircraft[4].linkSelector waitingTime:mean 1.8153170161327
attr "" ""
attr source computeWaitingTime
scalar Aerocom.aircraft[4].linkSelector serviceTime:mean 0.0075380428568249
attr "" ""
attr source computeServiceTime
scalar Aerocom.aircraft[4].linkSelector queueLength:mean 35.915415222693
attr "" ""
attr source computeQueueLength
scalar Aerocom.aircraft[4].dataLink[0] sentPackets:count 1080
attr source computeSentPackets
scalar Aerocom.aircraft[4].dataLink[0] actualCapacity:mean 9329.5035516969
attr "" ""
attr source computeActualCapacity
scalar Aerocom.aircraft[4].dataLink[1] sentPackets:count 976
attr source computeSentPackets
scalar Aerocom.aircraft[4].dataLink[1] actualCapacity:mean 9115.4585492228
attr "" ""
attr source computeActualCapacity
scalar Aerocom.aircraft[4].dataLink[2] sentPackets:count 519
attr source computeSentPackets
scalar Aerocom.aircraft[4].dataLink[2] actualCapacity:mean 9119.0326241135
attr "" ""
attr source computeActualCapacity
scalar Aerocom.aircraft[4].dataLink[3] sentPackets:count 953
attr source computeSentPackets
scalar Aerocom.aircraft[4].dataLink[3] actualCapacity:mean 9224.6839332748
attr "" ""
attr source computeActualCapacity
scalar Aerocom.aircraft[4].dataLink[4] sentPackets:count 1003
attr source computeSentPackets
scalar Aerocom.aircraft[4].dataLink[4] actualCapacity:mean 9400.5337268128
attr "" ""
attr source computeActualCapacity
scalar Aerocom.aircraft[4].dataLink[5] sentPackets:count 617
attr source computeSentPackets
scalar Aerocom.aircraft[4].dataLink[5] actualCapacity:mean 9256.9727047146
attr "" ""
attr source computeActualCapacity
scalar Aerocom.aircraft[4].dataLink[6] sentPackets:count 551
attr source computeSentPackets
scalar Aerocom.aircraft[4].dataLink[6] actualCapacity:mean 9169.9851351351
attr "" ""
attr source computeActualCapacity
scalar Aerocom.aircraft[4].dataLink[7] sentPackets:count 586
attr source computeSentPackets
scalar Aerocom.aircraft[4].dataLink[7] actualCapacity:mean 9307.8766233766
attr "" ""
attr source computeActualCapacity
scalar Aerocom.aircraft[4].dataLink[8] sentPackets:count 749
attr source computeSentPackets
scalar Aerocom.aircraft[4].dataLink[8] actualCapacity:mean 9277.1099252935
attr "" ""
attr source computeActualCapacity
scalar Aerocom.aircraft[4].dataLink[9] sentPackets:count 757
attr source computeSentPackets
scalar Aerocom.aircraft[4].dataLink[9] actualCapacity:mean 9222.7221633086
attr "" ""
attr source computeActualCapacity
scalar Aerocom.aircraft[5].linkSelector responseTime:mean 1.7796956939321
attr "" ""
attr source computeResponseTime
scalar Aerocom.aircraft[5].linkSelector meanMalus:sum 10704
attr "" ""
attr source computeMeanMalus
scalar Aerocom.aircraft[5].linkSelector waitingTime:mean 1.7721809490797
attr "" ""
attr source computeWaitingTime
scalar Aerocom.aircraft[5].linkSelector serviceTime:mean 0.0075147448524963
attr "" ""
attr source computeServiceTime
scalar Aerocom.aircraft[5].linkSelector queueLength:mean 35.193738773415
attr "" ""
attr source computeQueueLength
scalar Aerocom.aircraft[5].dataLink[0] sentPackets:count 958
attr source computeSentPackets
scalar Aerocom.aircraft[5].dataLink[0] actualCapacity:mean 9381.3987730061
attr "" ""
attr source computeActualCapacity
scalar Aerocom.aircraft[5].dataLink[1] sentPackets:count 678
attr source computeSentPackets
scalar Aerocom.aircraft[5].dataLink[1] actualCapacity:mean 9253.192575406
attr "" ""
attr source computeActualCapacity
scalar Aerocom.aircraft[5].dataLink[2] sentPackets:count 920
attr source computeSentPackets
scalar Aerocom.aircraft[5].dataLink[2] actualCapacity:mean 9378.0670289855
attr "" ""
attr source computeActualCapacity
scalar Aerocom.aircraft[5].dataLink[3] sentPackets:count 623
attr source computeSentPackets
scalar Aerocom.aircraft[5].dataLink[3] actualCapacity:mean 9353.2567901235
attr "" ""
attr source computeActualCapacity
scalar Aerocom.aircraft[5].dataLink[4] sentPackets:count 835
attr source computeSentPackets
scalar Aerocom.aircraft[5].dataLink[4] actualCapacity:mean 9361.2423945044
attr "" ""
attr source computeActualCapacity
scalar Aerocom.aircraft[5].dataLink[5] sentPackets:count 535
attr source computeSentPackets
scalar Aerocom.aircraft[5].dataLink[5] actualCapacity:mean 9041.3701657459
attr "" ""
attr source computeActualCapacity
scalar Aerocom.aircraft[5].dataLink[6] sentPackets:count 653
attr source computeSentPackets
scalar Aerocom.aircraft[5].dataLink[6] actualCapacity:mean 9194.0586124402
attr "" ""
attr source computeActualCapacity
scalar Aerocom.aircraft[5].dataLink[7] sentPackets:count 840
attr source computeSentPackets
scalar Aerocom.aircraft[5].dataLink[7] actualCapacity:mean 9251.5598831548
attr "" ""
attr source computeActualCapacity
scalar Aerocom.aircraft[5].dataLink[8] sentPackets:count 651
attr source computeSentPackets
scalar Aerocom.aircraft[5].dataLink[8] actualCapacity:mean 9198.8991696323
attr "" ""
attr source computeActualCapacity
scalar Aerocom.aircraft[5].dataLink[9] sentPackets:count 1101
attr source computeSentPackets
scalar Aerocom.aircraft[5].dataLink[9] actualCapacity:mean 9213.3051242236
attr "" ""
attr source computeActualCapacity
scalar Aerocom.aircraft[6].linkSelector responseTime:mean 1.9634473493498
attr "" ""
attr source computeResponseTime
scalar Aerocom.aircraft[6].linkSelector meanMalus:sum 11310
attr "" ""
attr source computeMeanMalus
scalar Aerocom.aircraft[6].linkSelector waitingTime:mean 1.955874610841
attr "" ""
attr source computeWaitingTime
scalar Aerocom.aircraft[6].linkSelector serviceTime:mean 0.0075727385087828
attr "" ""
attr source computeServiceTime
scalar Aerocom.aircraft[6].linkSelector queueLength:mean 40.608490566038
attr "" ""
attr source computeQueueLength
scalar Aerocom.aircraft[6].dataLink[0] sentPackets:count 770
attr source computeSentPackets
scalar Aerocom.aircraft[6].dataLink[0] actualCapacity:mean 9474.0177083333
attr "" ""
attr source computeActualCapacity
scalar Aerocom.aircraft[6].dataLink[1] sentPackets:count 617
attr source computeSentPackets
scalar Aerocom.aircraft[6].dataLink[1] actualCapacity:mean 9268.1641791045
attr "" ""
attr source computeActualCapacity
scalar Aerocom.aircraft[6].dataLink[2] sentPackets:count 461
attr source computeSentPackets
scalar Aerocom.aircraft[6].dataLink[2] actualCapacity:mean 9051.1406491499
attr "" ""
attr source computeActualCapacity
scalar Aerocom.aircraft[6].dataLink[3] sentPackets:count 845
attr source computeSentPackets
scalar Aerocom.aircraft[6].dataLink[3] actualCapacity:mean 9397.2944606414
attr "" ""
attr source computeActualCapacity
scalar Aerocom.aircraft[6].dataLink[4] sentPackets:count 709
attr source computeSentPackets
scalar Aerocom.aircraft[6].dataLink[4] actualCapacity:mean 8907.5847362514
attr "" ""
attr source computeActualCapacity
scalar Aerocom.aircraft[6].dataLink[5] sentPackets:count 1027
attr source computeSentPackets
scalar Aerocom.aircraft[6].dataLink[5] actualCapacity:mean 9206.4777227723
attr "" ""
attr source computeActualCapacity
scalar Aerocom.aircraft[6].dataLink[6] sentPackets:count 852
attr source computeSentPackets
scalar Aerocom.aircraft[6].dataLink[6] actualCapacity:mean 9135.6252408478
attr "" ""
attr source computeActualCapacity
scalar Aerocom.aircraft[6].dataLink[7] sentPackets:count 906
attr source computeSentPackets
scalar Aerocom.aircraft[6].dataLink[7] actualCapacity:mean 9233.2942254812
attr "" ""
attr source computeActualCapacity
scalar Aerocom.aircraft[6].dataLink[8] sentPackets:count 746
attr source computeSentPackets
scalar Aerocom.aircraft[6].dataLink[8] actualCapacity:mean 9236.1466809422
attr "" ""
attr source computeActualCapacity
scalar Aerocom.aircraft[6].dataLink[9] sentPackets:count 1123
attr source computeSentPackets
scalar Aerocom.aircraft[6].dataLink[9] actualCapacity:mean 9180.7908396947
attr "" ""
attr source computeActualCapacity
scalar Aerocom.aircraft[7].linkSelector responseTime:mean 1.8433051672548
attr "" ""
attr source computeResponseTime
scalar Aerocom.aircraft[7].linkSelector meanMalus:sum 10966
attr "" ""
attr source computeMeanMalus
scalar Aerocom.aircraft[7].linkSelector waitingTime:mean 1.8357768044939
attr "" ""
attr source computeWaitingTime
scalar Aerocom.aircraft[7].linkSelector serviceTime:mean 0.0075283627609674
attr "" ""
attr source computeServiceTime
scalar Aerocom.aircraft[7].linkSelector queueLength:mean 37.491968383478
attr "" ""
attr source computeQueueLength
scalar Aerocom.aircraft[7].dataLink[0] sentPackets:count 968
attr source computeSentPackets
scalar Aerocom.aircraft[7].dataLink[0] actualCapacity:mean 9414.3437229437
attr "" ""
attr source computeActualCapacity
scalar Aerocom.aircraft[7].dataLink[1] sentPackets:count 825
attr source computeSentPackets
scalar Aerocom.aircraft[7].dataLink[1] actualCapacity:mean 9221.0168483647
attr "" ""
attr source computeActualCapacity
scalar Aerocom.aircraft[7].dataLink[2] sentPackets:count 560
attr source computeSentPackets
scalar Aerocom.aircraft[7].dataLink[2] actualCapacity:mean 9285.9025367156
attr "" ""
attr source computeActualCapacity
scalar Aerocom.aircraft[7].dataLink[3] sentPackets:count 565
attr source computeSentPackets
scalar Aerocom.aircraft[7].dataLink[3] actualCapacity:mean 9081.7632978723
attr "" ""
attr source computeActualCapacity
scalar Aerocom.aircraft[7].dataLink[4] sentPackets:count 934
attr source computeSentPackets
scalar Aerocom.aircraft[7].dataLink[4] actualCapacity:mean 9022.6571428571
attr "" ""
attr source computeActualCapacity
scalar Aerocom.aircraft[7].dataLink[5] sentPackets:count 930
attr source computeSentPackets
scalar Aerocom.aircraft[7].dataLink[5] actualCapacity:mean 9367.0313901345
attr "" ""
attr source computeActualCapacity
scalar Aerocom.aircraft[7].dataLink[6] sentPackets:count 952
attr source computeSentPackets
scalar Aerocom.aircraft[7].dataLink[6] actualCapacity:mean 9320.7915567282
attr "" ""
attr source computeActualCapacity
scalar Aerocom.aircraft[7].dataLink[7] sentPackets:count 738
attr source computeSentPackets
scalar Aerocom.aircraft[7].dataLink[7] actualCapacity:mean 9328.8056155508
attr "" ""
attr source computeActualCapacity
scalar Aerocom.aircraft[7].dataLink[8] sentPackets:count 579
attr source computeSentPackets
scalar Aerocom.aircraft[7].dataLink[8] actualCapacity:mean 9215.0327653997
attr "" ""
attr source computeActualCapacity
scalar Aerocom.aircraft[7].dataLink[9] sentPackets:count 793
attr source computeSentPackets
scalar Aerocom.aircraft[7].dataLink[9] actualCapacity:mean 9340.1267893661
attr "" ""
attr source computeActualCapacity
scalar Aerocom.aircraft[8].linkSelector responseTime:mean 1.8769553219938
attr "" ""
attr source computeResponseTime
scalar Aerocom.aircraft[8].linkSelector meanMalus:sum 11044
attr "" ""
attr source computeMeanMalus
scalar Aerocom.aircraft[8].linkSelector waitingTime:mean 1.8693651229982
attr "" ""
attr source computeWaitingTime
scalar Aerocom.aircraft[8].linkSelector serviceTime:mean 0.007590198995583
attr "" ""
attr source computeServiceTime
scalar Aerocom.aircraft[8].linkSelector queueLength:mean 37.723377120265
attr "" ""
attr source computeQueueLength
scalar Aerocom.aircraft[8].dataLink[0] sentPackets:count 831
attr source computeSentPackets
scalar Aerocom.aircraft[8].dataLink[0] actualCapacity:mean 9283.9235294118
attr "" ""
attr source computeActualCapacity
scalar Aerocom.aircraft[8].dataLink[1] sentPackets:count 744
attr source computeSentPackets
scalar Aerocom.aircraft[8].dataLink[1] actualCapacity:mean 9128.8543897216
attr "" ""
attr source computeActualCapacity
scalar Aerocom.aircraft[8].dataLink[2] sentPackets:count 825
attr source computeSentPackets
scalar Aerocom.aircraft[8].dataLink[2] actualCapacity:mean 9024.1288404361
attr "" ""
attr source computeActualCapacity
scalar Aerocom.aircraft[8].dataLink[3] sentPackets:count 939
attr source computeSentPackets
scalar Aerocom.aircraft[8].dataLink[3] actualCapacity:mean 9241.2551111111
attr "" ""
attr source computeActualCapacity
scalar Aerocom.aircraft[8].dataLink[4] sentPackets:count 648
attr source computeSentPackets
scalar Aerocom.aircraft[8].dataLink[4] actualCapacity:mean 9162.4837935174
attr "" ""
attr source computeActualCapacity
scalar Aerocom.aircraft[8].dataLink[5] sentPackets:count 890
attr source computeSentPackets
scalar Aerocom.aircraft[8].dataLink[5] actualCapacity:mean 9298.3044692737
attr "" ""
attr source computeActualCapacity
scalar Aerocom.aircraft[8].dataLink[6] sentPackets:count 621
attr source computeSentPackets
scalar Aerocom.aircraft[8].dataLink[6] actualCapacity:mean 8982.2611386139
attr "" ""
attr source computeActualCapacity
scalar Aerocom.aircraft[8].dataLink[7] sentPackets:count 831
attr source computeSentPackets
scalar Aerocom.aircraft[8].dataLink[7] actualCapacity:mean 9276.9901671583
attr "" ""
attr source computeActualCapacity
scalar Aerocom.aircraft[8].dataLink[8] sentPackets:count 579
attr source computeSentPackets
scalar Aerocom.aircraft[8].dataLink[8] actualCapacity:mean 9185.9335071708
attr "" ""
attr source computeActualCapacity
scalar Aerocom.aircraft[8].dataLink[9] sentPackets:count 933
attr source computeSentPackets
scalar Aerocom.aircraft[8].dataLink[9] actualCapacity:mean 9293.9784560144
attr "" ""
attr source computeActualCapacity
scalar Aerocom.aircraft[9].linkSelector responseTime:mean 1.8312431402584
attr "" ""
attr source computeResponseTime
scalar Aerocom.aircraft[9].linkSelector meanMalus:sum 10564
attr "" ""
attr source computeMeanMalus
scalar Aerocom.aircraft[9].linkSelector waitingTime:mean 1.8237455475316
attr "" ""
attr source computeWaitingTime
scalar Aerocom.aircraft[9].linkSelector serviceTime:mean 0.007497592726788
attr "" ""
attr source computeServiceTime
scalar Aerocom.aircraft[9].linkSelector queueLength:mean 36.803530607061
attr "" ""
attr source computeQueueLength
scalar Aerocom.aircraft[9].dataLink[0] sentPackets:count 614
attr source computeSentPackets
scalar Aerocom.aircraft[9].dataLink[0] actualCapacity:mean 9317.2772898369
attr "" ""
attr source computeActualCapacity
scalar Aerocom.aircraft[9].dataLink[1] sentPackets:count 1258
attr source computeSentPackets
scalar Aerocom.aircraft[9].dataLink[1] actualCapacity:mean 9441.1922276197
attr "" ""
attr source computeActualCapacity
scalar Aerocom.aircraft[9].dataLink[2] sentPackets:count 1189
attr source computeSentPackets
scalar Aerocom.aircraft[9].dataLink[2] actualCapacity:mean 9179.1750547046
attr "" ""
attr source computeActualCapacity
scalar Aerocom.aircraft[9].dataLink[3] sentPackets:count 727
attr source computeSentPackets
scalar Aerocom.aircraft[9].dataLink[3] actualCapacity:mean 9360.0667396061
attr "" ""
attr source computeActualCapacity
scalar Aerocom.aircraft[9].dataLink[4] sentPackets:count 753
attr source computeSentPackets
scalar Aerocom.aircraft[9].dataLink[4] actualCapacity:mean 9161.8840425532
attr "" ""
attr source computeActualCapacity
scalar Aerocom.aircraft[9].dataLink[5] sentPackets:count 551
attr source computeSentPackets
scalar Aerocom.aircraft[9].dataLink[5] actualCapacity:mean 9325.8179347826
attr "" ""
attr source computeActualCapacity
scalar Aerocom.aircraft[9].dataLink[6] sentPackets:count 489
attr source computeSentPackets
scalar Aerocom.aircraft[9].dataLink[6] actualCapacity:mean 9009.1735294118
attr "" ""
attr source computeActualCapacity
scalar Aerocom.aircraft[9].dataLink[7] sentPackets:count 879
attr source computeSentPackets
scalar Aerocom.aircraft[9].dataLink[7] actualCapacity:mean 9348.2272300469
attr "" ""
attr source computeActualCapacity
scalar Aerocom.aircraft[9].dataLink[8] sentPackets:count 745
attr source computeSentPackets
scalar Aerocom.aircraft[9].dataLink[8] actualCapacity:mean 9451.8759358289
attr "" ""
attr source computeActualCapacity
scalar Aerocom.aircraft[9].dataLink[9] sentPackets:count 669
attr source computeSentPackets
scalar Aerocom.aircraft[9].dataLink[9] actualCapacity:mean 9231.4011695906
attr "" ""
attr source computeActualCapacity
scalar Aerocom.controlTower receivedPackets:count 78381
attr source computeReceivedPackets

