file 9919385 1613553645                                         
version 2
run Exponential-capacity-1-20210217-10:20:42-5772
attr configname Exponential-capacity
attr datetime 20210217-10:20:42
attr experiment Exponential-capacity
attr inifile aerocom.ini
attr iterationvars "$0=9, $1=1.5"
attr iterationvarsf 9,1.5-
attr measurement "$0=9, $1=1.5"
attr network Aerocom
attr processid 5772
attr repetition 0
attr replication #0
attr resultdir results
attr runnumber 1
attr seedset 0
param **.t 3s
param **.k 9ms
param **.X 0.5s
param **.m 1.5s
param **.tDistribution "\"exponential\""
param **.operationMode 0
param **.s "70 byte"
param **.dimPoolMax 10000
param **.dimPoolMin 8000
param **.nDL 10
param **.nA 1
param **.DLMaxCapacity 0
param **.trasmitting false

vector 0 Aerocom.aircraft[0].linkSelector responseTime:vector ETV
attr "" ""
attr source computeResponseTime
vector 1 Aerocom.aircraft[0].linkSelector waitingTime:vector ETV
attr "" ""
attr source computeWaitingTime
vector 2 Aerocom.aircraft[0].linkSelector queueLength:vector ETV
attr "" ""
attr source computeQueueLength
vector 3 Aerocom.aircraft[0].dataLink[1] actualCapacity:vector ETV
attr "" ""
attr source computeActualCapacity
vector 4 Aerocom.aircraft[0].linkSelector serviceTime:vector ETV
attr "" ""
attr source computeServiceTime
vector 5 Aerocom.aircraft[0].packetGenerator arrivalTime:vector ETV
attr "" ""
attr source computeArrivalTime
vector 6 Aerocom.aircraft[0].dataLink[4] tDistribution:vector ETV
attr "" ""
attr source computeTDistribution
vector 7 Aerocom.aircraft[0].dataLink[6] tDistribution:vector ETV
attr "" ""
attr source computeTDistribution
vector 8 Aerocom.aircraft[0].dataLink[1] tDistribution:vector ETV
attr "" ""
attr source computeTDistribution
vector 9 Aerocom.aircraft[0].dataLink[0] actualCapacity:vector ETV
attr "" ""
attr source computeActualCapacity
vector 10 Aerocom.aircraft[0].dataLink[2] actualCapacity:vector ETV
attr "" ""
attr source computeActualCapacity
vector 11 Aerocom.aircraft[0].dataLink[3] actualCapacity:vector ETV
attr "" ""
attr source computeActualCapacity
vector 12 Aerocom.aircraft[0].dataLink[4] actualCapacity:vector ETV
attr "" ""
attr source computeActualCapacity
vector 13 Aerocom.aircraft[0].dataLink[5] actualCapacity:vector ETV
attr "" ""
attr source computeActualCapacity
vector 14 Aerocom.aircraft[0].dataLink[6] actualCapacity:vector ETV
attr "" ""
attr source computeActualCapacity
vector 15 Aerocom.aircraft[0].dataLink[7] actualCapacity:vector ETV
attr "" ""
attr source computeActualCapacity
vector 16 Aerocom.aircraft[0].dataLink[8] actualCapacity:vector ETV
attr "" ""
attr source computeActualCapacity
vector 17 Aerocom.aircraft[0].dataLink[9] actualCapacity:vector ETV
attr "" ""
attr source computeActualCapacity
vector 18 Aerocom.aircraft[0].dataLink[5] tDistribution:vector ETV
attr "" ""
attr source computeTDistribution
vector 19 Aerocom.aircraft[0].dataLink[8] tDistribution:vector ETV
attr "" ""
attr source computeTDistribution
vector 20 Aerocom.aircraft[0].dataLink[0] tDistribution:vector ETV
attr "" ""
attr source computeTDistribution
vector 21 Aerocom.aircraft[0].dataLink[2] tDistribution:vector ETV
attr "" ""
attr source computeTDistribution
vector 22 Aerocom.aircraft[0].dataLink[7] tDistribution:vector ETV
attr "" ""
attr source computeTDistribution
vector 23 Aerocom.aircraft[0].dataLink[9] tDistribution:vector ETV
attr "" ""
attr source computeTDistribution
vector 24 Aerocom.aircraft[0].dataLink[3] tDistribution:vector ETV
attr "" ""
attr source computeTDistribution
5	3580 1341897 5987 192169 10.005231214764 301.895187569655 32768 3.6099e-008 0.096500924816 291.90165072413 5.2073499154391
0	1345477 1341690 5984 192191 10.004776495479 302.017466277142 32768 0.007005604484 0.970628399972 4081.472604946 1813.5336850045
1	2687167 1226226 5984 192191 10.004776495479 302.017466277142 32768 0 0.963572659623 3841.5524428705 1755.5377504963
2	3913393 927873 5984 192191 10.004776495479 302.017466277142 32768 0 94 428381 22073381
4	4841266 1472181 5984 192191 10.004776495479 302.017466277142 32768 0.0070056044835869 0.0087281795511222 239.99488717724 1.7605677237999
0	6313447 448535 192196 253896 302.024585162528 399.992328753791 10736 0.007020359041 1.033555799236 1144.0620317831 537.86548520955
1	6761982 404807 192196 253890 302.024585162528 399.984749715246 10735 0 1.02615074264 1064.9555730157 521.39470998267
2	7166789 312535 192196 253890 302.024585162528 399.984749715246 10735 0 108 116442 6249658
3	7479324 154141 5984 253314 10.004776495479 399 4993 8077 9937 47912318 460168641016
4	7633465 491406 192196 253890 302.024585162528 399.984749715246 10735 0.007018951168154 0.0086665841277702 78.606526993608 0.57622660233786
5	8124871 446673 192171 253889 301.906881938898 399.984749715246 10690 2.075485e-006 0.093155895855 98.130373617798 1.8051015975744
6	8571544 6581 6106 252248 10.203684607688 397.281470896017 155 0.010739517205868 10.933740481042 391.20523465692 1867.3384032852
7	8578125 5456 6144 253660 10.276687748401 399.582664491057 128 0.0046257705518035 21.866676562641 394.65348847132 2680.3533415531
8	8583581 5084 6207 253676 10.379485951627 399.598350968059 120 0.010023053548118 19.095471434865 392.76340000707 2407.0567308421
9	8588665 202063 6282 253314 10.5 399 6545 8065 9961 62506376 597968532224
10	8790728 79839 6282 253314 10.5 399 2589 8018 9978 24434858 231113343126
11	8870567 132413 6282 253314 10.5 399 4255 8077 9947 40759202 390844230026
12	9002980 126216 6282 253314 10.5 399 4032 8021 9965 38253133 363833886997
13	9129196 135239 6282 253314 10.5 399 4264 8016 9986 40338355 382228435393
14	9264435 126074 6282 253314 10.5 399 3996 8089 9960 37791436 358045507656
15	9390509 144830 6282 253890 10.5 399.984749715246 4555 8031 9987 43325875 412783010529
16	9535339 168329 6282 253314 10.5 399 5358 8036 9992 51635457 498057313773
17	9703668 175422 6282 253314 10.5 399 5516 8020 9954 52768696 505623993580
18	9879090 6332 6290 253498 10.512701937009 399.26724886852 146 0.0074565261417224 13.460148239681 393.83660967434 2049.2077779932
19	9885422 4768 6621 249334 11.360882962893 393.499445083393 110 0.00037077544349613 23.253607185995 395.47160748284 3033.4957189197
20	9890190 5777 7214 251829 11.986246086418 396.616178795411 133 0.039976272460222 11.530792426723 388.43385299836 2058.0400242859
21	9895967 5925 7349 250971 12.109370541993 395.436018372776 136 0.0061931119847609 15.274890465208 389.19202620404 2037.979323136
22	9901892 5700 7516 253287 12.313726549034 398.971737981676 131 0.029300814333314 15.865257109258 388.93846333758 2425.3017972606
23	9907592 5612 7967 253535 13.034736668212 399.363504255394 129 0.0077577452830852 19.513402438353 388.62563507912 2515.9534008334
24	9913204 6179 11539 253017 18.527692622347 398.597767503948 142 0.0056532962066554 13.09960706888 383.31012451243 1994.1847888339

