file 8828325 1613479578                                         
version 2
run Exponential-capacity-35-20210216-13:46:17-22068
attr configname Exponential-capacity
attr datetime 20210216-13:46:17
attr experiment Exponential-capacity
attr inifile aerocom.ini
attr iterationvars "$0=2, $1=10, $2=4, $3=4"
attr iterationvarsf 2,10,4,4-
attr measurement "$0=2, $1=10, $2=4, $3=4"
attr network Aerocom
attr processid 22068
attr repetition 2
attr replication #2
attr resultdir results
attr runnumber 35
attr seedset 2
param **.t 2s
param **.k 10ms
param **.X 4s
param **.m 4s
param **.tDistribution "\"exponential\""
param **.operationMode 0
param **.s "70 byte"
param **.dimPoolMax 10000
param **.dimPoolMin 8000
param **.nDL 10
param **.nA 1
param **.DLMaxCapacity 0
param **.trasmitting false

vector 0 Aerocom.aircraft[0].packetGenerator arrivalTime:vector ETV
attr "" ""
attr source computeArrivalTime
vector 1 Aerocom.aircraft[0].linkSelector responseTime:vector ETV
attr "" ""
attr source computeResponseTime
vector 2 Aerocom.aircraft[0].linkSelector waitingTime:vector ETV
attr "" ""
attr source computeWaitingTime
vector 3 Aerocom.aircraft[0].linkSelector queueLength:vector ETV
attr "" ""
attr source computeQueueLength
vector 4 Aerocom.aircraft[0].dataLink[3] actualCapacity:vector ETV
attr "" ""
attr source computeActualCapacity
vector 5 Aerocom.aircraft[0].linkSelector serviceTime:vector ETV
attr "" ""
attr source computeServiceTime
vector 6 Aerocom.aircraft[0].dataLink[0] tDistribution:vector ETV
attr "" ""
attr source computeTDistribution
vector 7 Aerocom.aircraft[0].dataLink[5] tDistribution:vector ETV
attr "" ""
attr source computeTDistribution
vector 8 Aerocom.aircraft[0].dataLink[2] tDistribution:vector ETV
attr "" ""
attr source computeTDistribution
vector 9 Aerocom.aircraft[0].dataLink[9] tDistribution:vector ETV
attr "" ""
attr source computeTDistribution
vector 10 Aerocom.aircraft[0].dataLink[8] tDistribution:vector ETV
attr "" ""
attr source computeTDistribution
vector 11 Aerocom.aircraft[0].dataLink[0] actualCapacity:vector ETV
attr "" ""
attr source computeActualCapacity
vector 12 Aerocom.aircraft[0].dataLink[1] actualCapacity:vector ETV
attr "" ""
attr source computeActualCapacity
vector 13 Aerocom.aircraft[0].dataLink[2] actualCapacity:vector ETV
attr "" ""
attr source computeActualCapacity
vector 14 Aerocom.aircraft[0].dataLink[4] actualCapacity:vector ETV
attr "" ""
attr source computeActualCapacity
vector 15 Aerocom.aircraft[0].dataLink[5] actualCapacity:vector ETV
attr "" ""
attr source computeActualCapacity
vector 16 Aerocom.aircraft[0].dataLink[6] actualCapacity:vector ETV
attr "" ""
attr source computeActualCapacity
vector 17 Aerocom.aircraft[0].dataLink[7] actualCapacity:vector ETV
attr "" ""
attr source computeActualCapacity
vector 18 Aerocom.aircraft[0].dataLink[8] actualCapacity:vector ETV
attr "" ""
attr source computeActualCapacity
vector 19 Aerocom.aircraft[0].dataLink[9] actualCapacity:vector ETV
attr "" ""
attr source computeActualCapacity
vector 20 Aerocom.aircraft[0].dataLink[1] tDistribution:vector ETV
attr "" ""
attr source computeTDistribution
vector 21 Aerocom.aircraft[0].dataLink[6] tDistribution:vector ETV
attr "" ""
attr source computeTDistribution
vector 22 Aerocom.aircraft[0].dataLink[3] tDistribution:vector ETV
attr "" ""
attr source computeTDistribution
vector 23 Aerocom.aircraft[0].dataLink[7] tDistribution:vector ETV
attr "" ""
attr source computeTDistribution
vector 24 Aerocom.aircraft[0].dataLink[4] tDistribution:vector ETV
attr "" ""
attr source computeTDistribution
0	3606 1342721 5088 193099 10.0000051843 338.006319040219 32768 3.43436e-007 0.111387644188 328.00732916894 6.5217265145529
2	1346327 1170392 5090 193105 10.00651214061 338.010168831611 32768 0 0.152627738269 177.9792119884 4.9823053966829
3	2516719 920449 5090 193105 10.00651214061 338.010168831611 32768 0 17 17783 68339
5	3437168 1473334 5090 193105 10.00651214061 338.010168831611 32768 0.0070021006301891 0.0087336244541485 245.63324525975 1.8461329438058
1	4910502 1342925 5090 193108 10.00651214061 338.014754423427 32768 0.00700210063 0.1611904294 423.61313283693 9.5543537612375
0	6253427 261823 193103 229423 338.007334353241 399.998945131452 6266 1.40559e-006 0.112081417393 61.998930705349 1.2430033764839
1	6515250 261786 193111 229420 338.017697332364 399.997490836738 6266 0.007015433955 0.078208208704 80.860597803212 1.6222064268919
2	6777036 229369 193108 229424 338.014754423427 399.998945131452 6266 0 0.069820957326 33.092739938666 0.74359916443681
3	7006405 180996 193108 229424 338.014754423427 399.998945131452 6266 0 8 3329 10125
4	7187401 168575 5090 229425 10.00651214061 400 5451 8107 9914 51037304 478959463182
5	7355976 286633 193108 229424 338.014754423427 399.998945131452 6266 0.0070154339547003 0.0086462450592885 47.764222935325 0.36531025744794
6	7642609 7149 5106 229372 10.03811018219 399.878397220879 168 0.0036094664976787 17.797918339339 389.98354667749 1937.7865044186
7	7649758 8483 5113 228812 10.07210134922 398.753699240805 200 0.011384425402896 10.683453574358 394.16238826281 1446.9060972634
8	7658241 8690 5176 229109 10.156399251049 399.320729344979 204 0.0064162123800635 8.0914965480683 392.4426179407 1374.3217599403
9	7666931 8478 5454 227757 10.819748911723 396.842962390983 199 0.0071136829881651 9.1989595010915 389.72029710402 1442.2024279013
10	7675409 8822 5480 229235 10.883653582273 399.55147264292 203 0.0018564521835412 10.292266746282 390.76148241442 1466.2212869651
11	7684231 142533 6027 229425 12 400 4459 8011 9857 41578485 388507225669
12	7826764 119192 6027 229425 12 400 3748 8058 9997 34674967 321554795069
13	7945956 94228 6027 229425 12 400 2966 8112 9901 27591642 257153543792
14	8040184 108348 6027 229425 12 400 3358 8064 9948 31105083 288876653731
15	8148532 121570 6027 229425 12 400 3788 8079 9978 35410172 332064655826
16	8270102 202570 6027 229425 12 400 6365 8015 9985 60186893 570386893701
17	8472672 90934 6027 229425 12 400 2865 8078 9880 26373442 243610503446
18	8563606 116816 6027 229425 12 400 3703 8036 9991 35013215 331639246939
19	8680422 106198 6027 229425 12 400 3311 8113 9976 30355209 279227461693
20	8786620 8774 6274 228674 12.301861684204 398.479601218204 202 0.023568902198615 11.397805116473 391.6546106686 1444.1664301061
21	8795394 7656 6892 228475 13.016051670226 398.145200931154 176 0.016686175152747 15.414290325557 387.40772536497 1777.326920931
22	8803050 9108 7254 229371 13.464600362358 399.878088104899 209 0.0043568394680401 11.699003843561 386.84841633071 1536.7232396436
23	8812158 7975 8055 228219 14.88013127667 397.630326923909 183 0.0014883428637058 11.688337911536 387.76154702311 1680.6119957314
24	8820133 8190 9573 229252 17.359049821192 399.590343441671 188 0.0023583069883165 11.802727022865 383.97632185082 1559.2537441288

