file 8808724 1613383344                                         
version 2
run Exponential-capacity-2-20210215-11:02:22-2396
attr configname Exponential-capacity
attr datetime 20210215-11:02:22
attr experiment Exponential-capacity
attr inifile aerocom.ini
attr iterationvars "$0=10, $1=3"
attr iterationvarsf 10,3-
attr measurement "$0=10, $1=3"
attr network Aerocom
attr processid 2396
attr repetition 0
attr replication #0
attr resultdir results
attr runnumber 2
attr seedset 0
param **.t 1s
param **.k 10ms
param **.X 0.4s
param **.m 3s
param **.tDistribution "\"exponential\""
param **.operationMode 0
param **.s "70 byte"
param **.dimPoolMax 10000
param **.dimPoolMin 8000
param **.nDL 1
param **.nA 1
param **.DLMaxCapacity 0
param **.trasmitting false

vector 0 Aerocom.aircraft[0].packetGenerator arrivalTime:vector ETV
attr "" ""
attr source computeArrivalTime
vector 1 Aerocom.aircraft[0].linkSelector waitingTime:vector ETV
attr "" ""
attr source computeWaitingTime
vector 2 Aerocom.aircraft[0].linkSelector queueLength:vector ETV
attr "" ""
attr source computeQueueLength
vector 3 Aerocom.aircraft[0].dataLink[0] actualCapacity:vector ETV
attr "" ""
attr source computeActualCapacity
vector 4 Aerocom.aircraft[0].linkSelector serviceTime:vector ETV
attr "" ""
attr source computeServiceTime
vector 5 Aerocom.aircraft[0].linkSelector responseTime:vector ETV
attr "" ""
attr source computeResponseTime
vector 6 Aerocom.aircraft[0].dataLink[0] tDistribution:vector ETV
attr "" ""
attr source computeTDistribution
3	1508 1016729 5565 190181 10.002616319138 333.203150073371 32768 8006 9990 294435243 2652541454009
0	1018237 1342216 5564 190732 10.002616319138 334.179259405181 32768 4.011e-008 0.107223249796 324.17673621716 6.4215077879631
1	2360453 1202293 5565 190750 10.002616319138 334.203675840224 32768 0 0.515042552304 1380.8712342312 387.7584975695
2	3562746 924080 5565 190750 10.002616319138 334.203675840224 32768 0 60 140274 4110486
4	4486826 1472694 5565 190750 10.002616319138 334.203675840224 32768 0.007007007007007 0.0087434424181864 255.94887424944 2.0044915486086
5	5959520 1342345 5570 190755 10.010605362735 334.21143121359 32768 0.007007007007 0.523521234475 1636.8201084805 411.32873266961
0	7301865 272531 190734 227073 334.179352536302 399.974672125632 6522 2.306095e-006 0.10350655095 65.828555667873 1.3356747668135
1	7574396 245168 190755 227078 334.21143121359 399.983836378915 6522 0 0.441618873465 304.11707893905 87.239318633938
2	7819564 189312 190755 227078 334.21143121359 399.983836378915 6522 0 50 29971 876949
3	8008876 211826 190187 227078 333.216653073468 399.983836378915 6652 8032 9899 59258053 529496273987
4	8220702 298384 190755 227078 334.21143121359 399.983836378915 6522 0.0070714213556925 0.0087151394422311 51.406096669756 0.40639883341545
5	8519086 272494 190760 227081 334.219184010134 399.99158660035 6522 0.007077856421 0.44992156591 355.52317560884 92.400865458274
6	8791580 17142 5669 225978 10.19835258653 398.023229865342 400 0.00012359181449871 5.0916301550693 389.91689248652 726.70497007989

