file 29528318 1609353433                                        
version 2
run Exponential-selection-capacity-exponential-interarrival-time-0-20201230-19:35:23-12776
attr configname Exponential-selection-capacity-exponential-interarrival-time
attr datetime 20201230-19:35:23
attr experiment Exponential-selection-capacity-exponential-interarrival-time
attr inifile aerocom.ini
attr iterationvars $0=0.5
attr iterationvarsf 0.5-
attr measurement $0=0.5
attr network Aerocom
attr processid 12776
attr repetition 0
attr replication #0
attr resultdir results
attr runnumber 0
attr seedset 0
param **.t 0.5s
param **.k 0.5s
param **.dataLink[*].s "70 byte"
param **.dataLink[*].X 0.5
param **.nDL 1
param **.dataLink[*].dimPoolMax 400
param **.dataLink[*].dimPoolMin 100
param **.tDistribution "\"exponential\""
param **.aircraft[*].m 1s
param **.aircraft[*].linkSelector.DLMaxCapacity 0
param **.aircraft[*].linkSelector.trasmitting false
param **.operationMode 0

vector 0 Aerocom.aircraft[0].dataLink[0] queueLength:vector ETV
attr "" ""
attr source computeQueueLength
vector 1 Aerocom.aircraft[0].dataLink[0] waitingTime:vector ETV
attr "" ""
attr source computeWaitingTime
vector 2 Aerocom.aircraft[0].dataLink[0] responseTime:vector ETV
attr "" ""
attr source computeResponseTime
0	1254 694347 150892 319438 10000.335380543637 21228.908167990245 22478 0 0 0 0
1	695601 771560 150892 319438 10000.335380543637 21228.908167990245 22478 -3e-012 6e-012 5.3760000000001e-009 3.4763999999994e-020
2	1467161 771560 150892 319438 10000.335380543637 21228.908167990245 22478 -3e-012 6e-012 5.3760000000001e-009 3.4763999999994e-020
0	2238721 1012099 319446 564131 21229.39551759667 37424.023691900491 32768 0 0 0 0
1	3250820 1154633 319446 564131 21229.39551759667 37424.023691900491 32768 -6e-012 1.2e-011 1.5675e-008 1.54701e-019
2	4405453 1154633 319446 564131 21229.39551759667 37424.023691900491 32768 -6e-012 1.2e-011 1.5675e-008 1.54701e-019
0	5560086 1012067 564136 809641 37424.106850986769 53814.055080685069 32768 0 0 0 0
1	6572153 1170777 564136 809641 37424.106850986769 53814.055080685069 32768 -4e-012 1.2e-011 2.0521e-008 3.4197099999998e-019
2	7742930 1170777 564136 809641 37424.106850986769 53814.055080685069 32768 -4e-012 1.2e-011 2.0521e-008 3.4197099999998e-019
0	8913707 1019630 809646 1055305 53814.311022330329 70141.792678133656 32768 0 0 0 0
1	9933337 1182653 809646 1055305 53814.311022330329 70141.792678133656 32768 -1.2e-011 1.2e-011 3.5482e-008 6.0708999999998e-019
2	11115990 1182653 809646 1055305 53814.311022330329 70141.792678133656 32768 -1.2e-011 1.2e-011 3.5482e-008 6.0708999999998e-019
0	12298643 1044988 1055314 1301462 70142.516072718249 86599.161759572973 32768 0 0 0 0
1	13343631 1216427 1055314 1301462 70142.516072718249 86599.161759572973 32768 -1.2e-011 2.4e-011 3.4294e-008 1.191072e-018
2	14560058 1216427 1055314 1301462 70142.516072718249 86599.161759572973 32768 -1.2e-011 2.4e-011 3.4294e-008 1.191072e-018
0	15776485 1051148 1301475 1547965 86600.701857180078 103120.05628617844 32768 0 0 0 0
1	16827633 1223758 1301475 1547965 86600.701857180078 103120.05628617844 32768 -8e-012 2.4e-011 4.1873e-008 1.387923e-018
2	18051391 1223758 1301475 1547965 86600.701857180078 103120.05628617844 32768 -8e-012 2.4e-011 4.1873e-008 1.387923e-018
0	19275149 1077849 1547972 1793668 103120.564970665966 119517.292073066706 32768 0 0 0 0
1	20352998 1251389 1547972 1793668 103120.564970665966 119517.292073066706 32768 -8e-012 2.4e-011 5.5076e-008 1.592126e-018
2	21604387 1251389 1547972 1793668 103120.564970665966 119517.292073066706 32768 -8e-012 2.4e-011 5.5076e-008 1.592126e-018
0	22855776 1077666 1793674 2040124 119517.630273193526 136010.323673670811 32768 0 0 0 0
1	23933442 1258289 1793674 2040124 119517.630273193526 136010.323673670811 32768 -2.4e-011 2.4e-011 7.6364999999999e-008 2.5667789999999e-018
2	25191731 1258289 1793674 2040124 119517.630273193526 136010.323673670811 32768 -2.4e-011 2.4e-011 7.6364999999999e-008 2.5667789999999e-018
0	26450020 915182 2040129 2249503 136010.453770827629 149999.848571743832 27825 0 0 0 0
1	27365202 1081557 2040129 2249503 136010.453770827629 149999.848571743832 27825 -2.4e-011 4.8e-011 7.2250999999999e-008 3.9215709999999e-018
2	28446759 1081557 2040129 2249503 136010.453770827629 149999.848571743832 27825 -2.4e-011 4.8e-011 7.2250999999999e-008 3.9215709999999e-018

