version 2
run Exponential-capacity-16-20210216-20:01:17-7340
attr configname Exponential-capacity
attr datetime 20210216-20:01:17
attr experiment Exponential-capacity
attr inifile aerocom.ini
attr iterationvars "$0=60, $1=0.5"
attr iterationvarsf 60,0.5-
attr measurement "$0=60, $1=0.5"
attr network Aerocom
attr processid 7340
attr repetition 0
attr replication #0
attr resultdir results
attr runnumber 16
attr seedset 0
param **.t 1s
param **.k 60ms
param **.X 50ms
param **.m 0.5s
param **.tDistribution "\"exponential\""
param **.operationMode 0
param **.s "70 byte"
param **.dimPoolMax 10000
param **.dimPoolMin 8000
param **.nDL 10
param **.nA 1
param **.DLMaxCapacity 0
param **.trasmitting false

vector 0 Aerocom.aircraft[0].dataLink[0] actualCapacity:vector ETV
attr "" ""
attr source computeActualCapacity
vector 1 Aerocom.aircraft[0].dataLink[1] actualCapacity:vector ETV
attr "" ""
attr source computeActualCapacity
vector 2 Aerocom.aircraft[0].dataLink[2] actualCapacity:vector ETV
attr "" ""
attr source computeActualCapacity
vector 3 Aerocom.aircraft[0].dataLink[3] actualCapacity:vector ETV
attr "" ""
attr source computeActualCapacity
vector 4 Aerocom.aircraft[0].dataLink[4] actualCapacity:vector ETV
attr "" ""
attr source computeActualCapacity
vector 5 Aerocom.aircraft[0].dataLink[5] actualCapacity:vector ETV
attr "" ""
attr source computeActualCapacity
vector 6 Aerocom.aircraft[0].dataLink[6] actualCapacity:vector ETV
attr "" ""
attr source computeActualCapacity
vector 7 Aerocom.aircraft[0].dataLink[7] actualCapacity:vector ETV
attr "" ""
attr source computeActualCapacity
vector 8 Aerocom.aircraft[0].dataLink[8] actualCapacity:vector ETV
attr "" ""
attr source computeActualCapacity
vector 9 Aerocom.aircraft[0].dataLink[9] actualCapacity:vector ETV
attr "" ""
attr source computeActualCapacity
vector 10 Aerocom.aircraft[0].packetGenerator arrivalTime:vector ETV
attr "" ""
attr source computeArrivalTime
vector 11 Aerocom.aircraft[0].linkSelector waitingTime:vector ETV
attr "" ""
attr source computeWaitingTime
vector 12 Aerocom.aircraft[0].linkSelector queueLength:vector ETV
attr "" ""
attr source computeQueueLength
vector 13 Aerocom.aircraft[0].linkSelector serviceTime:vector ETV
attr "" ""
attr source computeServiceTime
vector 14 Aerocom.aircraft[0].linkSelector responseTime:vector ETV
attr "" ""
attr source computeResponseTime
vector 15 Aerocom.aircraft[0].dataLink[4] tDistribution:vector ETV
attr "" ""
attr source computeTDistribution
vector 16 Aerocom.aircraft[0].dataLink[5] tDistribution:vector ETV
attr "" ""
attr source computeTDistribution
vector 17 Aerocom.aircraft[0].dataLink[0] tDistribution:vector ETV
attr "" ""
attr source computeTDistribution
vector 18 Aerocom.aircraft[0].dataLink[3] tDistribution:vector ETV
attr "" ""
attr source computeTDistribution
vector 19 Aerocom.aircraft[0].dataLink[8] tDistribution:vector ETV
attr "" ""
attr source computeTDistribution
vector 20 Aerocom.aircraft[0].dataLink[9] tDistribution:vector ETV
attr "" ""
attr source computeTDistribution
vector 21 Aerocom.aircraft[0].dataLink[6] tDistribution:vector ETV
attr "" ""
attr source computeTDistribution
vector 22 Aerocom.aircraft[0].dataLink[1] tDistribution:vector ETV
attr "" ""
attr source computeTDistribution
vector 23 Aerocom.aircraft[0].dataLink[7] tDistribution:vector ETV
attr "" ""
attr source computeTDistribution
vector 24 Aerocom.aircraft[0].dataLink[2] tDistribution:vector ETV
attr "" ""
attr source computeTDistribution
0	962	10	8687
0	1009	10.5	8843
0	1062	11	8947
0	1113	11.5	9052
0	1186	12	9044
0	1238	12.5	8993
0	1290	13	8943
0	1323	13.5	8892
0	1359	14	8842
0	1406	14.5	8791
0	1438	15	8891
0	1491	15.5	8248
0	1554	16	8506
0	1642	16.5	8824
0	1686	17	9057
0	1725	17.5	9290
0	1774	18	9523
0	1791	18.5	9268
0	1847	19	9369
0	1850	19.05	9383
0	1855	19.128848205022	9404
0	1860	19.248967394754	9436
0	1867	19.347770540834	9463
0	1872	19.379570713522	9472
0	1877	19.430083571226	9485
0	1882	19.439131031838	9488
0	1887	19.470503233643	9496
0	1892	19.477874758496	9498
0	1895	19.485244731122	9500
0	1901	19.5	9504
0	1941	20	9639
0	1945	20.089234983657	9663
0	1950	20.116529694345	9666
0	1957	20.339127329859	9688
0	1961	20.346352763385	9688
0	1970	20.456328030068	9699
0	1975	20.472067788618	9701
0	1978	20.479283539572	9702
0	1985	20.5	9704
0	1989	20.559642427452	9710
0	1994	20.586417596683	9712
0	2000	20.759494301809	9729
0	2006	20.83805220365	9737
0	2012	20.921229684771	9746
0	2017	20.932527383284	9747
0	2022	20.957404135844	9749
0	2027	21	9753
0	2098	21.5	9803
0	2101	21.578066452903	9811
0	2108	21.735999584656	9827
0	2113	21.792227907719	9832
0	2118	21.86535571592	9839
0	2124	21.919833557559	9845
0	2127	21.926943765787	9846
0	2135	22	9853
0	2140	22.05	9858
0	2141	22.057100831812	9858
0	2148	22.066014266079	9859
0	2155	22.124303195565	9853
0	2158	22.131407630762	9840
0	2165	22.179059588114	9756
0	2170	22.251117842507	9628
0	2175	22.267417926728	9600
0	2179	22.5	9189
0	2217	23	8558
0	2250	23.5	8871
0	2311	24	8981
0	2371	24.5	8502
0	2415	25	8289
0	2478	25.5	8377
0	2508	26	8466
0	2580	26.5	8554
0	2624	27	8643
0	2684	27.5	8731
0	2732	28	8513
0	2778	28.5	8282
0	2835	29	8134
0	2887	29.5	8104
0	2955	30	8088
0	3023	30.5	8857
0	3079	31	8791
0	3151	31.5	8725
0	3186	32	8659
0	3239	32.5	8545
0	3274	33	8614
0	3308	33.5	9861
0	3311	33.552400783233	9861
0	3316	33.593068903356	9861
0	3323	33.763267314959	9860
0	3328	33.838701534693	9860
0	3335	33.935029060477	9859
0	3341	33.974979609675	9859
0	3345	34	9859
0	3348	34.05	9859
0	3353	34.108680256059	9859
0	3360	34.233105943845	9858
0	3366	34.274472016116	9858
0	3371	34.295277214343	9858
0	3376	34.406963112922	9857
0	3380	34.5	9857
0	3385	34.55	9857
0	3386	34.557101552196	9857
0	3394	34.591055703399	9857
0	3400	34.680110252358	9856
0	3403	34.687212525085	9856
0	3411	34.900489206894	9855
0	3416	34.926081355616	9855
0	3420	35	9855
0	3424	35.05	9855
0	3427	35.057102993404	9855
0	3435	35.145630471351	9854
0	3442	35.386107450643	9853
0	3448	35.5	9853
0	3451	35.638219016218	9852
0	3456	35.67726685676	9852
0	3462	35.761307398578	9852
0	3469	35.802584007286	9852
0	3472	35.809689163599	9852
0	3480	35.864038611842	9851
0	3485	35.882878485726	9851
0	3490	35.910465964793	9851
0	3495	35.942173998491	9851
0	3501	35.95100750073	9851
0	3506	35.984547960929	9851
0	3510	36	9851
0	3513	36.088145963714	9850
0	3518	36.10936175823	9850
0	3523	36.121993755522	9850
0	3529	36.15275663408	9850
0	3534	36.19571935316	9850
0	3539	36.203434167397	9850
0	3545	36.218674850098	9850
0	3552	36.455532846152	9849
0	3555	36.462640166692	9849
0	3562	36.49297567724	9849
0	3563	36.5	9849
0	3571	36.611889097707	9734
0	3576	36.662417275877	9648
0	3588	36.878953736176	9281
0	3593	36.904213334059	9257
0	3602	37	9165
0	3636	37.5	8685
0	3698	38	8420
0	3763	38.5	8748
0	3812	39	8765
0	3887	39.5	8739
0	3945	40	8713
0	4000	40.5	8210
0	4055	41	8674
0	4110	41.5	8840
0	4169	42	9158
0	4226	42.5	9658
0	4231	42.55	9624
0	4232	42.557273482959	9619
0	4239	42.586921820352	9598
0	4244	42.649819166649	9555
0	4249	42.669329418878	9541
0	4254	42.715819961648	9510
0	4259	42.724097155564	9504
0	4265	42.747740609881	9488
0	4270	42.777662149853	9467
0	4275	42.787202870861	9460
0	4283	42.975172640234	9331
0	4288	42.985624563229	9324
0	4293	42.998055674164	9316
0	4294	43	9314
0	4346	43.5	8971
0	4394	44	8627
0	4439	44.5	8916
0	4494	45	9329
0	4533	45.5	9742
0	4577	46	9219
0	4605	46.5	9386
0	4650	47	9418
0	4692	47.5	9450
0	4771	48	9482
0	4819	48.5	9514
0	4824	48.633685761812	9523
0	4827	48.641036386615	9524
0	4834	48.762083663247	9531
0	4837	48.769428118184	9532
0	4844	48.804202166887	9534
0	4847	48.811544310793	9534
0	4854	48.83139167792	9536
0	4857	48.838732281947	9536
0	4864	48.852718222387	9537
0	4869	48.868961685831	9538
0	4875	48.926149038127	9542
0	4879	49	9547
0	4970	49.5	9230
0	5014	50	8751
0	5056	50.5	8993
0	5091	51	9235
0	5147	51.5	8977
0	5191	52	8702
0	5246	52.5	8428
0	5278	53	8154
0	5329	53.5	8065
0	5349	54	8068
0	5385	54.5	8072
0	5428	55	8076
0	5477	55.5	8079
0	5541	56	8083
0	5597	56.5	8086
0	5639	57	8984
0	5692	57.5	9703
0	5696	57.65807141759	9210
0	5701	57.666555004354	9183
0	5711	57.977662769736	8224
0	5716	58	8225
0	5787	58.5	8254
0	5835	59	8283
0	5875	59.5	8311
0	5908	60	8340
0	5959	60.5	8369
0	6020	61	8318
0	6045	61.5	8294
0	6108	62	8321
0	6155	62.5	8348
0	6203	63	8375
0	6272	63.5	8402
0	6345	64	8429
0	6397	64.5	8978
0	6444	65	9513
0	6451	65.05	9530
0	6453	65.057345225603	9533
0	6456	65.064688139691	9535
0	6464	65.080793553291	9537
0	6469	65.117196297846	9507
0	6475	65.172232605661	9462
0	6480	65.386942709211	9286
0	6485	65.440254431951	9242
0	6489	65.5	9193
0	6517	66	8782
0	6569	66.5	8797
0	6602	67	8937
0	6662	67.5	9076
0	6693	68	9215
0	6732	68.5	9138
0	6779	69	8724
0	6809	69.5	8978
0	6871	70	9420
0	6876	70.05	9472
0	6877	70.057390202703	9480
0	6887	70.094584647319	9681
0	6895	70.225038621747	9696
0	6900	70.279707370231	9684
0	6906	70.315185537365	9676
0	6912	70.331497487679	9673
0	6918	70.474574408273	9641
0	6922	70.5	9636
0	6929	70.55	9625
0	6930	70.557272727273	9623
0	6933	70.564546966076	9621
0	6940	70.611615433951	9611
0	6945	70.636150485706	9606
0	6950	70.670967860985	9598
0	6956	70.72990215205	9585
0	6959	70.737205229776	9583
0	6966	70.761576119753	9578
0	6973	70.833111254278	9562
0	6980	70.978254337928	9530
0	6985	70.99530752254	9527
0	6986	71	9526
0	6993	71.121774344044	9499
0	6996	71.129143540802	9497
0	7003	71.158365805535	9491
0	7006	71.165741213817	9489
0	7015	71.205815177737	9480
0	7018	71.213199143982	9479
0	7027	71.248220072743	9471
0	7036	71.391204169134	9440
0	7041	71.403431292067	9437
0	7048	71.484228929379	9419
0	7053	71.5	9416
0	7106	72	8706
0	7142	72.5	8913
0	7179	73	8935
0	7247	73.5	9106
0	7295	74	9276
0	7347	74.5	9447
0	7406	75	9535
0	7409	75.303521344663	9587
0	7417	75.5	9680
0	7421	75.554047960917	9725
0	7426	75.580069929141	9747
0	7432	75.615737890143	9777
0	7441	75.692418017893	9842
0	7449	75.858903295188	9713
0	7454	75.91980083269	9606
0	7460	75.986692843934	9489
0	7464	76	9466
0	7470	76.087308927913	9314
0	7475	76.105920695309	9281
0	7481	76.330269603991	8889
0	7486	76.380085242797	8801
0	7494	76.5	8889
0	7546	77	9558
0	7608	77.5	9619
0	7613	77.55436467805	9626
0	7619	77.588437939637	9630
0	7624	77.595925525173	9631
0	7629	77.619518562392	9634
0	7632	77.626784495545	9635
0	7640	77.678847290221	9641
0	7645	77.732298518334	9648
0	7653	77.897671302983	9668
0	7658	77.979754544266	9678
0	7662	78	9681
0	7666	78.1493459825	9699
0	7671	78.262437859352	9713
0	7674	78.269644695551	9714
0	7685	78.43044918895	9734
0	7690	78.484860975388	9740
0	7694	78.5	9742
0	7700	78.730857032948	9771
0	7708	78.864284001893	9787
0	7714	78.894913711655	9791
0	7719	78.986015860559	9802
0	7723	79	9804
0	7731	79.05	9810
0	7732	79.057135575943	9811
0	7735	79.064270424582	9812
0	7745	79.125475827327	9820
0	7751	79.194774299341	9848
0	7756	79.207348168485	9853
0	7762	79.271508031987	9879
0	7769	79.408923465181	9934
0	7774	79.5	9868
0	7783	79.55	9589
0	7784	79.557300031286	9548
0	7787	79.564631409585	9507
0	7790	79.571994405272	9466
0	7797	79.581454829789	9413
0	7802	79.639380977771	9090
0	7807	79.691585772393	8798
0	7812	79.720504524967	8637
0	7817	79.737093786013	8544
0	7820	79.745286669908	8498
0	7827	79.754296075457	8448
0	7835	80	8499
0	7894	80.5	9333
0	7919	81	9345
0	7995	81.5	8957
0	8059	82	8569
0	8100	82.5	8182
0	8162	83	8712
0	8217	83.5	9599
0	8246	84	9824
0	8254	84.05	9812
0	8255	84.057134121484	9811
0	8258	84.064268970123	9809
0	8265	84.073592426656	9807
0	8270	84.239678430117	9768
0	8275	84.270753836821	9761
0	8282	84.461399674109	9716
0	8287	84.5	9707
0	8290	84.55	9695
0	8295	84.601435234892	9683
0	8300	84.628692489516	9677
0	8306	84.91894773646	9608
0	8311	84.931633006959	9606
0	8316	84.957964257582	9599
0	8319	84.965256683876	9598
0	8327	85	9589
0	8369	85.5	9472
0	8498	86	9698
0	8502	86.063571669189	9690
0	8507	86.152660513632	9679
0	8514	86.282404810196	9664
0	8519	86.318978361047	9660
0	8526	86.455521560031	9643
0	8531	86.465510971666	9642
0	8536	86.489736146093	9639
0	8540	86.5	9638
0	8612	87	9579
0	8658	87.5	9519
0	8686	88	9765
0	8737	88.5	8541
0	8813	89	9089
0	8879	89.5	9371
0	8924	90	8459
0	8959	90.5	8484
0	9003	91	8509
0	9061	91.5	8534
0	9105	92	8559
0	9145	92.5	8584
0	9172	93	8609
0	9205	93.5	9218
0	9255	94	9895
0	9260	94.05	9894
0	9265	94.094625332896	9892
0	9270	94.115520250947	9892
0	9275	94.155090418951	9890
0	9280	94.191299146497	9889
0	9285	94.204241136974	9889
0	9291	94.24510925366	9887
0	9296	94.258916799749	9887
0	9301	94.349267868334	9884
0	9306	94.395271391262	9883
0	9313	94.5	9879
0	9318	94.55	9878
0	9321	94.557086454748	9877
0	9324	94.564173626966	9877
0	9333	94.771684195003	9871
0	9338	94.805086354849	9869
0	9343	94.826557515189	9869
0	9350	94.937592653984	9865
0	9353	94.944688447192	9865
0	9360	95	9863
0	9364	95.05	9439
0	9370	95.122634498326	8529
0	9373	95.130841791092	8612
0	9383	95.351476700577	8704
0	9388	95.361680125905	8704
0	9394	95.453100342725	8701
0	9399	95.474861810897	8700
0	9404	95.491886817049	8699
0	9409	95.499933718992	8699
0	9412	95.5	8699
0	9478	96	8682
0	9512	96.5	8665
0	9583	97	8648
0	9620	97.5	8631
0	9661	98	8667
0	9716	98.5	8714
0	9788	99	8762
0	9867	99.5	8810
0	9924	100	8857
0	9974	100.5	8905
0	10038	101	8952
0	10088	101.5	9025
0	10144	102	9251
0	10174	102.5	9462
0	10224	103	9560
0	10283	103.5	9209
0	10345	104	8478
0	10402	104.5	8502
0	10448	105	8426
0	10502	105.5	8350
0	10556	106	8274
0	10605	106.5	9368
0	10630	107	9323
0	10679	107.5	9279
0	10729	108	9234
0	10776	108.5	9190
0	10834	109	8752
0	10885	109.5	8142
0	10936	110	8340
0	10980	110.5	8536
0	11011	111	8722
0	11071	111.5	8894
0	11105	112	8811
0	11166	112.5	8984
0	11212	113	9743
0	11218	113.269119261794	8415
0	11223	113.293171834613	8435
0	11228	113.303957679903	8444
0	11234	113.404839543618	8528
0	11240	113.447997349954	8564
0	11245	113.457073516657	8572
0	11249	113.5	8608
0	11293	114	9024
0	11341	114.5	9374
0	11371	115	9397
0	11425	115.5	9419
0	11464	116	9331
0	11543	116.5	9081
0	11592	117	8906
0	11625	117.5	8730
0	11649	118	8555
0	11687	118.5	8379
0	11740	119	8204
0	11780	119.5	8370
0	11827	120	9829
0	11837	120.054606947356	9818
0	11842	120.061736709018	9816
0	11845	120.068867923362	9815
0	11850	120.075999864269	9813
0	11853	120.083133258746	9812
0	11856	120.09026738023	9810
0	11871	120.188618689184	9791
0	11877	120.231036779027	9782
0	11884	120.302386863497	9768
0	11893	120.382489448557	9752
0	11898	120.398203423992	9748
0	11901	120.405384384189	9747
0	11906	120.412566081121	9745
0	11914	120.455319519243	9737
0	11918	120.462508591853	9735
0	11926	120.5	9728
0	11931	120.625050564332	9703
0	11936	120.664252372365	9695
0	11941	120.679828887146	9692
0	11946	120.733028015222	9681
0	11951	120.80086041703	9667
0	11958	120.937801450929	9640
0	11964	120.991720328211	9629
0	11968	121	9627
0	12011	121.5	9526
0	12085	122	9306
0	12157	122.5	8877
0	12188	123	8449
0	12236	123.5	8395
0	12273	124	8918
0	12308	124.5	9281
0	12359	125	9585
0	12407	125.5	9666
0	12478	126	9748
0	12482	126.066379709497	9759
0	12487	126.087796447674	9763
0	12490	126.09496637495	9764
0	12497	126.107890013302	9766
0	12502	126.1416293588	9771
0	12507	126.154982697019	9774
0	12514	126.218337350978	9784
0	12520	126.259048523887	9791
0	12526	126.374188369367	9809
0	12532	126.39958819373	9814
0	12538	126.438286743991	9820
0	12544	126.462369200504	9824
0	12549	126.5	9830
0	12558	126.671195085726	9854
0	12561	126.678298799954	9855
0	12569	126.69382987271	9808
0	12574	126.700966903705	9785
0	12577	126.708120710552	9761
0	12584	126.841075176911	9321
0	12590	126.880745357958	9190
0	12596	126.912786758401	9112
0	12603	126.930538790832	9103
0	12608	126.998353241168	9070
0	12609	127	9069
0	12665	127.5	8823
0	12738	128	8652
0	12780	128.5	8541
0	12828	129	8429
0	12881	129.5	9409
0	12927	130	8734
0	12961	130.5	8648
0	12988	131	8561
0	13034	131.5	8475
0	13079	132	8389
0	13125	132.5	8437
0	13172	133	8578
0	13210	133.5	8752
0	13246	134	9180
0	13295	134.5	9058
0	13363	135	8937
0	13411	135.5	8999
0	13435	136	9086
0	13471	136.5	8692
0	13495	137	8299
0	13553	137.5	8986
0	13601	138	8922
0	13655	138.5	9087
0	13741	139	9252
0	13805	139.5	9417
0	13838	140	9583
0	13868	140.5	8168
0	13915	141	8273
0	13990	141.5	8378
0	14049	142	8483
0	14071	142.5	8587
0	14119	143	8914
0	14156	143.5	9492
0	14196	144	9238
0	14232	144.5	8763
0	14272	145	8690
0	14329	145.5	8616
0	14383	146	8542
0	14435	146.5	8469
0	14489	147	8395
0	14550	147.5	8367
0	14587	148	8624
0	14609	148.5	8814
0	14644	149	8914
0	14679	149.5	9153
0	14757	150	9391
0	14840	150.5	9630
0	14844	150.55	9653
0	14850	150.745213412389	9747
0	14855	150.801638692657	9773
0	14860	150.811476730963	9778
0	14865	150.82493667811	9785
0	14871	150.923164479698	9831
0	14876	150.947899442136	9843
0	14880	151	9868
0	14885	151.05	9892
0	14886	151.057076425394	9895
0	14893	151.073047193028	9903
0	14899	151.309010737107	9761
0	14904	151.352067054496	9680
0	14909	151.368842253797	9649
0	14914	151.5	9445
0	14917	151.582869741604	9405
0	14922	151.598575444184	9397
0	14927	151.625714205624	9385
0	14930	151.633172916333	9381
0	14939	151.722311798195	9338
0	14948	151.900215960038	9253
0	14954	151.948836488109	9230
0	14959	151.987612665302	9212
0	14963	152	9206
0	14981	152.5	8967
0	15030	153	9099
0	15077	153.5	9508
0	15085	153.72596928864	9518
0	15091	153.762926592348	9480
0	15096	153.804517991843	9437
0	15101	153.855662007165	9384
0	15107	154	9235
0	15132	154.5	8720
0	15154	155	8450
0	15204	155.5	9858
0	15208	155.604819385578	9826
0	15211	155.611943342427	9824
0	15218	155.667943410508	9807
0	15225	155.756157402205	9780
0	15228	155.763314866418	9778
0	15235	155.804180964714	9766
0	15240	155.822321184503	9760
0	15248	155.914880814687	9732
0	15253	155.926636575323	9728
0	15257	156	9706
0	15260	156.05	9691
0	15265	156.067405077324	9686
0	15270	156.162071947174	9657
0	15276	156.172133740091	9654
0	15281	156.193590076603	9647
0	15286	156.228470058369	9637
0	15292	156.325276392736	9607
0	15298	156.373513120315	9592
0	15303	156.421269956453	9578
0	15308	156.436786152637	9573
0	15315	156.475256586393	9562
0	15320	156.490717315855	9557
0	15324	156.5	9554
0	15327	156.558176371591	9536
0	15332	156.576808510451	9531
0	15336	156.584152965388	9528
0	15348	156.714518986772	8568
0	15352	156.722688921413	8507
0	15359	156.77088842893	8557
0	15364	156.791622133133	8579
0	15367	156.799781592277	8588
0	15374	157	8798
0	15443	157.5	9114
0	15491	158	9248
0	15531	158.5	8975
0	15558	159	8444
0	15592	159.5	8775
0	15635	160	9105
0	15691	160.5	9435
0	15745	161	9766
0	15772	161.5	9784
0	15816	162	9335
0	15850	162.5	8694
0	15898	163	9366
0	15936	163.5	9116
0	16006	164	8678
0	16062	164.5	8374
0	16120	165	8499
0	16177	165.5	8624
0	16264	166	8750
0	16304	166.5	8875
0	16353	167	8694
0	16384	167.5	8404
0	16425	168	8113
0	16467	168.5	8009
0	16524	169	8013
0	16590	169.5	8017
0	16672	170	8022
0	16706	170.5	8212
0	16745	171	9655
0	16749	171.094813606951	9475
0	16754	171.104996760744	9456
0	16759	171.235969343592	9208
0	16764	171.29921069582	9088
0	16770	171.386118744573	8923
0	16775	171.410784898079	8876
0	16780	171.433361761286	8834
0	16785	171.467113688444	8770
0	16790	171.494412458533	8718
0	16791	171.5	8707
0	16830	172	8390
0	16877	172.5	9239
0	16929	173	9100
0	16972	173.5	8961
0	17011	174	8775
0	17068	174.5	8555
0	17098	175	8551
0	17141	175.5	8758
0	17201	176	8796
0	17237	176.5	8490
0	17288	177	8184
0	17353	177.5	8953
0	17404	178	8844
0	17453	178.5	8779
0	17498	179	8794
0	17530	179.5	9075
0	17576	180	8868
0	17607	180.5	9131
0	17675	181	8246
0	17758	181.5	8680
0	17787	182	8667
0	17817	182.5	8655
0	17858	183	8642
0	17897	183.5	8878
0	17940	184	9120
0	18011	184.5	9327
0	18048	185	9534
0	18078	185.5	9544
0	18126	186	9489
0	18185	186.5	9435
0	18214	187	9380
0	18221	187.124753234097	9366
0	18224	187.132227075652	9365
0	18231	187.179193218495	9360
0	18239	187.220957773947	9355
0	18248	187.302153286292	9346
0	18253	187.309804571783	9346
0	18261	187.398127228527	9336
0	18266	187.417342897037	9334
0	18274	187.5	9325
0	18277	187.560663104751	9318
0	18284	187.712618926614	9301
0	18289	187.722394755976	9300
0	18295	187.811264751075	9291
0	18300	187.860289960318	9285
0	18305	187.949009493352	9275
0	18312	187.982566187823	9272
0	18316	188	9270
0	18353	188.5	9215
0	18393	189	9160
0	18430	189.5	9105
0	18478	190	9197
0	18546	190.5	9324
0	18592	191	9451
0	18597	191.29941608419	9528
0	18602	191.324527572904	9534
0	18607	191.437287397846	9563
0	18611	191.5	9579
0	18614	191.55	9591
0	18619	191.581293401573	9599
0	18625	191.617862724875	9609
0	18630	191.626046205816	9611
0	18635	191.642017762443	9615
0	18641	191.75221347311	9643
0	18647	191.838474976771	9665
0	18650	191.84571760481	9667
0	18657	192	9706
0	18660	192.072986874499	9724
0	18665	192.0988588894	9731
0	18671	192.159107751429	9746
0	18677	192.310455280906	9766
0	18682	192.319117168162	9761
0	18686	192.5	9666
0	18772	193	9402
0	18814	193.5	8110
0	18890	194	8283
0	18934	194.5	8503
0	18978	195	8792
0	19027	195.5	9082
0	19057	196	9371
0	19127	196.5	9032
0	19172	197	8944
0	19210	197.5	9029
0	19250	198	8903
0	19299	198.5	8339
0	19359	199	9380
0	19437	199.5	9616
0	19473	200	8266
0	19500	200.5	8753
0	19542	201	9240
0	19611	201.5	9727
0	19614	201.552022665564	9778
0	19617	201.55918159377	9785
0	19626	201.654419400607	9767
0	19634	201.835500842099	9710
0	19639	201.847797913781	9706
0	19642	201.855009947575	9703
0	19649	201.882116335237	9695
0	19654	201.928570533621	9680
0	19659	201.972606807542	9666
0	19663	202	9657
0	19667	202.147330065533	9610
0	19672	202.18339773945	9599
0	19678	202.220564104515	9587
0	19684	202.317079379962	9556
0	19687	202.324404620648	9554
0	19694	202.5	9497
0	19732	203	9372
0	19775	203.5	8328
0	19831	204	8553
0	19875	204.5	9117
0	19920	205	9634
0	19924	205.104026573518	9160
0	19929	205.137628552516	9006
0	19932	205.145401148563	8971
0	19939	205.192232963414	8757
0	19945	205.232041511098	8575
0	19950	205.26440879935	8428
0	19956	205.355471901519	8163
0	19962	205.386168428585	8185
0	19969	205.448900632574	8230
0	19973	205.5	8267
0	20016	206	8628
0	20053	206.5	8989
0	20087	207	9158
0	20154	207.5	9113
0	20222	208	9243
0	20272	208.5	9192
0	20347	209	9200
0	20391	209.5	9207
0	20457	210	9214
0	20488	210.5	9221
0	20495	210.551907419588	9222
0	20500	210.575077717493	9222
0	20503	210.582668261843	9223
0	20510	210.60636383241	9223
0	20519	210.718253700757	9225
0	20522	210.725841776638	9225
0	20529	210.735804288376	9225
0	20535	210.767715139888	9225
0	20541	210.781415381501	9225
0	20551	210.892758077261	9227
0	20556	210.91044164785	9227
0	20562	210.954869668258	9228
0	20569	211	9229
0	20618	211.5	9296
0	20660	212	9384
0	20729	212.5	9479
0	20810	213	9725
0	20849	213.5	9899
0	20860	213.55	9868
0	20861	213.557093635995	9864
0	20865	213.564190148566	9832
0	20868	213.571309758005	9775
0	20876	213.633034292314	9275
0	20882	213.651894847352	9156
0	20888	213.784749714337	8973
0	20895	213.871368952016	8853
0	20901	213.96980118994	8716
0	20904	213.977832396916	8705
0	20909	213.985873752459	8694
0	20915	214	8675
0	21000	214.5	9022
0	21044	215	9169
0	21107	215.5	9315
0	21137	216	9447
0	21175	216.5	9484
0	21251	217	9522
0	21258	217.05	9525
0	21259	217.057349081365	9526
0	21262	217.064697391254	9526
0	21270	217.160341315886	9534
0	21275	217.276403120124	9542
0	21281	217.365003265862	9549
0	21287	217.425136870932	9553
0	21292	217.472242290488	9557
0	21296	217.5	9559
0	21299	217.619383359672	9568
0	21304	217.852111829411	9585
0	21309	217.879480234512	9587
0	21312	217.8867817887	9588
0	21318	218	9596
0	21364	218.5	9634
0	21371	218.62387480587	9643
0	21378	218.717239411508	9650
0	21381	218.724493297518	9651
0	21388	218.732768605178	9651
0	21396	218.823567963557	9658
0	21402	218.933529112934	9666
0	21408	218.996878103052	9671
0	21409	219	9671
0	21455	219.5	9709
0	21463	219.696305094763	9723
0	21470	219.837526630398	9734
0	21476	219.938439056925	9741
0	21481	220	9746
0	21526	220.5	9784
0	21532	220.55604488474	9788
0	21537	220.563687778928	9788
0	21545	220.623381330994	9793
0	21550	220.644237177416	9794
0	21557	220.680831655946	9797
0	21566	220.887737282011	9813
0	21572	220.944510049857	9817
0	21578	220.959896273093	9818
0	21582	221	9821
0	21585	221.012091995634	9822
0	21588	221.017026034755	9822
0	21598	221.10156155256	9829
0	21603	221.125220141717	9830
0	21608	221.173337427437	9834
0	21613	221.215228144012	9837
0	21618	221.264478424847	9841
0	21621	221.271591523109	9841
0	21628	221.319960876575	9845
0	21635	221.369117292682	9824
0	21640	221.383903050633	9817
0	21645	221.5	9757
0	21648	221.55	9731
0	21653	221.577350179327	9717
0	21658	221.650542529069	9679
0	21665	221.895226320206	9554
0	21670	221.953751883413	9527
0	21674	222	9506
0	21697	222.5	9224
0	21726	223	8778
0	21756	223.5	9030
0	21786	224	9282
0	21841	224.5	8201
0	21890	225	8207
0	21938	225.5	8214
0	21991	226	8220
0	22027	226.5	8226
0	22089	227	8342
0	22155	227.5	8108
0	22187	228	8691
0	22245	228.5	9547
0	22249	228.536296820998	9610
0	22258	228.686268773099	9684
0	22263	228.69374421997	9684
0	22266	228.700972637979	9683
0	22273	228.725243127066	9683
0	22278	228.764564322742	9682
0	22281	228.771794233917	9682
0	22288	228.806096740813	9682
0	22293	228.815953644771	9682
0	22298	228.830066820323	9681
0	22302	228.837297478313	9681
0	22309	228.858915282538	9681
0	22314	228.874297381024	9681
0	22320	228.910623723413	9680
0	22325	228.946957435835	9679
0	22329	229	9678
0	22333	229.06720032179	9677
0	22339	229.161246547368	9676
0	22345	229.347397699804	9673
0	22351	229.416956962852	9671
0	22357	229.460860973338	9671
0	22361	229.5	9670
0	22393	230	9662
0	22454	230.5	9653
0	22489	231	9649
0	22539	231.5	9647
0	22603	232	9645
0	22655	232.5	9642
0	22701	233	9628
0	22738	233.5	9558
0	22787	234	9487
0	22828	234.5	9417
0	22878	235	9347
0	22949	235.5	9277
0	22993	236	9206
0	23037	236.5	9438
0	23089	237	9868
0	23145	237.5	8443
0	23190	238	8537
0	23259	238.5	8907
0	23294	239	9129
0	23343	239.5	9150
0	23373	240	9172
0	23425	240.5	9193
0	23476	241	9214
0	23520	241.5	9235
0	23569	242	9256
0	23619	242.5	9286
0	23624	242.55	9292
0	23629	242.614546780134	9301
0	23632	242.622072852599	9302
0	23639	242.692877022491	9311
0	23644	242.798135983477	9324
0	23649	242.809775314209	9326
0	23655	242.82403405486	9327
0	23660	242.994606630805	9349
0	23661	243	9350
0	23711	243.5	9414
0	23758	244	9478
0	23761	244.05	9484
0	23766	244.142855935958	9496
0	23771	244.151680378569	9497
0	23776	244.163091434641	9499
0	23782	244.229897020795	9507
0	23787	244.354759402743	9523
0	23792	244.366572662646	9525
0	23795	244.373921744011	9526
0	23802	244.477529794233	9539
0	23806	244.5	9542
0	23858	245	9270
0	23917	245.5	8859
0	23972	246	8610
0	24083	246.5	8851
0	24121	247	9091
0	24176	247.5	9332
0	24240	248	9572
0	24279	248.5	9695
0	24283	248.55	9496
0	24289	248.599216647424	9342
0	24295	248.63811848993	9346
0	24301	248.736243071909	9357
0	24309	248.837470696036	9368
0	24316	248.925455170791	9377
0	24325	248.978531359294	9383
0	24329	249	9385
0	24380	249.5	9440
0	24423	250	9472
0	24477	250.5	9339
0	24507	251	9206
0	24536	251.5	9074
0	24584	252	8941
0	24650	252.5	8808
0	24716	253	8675
0	24781	253.5	8542
0	24841	254	8418
0	24886	254.5	9262
0	24929	255	9843
0	24933	255.05	9821
0	24938	255.072483717985	9811
0	24944	255.102676073708	9797
0	24949	255.155958998399	9773
0	24954	255.171687237379	9766
0	24959	255.186696475455	9759
0	24964	255.211993075694	9748
0	24969	255.224247859526	9742
0	24976	255.401981943635	9662
0	24981	255.440912805296	9644
0	24986	255.461679872719	9635
0	24992	255.488115206094	9628
0	24996	255.5	9625
0	25001	255.55	9615
0	25002	255.557280291212	9614
0	25009	255.574088508162	9610
0	25015	255.626320144593	9600
0	25020	255.644227413963	9596
0	25026	255.760580893848	9545
0	25031	255.799058109068	9172
0	25037	255.847895390317	8697
0	25044	255.955705180536	8201
0	25048	256	8202
0	25094	256.5	8217
0	25127	257	8232
0	25188	257.5	8246
0	25253	258	8261
0	25313	258.5	8276
0	25362	259	8596
0	25398	259.5	8251
0	25442	260	8481
0	25463	260.5	8711
0	25528	261	8941
0	25587	261.5	9234
0	25644	262	9840
0	25653	262.230116202596	9819
0	25659	262.261980394396	9813
0	25664	262.295518212783	9806
0	25672	262.497919380158	9767
0	25673	262.5	9766
0	25718	263	8984
0	25782	263.5	8801
0	25830	264	8691
0	25874	264.5	8740
0	25931	265	9101
0	25966	265.5	9360
0	25998	266	9407
0	26028	266.5	9453
0	26035	266.55	9457
0	26036	266.5574019245	9458
0	26039	266.56480306639	9459
0	26046	266.590864190808	9461
0	26051	266.621508316577	9464
0	26056	266.642452006046	9466
0	26059	266.64984689301	9467
0	26068	266.757706447091	9477
0	26073	266.787168425671	9479
0	26078	266.847287457357	9485
0	26083	266.854733271424	9486
0	26088	266.901178700327	9490
0	26093	266.913927650965	9491
0	26096	266.921303059247	9492
0	26103	267	9499
0	26142	267.5	9545
0	26168	268	9591
0	26212	268.5	9637
0	26276	269	9684
0	26322	269.5	9730
0	26326	269.592224348808	9738
0	26332	269.654386017696	9744
0	26337	269.669389155578	9745
0	26345	269.839151738023	9761
0	26350	269.873630321624	9764
0	26356	269.92505987116	9769
0	26362	269.957618190293	9772
0	26367	270	9776
0	26416	270.5	9822
0	26420	270.55	9827
0	26428	270.682020197313	9839
0	26431	270.689134741474	9840
0	26438	270.701137761127	9841
0	26443	270.73391561761	9844
0	26446	270.741026548126	9844
0	26453	270.758783443869	9846
0	26458	270.778429756671	9848
0	26463	270.797064358456	9850
0	26468	270.845341369061	9854
0	26474	270.939397029317	9863
0	26479	270.975538569243	9866
0	26483	271	9868
0	26487	271.05	9801
0	26492	271.06903772563	9751
0	26497	271.103799553085	9659
0	26503	271.167512987501	9491
0	26506	271.174888395783	9472
0	26515	271.317115542648	9096
0	26523	271.5	8612
0	26579	272	8401
0	26603	272.5	8718
0	26631	273	9080
0	26687	273.5	9332
0	26740	274	9147
0	26788	274.5	8961
0	26832	275	9920
0	26835	275.097124564198	9943
0	26840	275.12632996647	9949
0	26846	275.155748927419	9899
0	26851	275.193198666856	9774
0	26857	275.262832402291	9540
0	26863	275.324511238008	9334
0	26869	275.5	8789
0	26900	276	8839
0	26951	276.5	8890
0	26983	277	9280
0	27018	277.5	9694
0	27082	278	9268
0	27128	278.5	9298
0	27177	279	8895
0	27212	279.5	8492
0	27243	280	8135
0	27298	280.5	8481
0	27342	281	8377
0	27382	281.5	9344
0	27440	282	9460
0	27494	282.5	9576
0	27546	283	9692
0	27588	283.5	9808
0	27591	283.55	9820
0	27596	283.699106275912	9855
0	27601	283.757294342915	9868
0	27609	283.948944381668	9199
0	27613	284	9185
0	27664	284.5	9205
0	27714	285	9515
0	27755	285.5	9393
0	27815	286	9271
0	27855	286.5	9149
0	27904	287	8991
0	27944	287.5	8820
0	27998	288	8650
0	28042	288.5	8415
0	28122	289	8514
0	28164	289.5	8292
0	28194	290	9279
0	28230	290.5	9283
0	28279	291	9095
0	28297	291.5	8730
0	28377	292	8610
0	28417	292.5	9874
0	28420	292.55	9874
0	28426	292.596770854442	9874
0	28429	292.603860179943	9874
0	28436	292.64100044622	9874
0	28441	292.660090439053	9874
0	28447	292.750177327967	9873
0	28452	292.765426817206	9873
0	28457	292.773314006055	9873
0	28463	292.829059747318	9873
0	28468	292.8665319294	9873
0	28473	292.997470343872	9872
0	28474	293	9872
0	28480	293.054561105622	9872
0	28483	293.061651867372	9872
0	28490	293.071128675481	9872
0	28498	293.13311543384	9871
0	28503	293.142295223004	9871
0	28508	293.161999082838	9871
0	28513	293.188945413183	9871
0	28521	293.211110748743	9871
0	28529	293.239951751106	9871
0	28536	293.281421328928	9871
0	28545	293.458019486485	9870
0	28550	293.5	9870
0	28608	294	9867
0	28675	294.5	9906
0	28681	294.614309304139	9933
0	28689	294.659176183911	9943
0	28697	294.886753556024	8380
0	28705	295	8439
0	28754	295.5	8864
0	28823	296	9224
0	28904	296.5	8562
0	28952	297	8525
0	28992	297.5	9765
0	29058	298	8845
0	29094	298.5	9408
0	29139	299	9859
0	29174	299.5	9550
0	29212	300	9241
0	29249	300.5	8932
0	29305	301	8775
0	29353	301.5	8656
0	29416	302	8538
0	29460	302.5	8644
0	29515	303	8914
0	29547	303.5	9183
0	29594	304	9453
0	29699	304.5	8635
0	29746	305	9053
0	29791	305.5	9472
0	29839	306	9729
0	29842	306.058822033022	9696
0	29850	306.225356527846	9603
0	29855	306.263637905749	9582
0	29860	306.289049832099	9568
0	29865	306.361757863021	9527
0	29868	306.369105401596	9523
0	29875	306.440133396162	9483
0	29880	306.466261778237	9469
0	29885	306.47902152447	9462
0	29891	306.490987952632	9455
0	29895	306.5	9450
0	29940	307	9171
0	29997	307.5	8891
0	30056	308	8612
0	30088	308.5	9326
0	30152	309	8945
0	30179	309.5	8563
0	30236	310	8181
0	30300	310.5	8179
0	30328	311	8192
0	30362	311.5	8204
0	30417	312	8216
0	30468	312.5	9272
0	30509	313	9346
0	30557	313.5	9426
0	30578	314	9486
0	30586	314.057708305962	9520
0	30595	314.228804577244	9634
0	30600	314.266980216103	9659
0	30606	314.291425399471	9676
0	30609	314.298659793849	9681
0	30614	314.305890451839	9686
0	30626	314.375779892149	9477
0	30635	314.5	9102
0	30690	315	9245
0	30755	315.5	9389
0	30790	316	9532
0	30793	316.059715440782	9549
0	30798	316.070105957946	9552
0	30801	316.077434266154	9554
0	30813	316.342560153228	9350
0	30818	316.385072308675	9264
0	30824	316.415495251312	9211
0	30829	316.426236385057	9205
0	30834	316.455839075205	9190
0	30839	316.483171248324	9176
0	30844	316.5	9167
0	30889	317	8779
0	30927	317.5	8389
0	30988	318	8174
0	31068	318.5	8251
0	31116	319	8310
0	31151	319.5	8321
0	31190	320	8332
0	31232	320.5	8400
0	31291	321	8481
0	31338	321.5	8706
0	31359	322	9131
0	31403	322.5	9556
0	31460	323	9402
0	31497	323.5	9151
0	31561	324	9263
0	31588	324.5	9492
0	31669	325	9732
0	31694	325.5	9971
0	31700	325.55	9768
0	31705	325.651128493664	9334
0	31708	325.658627957988	9301
0	31716	325.691586487728	9245
0	31719	325.699158148085	9250
0	31728	325.852356726805	9335
0	31733	326	9418
0	31765	326.5	9697
0	31771	326.55	9725
0	31774	326.557197943445	9729
0	31777	326.564392927513	9733
0	31786	326.713917262046	9817
0	31791	326.731487385528	9827
0	31796	326.794822769869	9862
0	31802	326.858070519459	9857
0	31807	326.900188031457	9814
0	31812	326.929061524443	9785
0	31817	326.978000866513	9734
0	31821	327	9712
0	31826	327.05	9660
0	31829	327.057246376812	9653
0	31832	327.064498008429	9645
0	31840	327.109426890386	9599
0	31845	327.141254867014	9567
0	31850	327.173897169935	9533
0	31855	327.209865127879	9496
0	31860	327.223195879859	9482
0	31865	327.23413790907	9471
0	31871	327.298270359229	9405
0	31877	327.36594178312	9336
0	31882	327.394030798416	9307
0	31887	327.5	9198
0	31945	328	8685
0	31981	328.5	9763
0	32018	329	9191
0	32061	329.5	8629
0	32110	330	8360
0	32178	330.5	8431
0	32230	331	8656
0	32299	331.5	9294
0	32337	332	9701
0	32382	332.5	9853
0	32421	333	9165
0	32494	333.5	9070
0	32539	334	9032
0	32585	334.5	8994
0	32653	335	8996
0	32696	335.5	9013
0	32731	336	9030
0	32785	336.5	8878
0	32854	337	9819
0	32887	337.5	9155
0	32898	338	8949
0	32940	338.5	8817
0	32985	339	8923
0	33040	339.5	9884
0	33044	339.55	9848
0	33049	339.566849200773	9835
0	33054	339.589566088448	9819
0	33060	339.602835326198	9809
0	33066	339.742648978271	9707
0	33071	339.798083882377	9666
0	33076	340	9518
0	33081	340.05	9482
0	33084	340.057382408775	9476
0	33087	340.064769491932	9471
0	33092	340.072160474933	9466
0	33100	340.191365321409	9446
0	33105	340.234215389579	9446
0	33111	340.261432939333	9446
0	33117	340.28212189407	9446
0	33123	340.299672105141	9446
0	33128	340.314744622315	9446
0	33133	340.369257042796	9446
0	33140	340.496334216479	9446
0	33141	340.5	9446
0	33147	340.642618318497	9446
0	33152	340.652777609784	9446
0	33157	340.66148679359	9446
0	33162	340.681246222633	9446
0	33167	340.698566522832	9446
0	33176	340.727845668341	9446
0	33179	340.735256212487	9446
0	33187	340.749292989902	9446
0	33193	340.770884768979	9446
0	33198	340.78508210582	9446
0	33209	340.859813208079	9446
0	33216	340.948293496423	9446
0	33219	340.955704040569	9446
0	33226	340.978738304722	9446
0	33231	341	9446
0	33277	341.5	9446
0	33328	342	9446
0	33385	342.5	9446
0	33446	343	9400
0	33451	343.236344670553	9339
0	33455	343.243840119745	9337
0	33460	343.251337174473	9335
0	33468	343.3235626944	9317
0	33473	343.385708785222	9301
0	33478	343.5	9271
0	33544	344	9143
0	33583	344.5	9015
0	33607	345	8887
0	33651	345.5	8549
0	33692	346	9612
0	33695	346.079769576329	9782
0	33698	346.086925577147	9797
0	33707	346.1268983308	9876
0	33713	346.156821513318	9876
0	33719	346.172723878667	9875
0	33725	346.220844034423	9874
0	33731	346.424463151564	9868
0	33736	346.432339194993	9868
0	33740	346.5	9866
0	33790	347	9852
0	33793	347.07746795514	9850
0	33800	347.17204535124	9847
0	33805	347.261140277197	9845
0	33810	347.284956562331	9844
0	33817	347.372420156285	9842
0	33822	347.444954518646	9840
0	33827	347.487369663246	9838
0	33831	347.5	9838
0	33866	348	9823
0	33938	348.5	9809
0	33946	349	9794
0	33995	349.5	9780
0	34001	349.618343634933	9776
0	34006	349.63545528168	9776
0	34013	349.707995599742	9773
0	34016	349.715158190553	9773
0	34026	349.824900333065	9770
0	34032	349.942755633397	9767
0	34037	349.958319323235	9766
0	34042	350	9765
0	34045	350.033464226473	9764
0	34052	350.112125658916	9762
0	34057	350.200667577423	9759
0	34064	350.351116319798	9755
0	34069	350.362355364145	9754
0	34074	350.382183734136	9754
0	34079	350.420553749354	9753
0	34086	350.490951354772	9751
0	34090	350.5	9750
0	34094	350.55	9745
0	34099	350.558190381694	9743
0	34105	350.600185333133	9735
0	34110	350.620753907576	9730
0	34117	350.771030699679	9699
0	34124	350.980675785417	9656
0	34128	351	9652
0	34179	351.5	9888
0	34186	351.579310315464	9856
0	34193	351.801885090295	9262
0	34201	351.981526235553	9072
0	34205	352	9052
0	34248	352.5	8524
0	34316	353	9718
0	34378	353.5	8490
0	34483	354	8560
0	34534	354.5	8801
0	34570	355	9039
0	34627	355.5	8945
0	34651	356	8851
0	34697	356.5	8758
0	34733	357	8664
0	34776	357.5	8570
0	34823	358	8476
0	34885	358.5	8382
0	34933	359	8850
0	34966	359.5	9328
0	35009	360	9805
0	35013	360.05	9853
0	35016	360.057104435197	9860
0	35023	360.073872670913	9876
0	35028	360.091666564687	9893
0	35034	360.171571642369	9865
0	35040	360.221467557406	9820
0	35045	360.2368539387	9806
0	35050	360.259820140229	9786
0	35056	360.37219024488	9736
0	35061	360.382200755522	9735
0	35066	360.398710789729	9732
0	35071	360.433983311828	9726
0	35077	360.498609244539	9715
0	35078	360.5	9715
0	35087	360.555814597087	9705
0	35088	360.563027374006	9704
0	35100	360.826056655815	9659
0	35105	360.878372509609	9650
0	35108	360.883303782847	9649
0	35116	360.923018084826	9642
0	35123	360.944517680338	9639
0	35129	360.995348832342	9630
0	35130	361	9629
0	35137	361.109938391616	9610
0	35142	361.139100386408	9605
0	35150	361.203775253866	9594
0	35157	361.363593479573	9567
0	35164	361.468751470483	9549
0	35170	361.491059463594	9545
0	35174	361.5	9544
0	35179	361.55583940312	9534
0	35186	361.699079915002	9510
0	35192	361.784591084485	9495
0	35200	361.867076653743	9481
0	35206	361.907822050991	9474
0	35211	361.93520125973	9469
0	35216	361.948956819668	9467
0	35221	361.985772332036	9461
0	35225	362	9458
0	35273	362.5	9485
0	35277	362.629854477776	9541
0	35285	362.869830101411	9644
0	35290	362.895324013068	9655
0	35297	362.936897734658	9673
0	35302	362.957744699703	9682
0	35307	363	9700
0	35313	363.05	9722
0	35314	363.057200164575	9725
0	35321	363.079146503466	9734
0	35327	363.144672934089	9763
0	35332	363.214938894807	9793
0	35338	363.406533745913	9230
0	35344	363.473748894896	8656
0	35349	363.482519337788	8581
0	35353	363.5	8432
0	35396	364	8658
0	35439	364.5	9015
0	35497	365	9018
0	35560	365.5	9277
0	35622	366	9185
0	35685	366.5	8997
0	35736	367	9122
0	35797	367.5	9281
0	35846	368	9440
0	35891	368.5	9600
0	35921	369	9759
0	35926	369.05	9775
0	35927	369.05716112532	9777
0	35932	369.064320785748	9779
0	35940	369.121046995678	9725
0	35945	369.180640267009	9549
0	35948	369.187970877544	9527
0	35957	369.27719148807	9263
0	35963	369.497167029902	8610
0	35964	369.5	8602
0	36017	370	9518
0	36117	370.5	9531
0	36172	371	9235
0	36216	371.5	9702
0	36219	371.57343410054	9770
0	36229	371.756776860836	9795
0	36232	371.763923364154	9789
0	36240	371.905026199646	9657
0	36245	371.972976538665	9593
0	36250	371.982586949786	9584
0	36255	371.994354060373	9573
0	36258	372	9568
0	36320	372.5	9101
0	36380	373	8854
0	36443	373.5	8918
0	36492	374	8982
0	36554	374.5	9045
0	36587	375	9109
0	36619	375.5	9173
0	36678	376	9743
0	36682	376.05	9581
0	36692	376.302375879539	8759
0	36697	376.411774078402	8403
0	36703	376.5	8116
0	36767	377	8409
0	36831	377.5	8808
0	36872	378	9006
0	36909	378.5	8719
0	36965	379	9559
0	36970	379.05	9597
0	36973	379.057293946025	9603
0	36978	379.064583334758	9608
0	36982	379.071868930095	9614
0	36989	379.109994719499	9643
0	36996	379.178522266052	9540
0	37001	379.220240402644	9470
0	37007	379.374343761875	9213
0	37012	379.420101697712	9136
0	37017	379.460858349147	9068
0	37020	379.468577802169	9055
0	37026	379.5	9002
0	37069	380	9008
0	37127	380.5	9224
0	37177	381	8860
0	37204	381.5	8816
0	37260	382	8950
0	37319	382.5	9084
0	37381	383	9218
0	37449	383.5	8969
0	37487	384	8429
0	37554	384.5	8344
0	37588	385	8399
0	37651	385.5	8455
0	37694	386	8532
0	37744	386.5	9082
0	37781	387	9426
0	37842	387.5	9229
0	37879	388	9033
0	37953	388.5	8836
0	37984	389	8639
0	38039	389.5	8783
0	38132	390	9036
0	38172	390.5	9288
0	38257	391	9884
0	38262	391.071288441408	9865
0	38268	391.22969159658	9824
0	38275	391.353491830947	9792
0	38280	391.429838071874	9772
0	38285	391.495212878708	9755
0	38286	391.5	9754
0	38292	391.582708885593	9732
0	38298	391.618564652706	9723
0	38307	391.799390005141	9676
0	38313	391.911171762259	9647
0	38319	391.971494012943	9632
0	38324	391.986633025776	9628
0	38328	392	9624
0	38379	392.5	9494
0	38447	393	9365
0	38508	393.5	9235
0	38600	394	9105
0	38637	394.5	8988
0	38706	395	8942
0	38761	395.5	8897
0	38781	396	8852
0	38832	396.5	9750
0	38838	396.563794183782	9711
0	38843	396.58204388609	9700
0	38846	396.589260380935	9696
0	38854	396.708637137795	9624
0	38857	396.715910620754	9620
0	38862	396.723187128031	9616
0	38870	396.928177789263	9493
0	38875	396.941902345955	9484
0	38881	397	9449
0	38922	397.5	9149
0	38961	398	8849
0	38994	398.5	8549
0	39058	399	8571
0	39112	399.5	8700
0	39145	400	8830
1	962	10	8906
1	1009	10.5	8735
1	1062	11	8564
1	1113	11.5	8393
1	1186	12	8222
1	1238	12.5	8115
1	1290	13	9310
1	1323	13.5	9436
1	1359	14	9420
1	1406	14.5	9403
1	1438	15	9387
1	1491	15.5	9405
1	1554	16	9451
1	1642	16.5	9497
1	1686	17	9543
1	1725	17.5	9431
1	1774	18	9030
1	1791	18.5	8693
1	1847	19	8595
1	1901	19.5	8511
1	1941	20	8446
1	1985	20.5	8382
1	2027	21	8404
1	2098	21.5	8932
1	2135	22	9394
1	2179	22.5	9165
1	2217	23	8937
1	2250	23.5	8709
1	2311	24	8480
1	2371	24.5	8252
1	2415	25	8974
1	2478	25.5	9019
1	2508	26	8873
1	2580	26.5	8726
1	2624	27	8579
1	2684	27.5	8297
1	2732	28	8511
1	2778	28.5	8726
1	2835	29	8941
1	2887	29.5	9146
1	2955	30	9258
1	3023	30.5	9369
1	3079	31	9481
1	3151	31.5	9416
1	3186	32	9092
1	3239	32.5	8664
1	3274	33	8411
1	3308	33.5	9105
1	3345	34	9005
1	3380	34.5	8830
1	3420	35	8654
1	3448	35.5	8959
1	3510	36	9280
1	3563	36.5	9602
1	3602	37	9839
1	3605	37.098611112073	9814
1	3610	37.191928773694	9790
1	3616	37.334152028531	9755
1	3621	37.365949723287	9747
1	3627	37.455195508547	9724
1	3632	37.481904468911	9717
1	3636	37.5	9713
1	3698	38	9587
1	3763	38.5	9461
1	3812	39	9335
1	3887	39.5	9209
1	3945	40	9438
1	4000	40.5	9672
1	4055	41	9906
1	4061	41.05	9728
1	4064	41.057195723684	9641
1	4067	41.064456381292	9554
1	4072	41.071783155418	9466
1	4080	41.159436242077	8979
1	4085	41.196391399104	8919
1	4092	41.351938315631	8696
1	4096	41.359987993644	8701
1	4105	41.430030207661	8742
1	4110	41.5	8784
1	4169	42	9078
1	4226	42.5	9373
1	4294	43	9668
1	4300	43.055569628651	9701
1	4307	43.146965279255	9754
1	4312	43.198861565821	9785
1	4319	43.245951786996	9813
1	4322	43.253085181473	9817
1	4330	43.288388606034	9838
1	4340	43.433229591864	9880
1	4346	43.5	9880
1	4349	43.561474893289	9881
1	4352	43.568559196497	9881
1	4359	43.60348816554	9881
1	4366	43.700168085487	9882
1	4373	43.777445803992	9882
1	4379	43.903243980403	9883
1	4384	43.933796129615	9883
1	4388	43.940878999189	9883
1	4394	44	9884
1	4397	44.080315479421	9884
1	4403	44.11365501421	9885
1	4410	44.183930835907	9885
1	4415	44.222389248623	9885
1	4420	44.294552075653	9886
1	4425	44.346630274574	9886
1	4430	44.370455131575	9886
1	4435	44.446033601812	9887
1	4439	44.5	9887
1	4444	44.55	9888
1	4445	44.557079288026	9888
1	4453	44.593153277396	9888
1	4458	44.672024603281	9888
1	4463	44.688492414601	9889
1	4468	44.775886027296	9889
1	4473	44.786385730189	9889
1	4476	44.79346430234	9889
1	4483	44.882467963741	9890
1	4489	44.904582940118	9890
1	4494	45	9891
1	4500	45.096478238724	9891
1	4505	45.112383824808	9892
1	4511	45.1491485515	9892
1	4516	45.191150089667	9892
1	4522	45.244790173828	9892
1	4528	45.429174687195	9894
1	4533	45.5	9894
1	4536	45.55	9895
1	4543	45.595134415744	9895
1	4550	45.631797869421	9895
1	4553	45.63887214936	9895
1	4562	45.819987537345	9896
1	4567	45.878308190809	9897
1	4573	45.929754296966	9897
1	4577	46	9898
1	4581	46.05	9898
1	4587	46.152174822964	9899
1	4592	46.162467140606	9899
1	4599	46.306177927969	9900
1	4605	46.5	9901
1	4609	46.59918786739	9902
1	4615	46.700601964676	9902
1	4618	46.70767124361	9902
1	4625	46.716351301428	9902
1	4628	46.723420580362	9903
1	4635	46.781781363363	9903
1	4641	46.842024433796	9903
1	4646	46.872517601039	9904
1	4650	47	9904
1	4692	47.5	9211
1	4771	48	8505
1	4819	48.5	8687
1	4879	49	9123
1	4970	49.5	8954
1	5014	50	8300
1	5056	50.5	8296
1	5091	51	8347
1	5147	51.5	8361
1	5191	52	8376
1	5246	52.5	8390
1	5278	53	8470
1	5329	53.5	8604
1	5349	54	8739
1	5385	54.5	8873
1	5428	55	9007
1	5477	55.5	9141
1	5541	56	9275
1	5544	56.05	9289
1	5549	56.058136340838	9291
1	5554	56.100199071398	9302
1	5560	56.135992066411	9312
1	5565	56.157071343304	9318
1	5570	56.178856073715	9323
1	5577	56.309129626596	9358
1	5583	56.418781202665	9388
1	5588	56.444801093987	9395
1	5593	56.461089291973	9399
1	5597	56.5	9410
1	5639	57	9544
1	5642	57.05	9557
1	5647	57.090186169217	9568
1	5655	57.259200873015	9625
1	5660	57.284935583161	9640
1	5667	57.368297093578	9689
1	5670	57.375521781368	9693
1	5680	57.441946220005	9662
1	5685	57.451614774735	9658
1	5692	57.5	9634
1	5716	58	9395
1	5787	58.5	9156
1	5835	59	8916
1	5875	59.5	8677
1	5908	60	8850
1	5959	60.5	8850
1	6020	61	8462
1	6045	61.5	8703
1	6108	62	8943
1	6155	62.5	9089
1	6203	63	9191
1	6272	63.5	9294
1	6345	64	9396
1	6397	64.5	9535
1	6402	64.55	9551
1	6403	64.557329075489	9553
1	6410	64.604105316192	9568
1	6416	64.650576323468	9583
1	6424	64.717452983648	9625
1	6430	64.794726397995	9741
1	6439	64.973118898364	9402
1	6444	65	9095
1	6489	65.5	8866
1	6517	66	9259
1	6569	66.5	9260
1	6602	67	9153
1	6662	67.5	9047
1	6693	68	8941
1	6732	68.5	8907
1	6779	69	8936
1	6809	69.5	8965
1	6871	70	8993
1	6922	70.5	9022
1	6986	71	9051
1	7053	71.5	9020
1	7106	72	8988
1	7142	72.5	9198
1	7179	73	9652
1	7247	73.5	9361
1	7295	74	8841
1	7347	74.5	8492
1	7406	75	9016
1	7417	75.5	9140
1	7464	76	8212
1	7494	76.5	8821
1	7546	77	9307
1	7608	77.5	9445
1	7662	78	9582
1	7694	78.5	9508
1	7723	79	8645
1	7774	79.5	8509
1	7835	80	8853
1	7894	80.5	9222
1	7919	81	9553
1	7995	81.5	8077
1	8059	82	9123
1	8100	82.5	9312
1	8162	83	9227
1	8217	83.5	9266
1	8246	84	9324
1	8287	84.5	9381
1	8327	85	9439
1	8369	85.5	9496
1	8498	86	9554
1	8540	86.5	9370
1	8612	87	8820
1	8658	87.5	9106
1	8686	88	9391
1	8737	88.5	9677
1	8813	89	9222
1	8879	89.5	8518
1	8924	90	9843
1	8928	90.068366511818	9835
1	8933	90.124646998754	9829
1	8939	90.328222841632	9806
1	8944	90.352106501931	9803
1	8950	90.394618666457	9799
1	8955	90.491998067481	9788
1	8959	90.5	9787
1	8962	90.55	9781
1	8967	90.622039835885	9773
1	8972	90.669883744435	9768
1	8977	90.702081069413	9764
1	8986	90.862342567823	9746
1	8991	90.894573592048	9743
1	8998	90.938706997345	9738
1	9003	91	9731
1	9061	91.5	9674
1	9064	91.642455437311	9656
1	9069	91.665439521336	9654
1	9075	91.71680949078	9647
1	9081	91.834254594314	9633
1	9088	91.896169836489	9625
1	9093	91.932974920456	9620
1	9098	91.960171988705	9617
1	9104	91.995454617406	9612
1	9105	92	9612
1	9145	92.5	9550
1	9149	92.55	9543
1	9157	92.666275705107	9529
1	9163	92.955157585091	9493
1	9168	92.986239328518	9489
1	9172	93	9487
1	9205	93.5	9425
1	9255	94	8182
1	9313	94.5	9824
1	9360	95	9800
1	9412	95.5	9224
1	9478	96	8647
1	9512	96.5	8190
1	9583	97	8279
1	9620	97.5	8369
1	9661	98	8318
1	9716	98.5	8266
1	9788	99	8214
1	9867	99.5	8162
1	9924	100	8110
1	9974	100.5	8533
1	10038	101	9030
1	10088	101.5	9528
1	10092	101.578145176947	9605
1	10097	101.657440583318	9684
1	10103	101.708791536605	9735
1	10108	101.740421663987	9767
1	10115	101.773293785626	9799
1	10121	101.801351230262	9797
1	10127	101.874182864046	9780
1	10133	101.917678270224	9770
1	10138	101.944194261556	9764
1	10144	102	9752
1	10174	102.5	9638
1	10180	102.554075692551	9625
1	10181	102.561348419824	9624
1	10188	102.577938400662	9620
1	10197	102.647083061825	9604
1	10203	102.798258471362	9570
1	10206	102.805572995918	9568
1	10216	102.874705183043	9552
1	10224	103	9524
1	10283	103.5	9412
1	10345	104	9299
1	10402	104.5	9187
1	10448	105	9074
1	10502	105.5	8962
1	10556	106	8722
1	10605	106.5	9637
1	10630	107	9495
1	10637	107.205845536098	9479
1	10643	107.3264160531	9469
1	10648	107.353464641738	9467
1	10654	107.388395504926	9464
1	10657	107.39579195463	9464
1	10665	107.431152727842	9461
1	10670	107.45476167166	9459
1	10675	107.490454247014	9456
1	10679	107.5	9456
1	10729	108	9416
1	10776	108.5	9377
1	10834	109	9338
1	10885	109.5	9299
1	10936	110	9302
1	10940	110.104363371125	9306
1	10946	110.182800854225	9309
1	10951	110.232953508277	9311
1	10957	110.284748420933	9314
1	10962	110.312272541413	9315
1	10967	110.334222631761	9316
1	10972	110.359366879975	9317
1	10980	110.5	9322
1	11011	111	9343
1	11071	111.5	9363
1	11105	112	9383
1	11166	112.5	9404
1	11170	112.55	9406
1	11175	112.573709095184	9407
1	11180	112.658505284101	9410
1	11186	112.761400670347	9414
1	11191	112.778778812223	9415
1	11196	112.800024140229	9416
1	11203	112.961580132289	9422
1	11208	112.9713972971	9423
1	11212	113	9424
1	11249	113.5	9444
1	11252	113.576548906137	9447
1	11257	113.592025619894	9448
1	11262	113.617660476872	9449
1	11265	113.625068668215	9449
1	11272	113.638615480065	9450
1	11277	113.712006864498	9453
1	11283	113.790804045819	9456
1	11288	113.82097879082	9457
1	11293	114	9465
1	11296	114.05	9467
1	11301	114.071017637831	9468
1	11306	114.113057900361	9469
1	11311	114.189142215792	9472
1	11316	114.219039544825	9474
1	11321	114.243605903585	9475
1	11326	114.27345410223	9476
1	11331	114.351520860502	9479
1	11337	114.446461299519	9483
1	11341	114.5	9485
1	11371	115	9505
1	11375	115.097921570984	9509
1	11380	115.108551435639	9510
1	11385	115.241856267789	9515
1	11390	115.262476790889	9516
1	11396	115.334901060543	9519
1	11401	115.346793139776	9519
1	11406	115.381665577963	9521
1	11411	115.407099118382	9522
1	11416	115.421037440231	9523
1	11421	115.460280053982	9524
1	11425	115.5	9526
1	11428	115.55	9528
1	11434	115.570201968832	9529
1	11440	115.654320585652	9532
1	11446	115.769607821811	9537
1	11452	115.825200036443	9539
1	11458	115.957336143169	9544
1	11463	115.998401279663	9546
1	11464	116	9546
1	11543	116.5	8225
1	11592	117	8695
1	11625	117.5	9858
1	11628	117.575572727195	9808
1	11633	117.610805049473	9784
1	11638	117.65315616918	9756
1	11643	117.680597643867	9737
1	11649	118	9524
1	11652	118.194258739426	9394
1	11658	118.287831816329	9332
1	11663	118.301015241059	9323
1	11668	118.338782715139	9297
1	11673	118.38471394357	9267
1	11676	118.392267628689	9262
1	11683	118.409998780739	9250
1	11687	118.5	9190
1	11740	119	8856
1	11780	119.5	8732
1	11827	120	9098
1	11926	120.5	9675
1	11968	121	9335
1	12011	121.5	8995
1	12085	122	8655
1	12157	122.5	8315
1	12188	123	8152
1	12236	123.5	8152
1	12273	124	8152
1	12308	124.5	8204
1	12359	125	9388
1	12407	125.5	9465
1	12478	126	9542
1	12549	126.5	9376
1	12609	127	9111
1	12665	127.5	9209
1	12738	128	9274
1	12780	128.5	9018
1	12828	129	8763
1	12881	129.5	8508
1	12927	130	8253
1	12961	130.5	8364
1	12988	131	8614
1	13034	131.5	8863
1	13079	132	9113
1	13125	132.5	8612
1	13172	133	8427
1	13210	133.5	8586
1	13246	134	8968
1	13295	134.5	8692
1	13363	135	8629
1	13411	135.5	8896
1	13435	136	9182
1	13471	136.5	9434
1	13495	137	9548
1	13553	137.5	9663
1	13601	138	9777
1	13605	138.05	9789
1	13609	138.057150883645	9790
1	13616	138.132946310384	9807
1	13621	138.168640680444	9816
1	13627	138.192638102869	9558
1	13632	138.223603186411	9056
1	13639	138.317747437248	8675
1	13642	138.325816601513	8644
1	13647	138.333914704243	8612
1	13655	138.5	8297
1	13741	139	9453
1	13805	139.5	9124
1	13838	140	9111
1	13868	140.5	9098
1	13915	141	9085
1	13990	141.5	8947
1	14049	142	8727
1	14071	142.5	8508
1	14119	143	8288
1	14156	143.5	8069
1	14196	144	8057
1	14232	144.5	8105
1	14272	145	8377
1	14329	145.5	9063
1	14383	146	9749
1	14386	146.05	9818
1	14392	146.102543030535	9805
1	14397	146.220643096946	8831
1	14402	146.278918424784	8351
1	14408	146.342424213288	8038
1	14413	146.363705998817	8047
1	14419	146.389028122046	8058
1	14425	146.426100419169	8074
1	14431	146.473857645309	8094
1	14435	146.5	8105
1	14489	147	8319
1	14550	147.5	8532
1	14587	148	8746
1	14609	148.5	8959
1	14644	149	8929
1	14679	149.5	8817
1	14757	150	8704
1	14840	150.5	8591
1	14880	151	8478
1	14914	151.5	8365
1	14963	152	8473
1	14981	152.5	8997
1	15030	153	9268
1	15077	153.5	8752
1	15107	154	8237
1	15132	154.5	8402
1	15154	155	8659
1	15204	155.5	8917
1	15257	156	9120
1	15324	156.5	9124
1	15374	157	9128
1	15443	157.5	8672
1	15491	158	8520
1	15531	158.5	8634
1	15558	159	9158
1	15592	159.5	9627
1	15596	159.551752551207	9634
1	15601	159.634140579781	9645
1	15607	159.702041263846	9654
1	15612	159.718707643493	9656
1	15618	159.88541379099	9678
1	15624	159.928217258088	9684
1	15631	159.986452622077	9691
1	15635	160	9693
1	15640	160.05	9699
1	15641	160.057217238891	9700
1	15648	160.072911091795	9702
1	15653	160.20234767992	9719
1	15659	160.272153875459	9729
1	15665	160.360114541066	9740
1	15668	160.367301399382	9741
1	15677	160.437388284215	9750
1	15682	160.485197134174	9757
1	15685	160.492371470548	9757
1	15691	160.5	9758
1	15694	160.550345586047	9765
1	15699	160.58061858173	9769
1	15704	160.631315896306	9776
1	15709	160.642310594191	9777
1	15714	160.661496266814	9780
1	15719	160.765022188296	9793
1	15724	160.779993309556	9795
1	15730	160.852337496853	9805
1	15735	160.862342050121	9806
1	15741	160.991116737194	9823
1	15745	161	9824
1	15748	161.076712037078	9834
1	15756	161.280619299056	9861
1	15762	161.375039910105	9873
1	15768	161.464471937759	9880
1	15772	161.5	9831
1	15775	161.55	9761
1	15781	161.82176453707	9382
1	15786	161.867363516835	9319
1	15791	161.924598382237	9239
1	15797	161.951479430866	9202
1	15802	161.959086472813	9191
1	15807	161.966702619043	9180
1	15810	161.974327891374	9170
1	15816	162	9134
1	15850	162.5	8437
1	15898	163	8092
1	15936	163.5	8571
1	16006	164	9704
1	16062	164.5	9785
1	16120	165	9308
1	16177	165.5	9842
1	16264	166	8129
1	16304	166.5	8231
1	16353	167	8528
1	16384	167.5	8824
1	16425	168	9121
1	16467	168.5	9156
1	16524	169	8865
1	16590	169.5	9253
1	16672	170	9586
1	16677	170.037347546697	9596
1	16678	170.044642252825	9598
1	16690	170.213234159259	9644
1	16698	170.352387788865	9682
1	16706	170.5	9722
1	16710	170.554804377223	9737
1	16716	170.616476895209	9753
1	16722	170.67455181572	9769
1	16729	170.76115385824	9540
1	16734	170.818815027037	9290
1	16740	170.84129759286	9193
1	16745	171	9064
1	16791	171.5	9192
1	16830	172	9320
1	16877	172.5	9448
1	16929	173	9576
1	16972	173.5	9120
1	17011	174	8973
1	17068	174.5	8955
1	17098	175	8692
1	17141	175.5	9065
1	17201	176	9245
1	17237	176.5	9424
1	17288	177	9603
1	17353	177.5	9220
1	17404	178	8461
1	17453	178.5	9765
1	17498	179	9526
1	17530	179.5	8723
1	17576	180	8932
1	17607	180.5	9141
1	17675	181	9350
1	17758	181.5	9278
1	17787	182	9161
1	17817	182.5	9044
1	17858	183	8927
1	17897	183.5	8811
1	17940	184	9838
1	17947	184.05	9854
1	17950	184.057103714228	9856
1	17953	184.064205986955	9858
1	17956	184.071306818767	9860
1	17965	184.126919503887	9837
1	17971	184.162440920018	9736
1	17976	184.187875243486	9663
1	17984	184.29671200322	9351
1	17989	184.309128819215	9316
1	17994	184.324176975153	9273
1	17999	184.353918849517	9187
1	18004	184.394785474638	9070
1	18011	184.5	9052
1	18048	185	9723
1	18078	185.5	9546
1	18126	186	9370
1	18185	186.5	9193
1	18214	187	9016
1	18274	187.5	8839
1	18316	188	8663
1	18353	188.5	9062
1	18393	189	9081
1	18430	189.5	9500
1	18478	190	9002
1	18546	190.5	9013
1	18592	191	9075
1	18611	191.5	9137
1	18657	192	9198
1	18686	192.5	9260
1	18772	193	9322
1	18814	193.5	9383
1	18890	194	9445
1	18894	194.057348749189	9452
1	18899	194.116731073458	9459
1	18905	194.208614135035	9471
1	18912	194.296739679798	9482
1	18918	194.326863923928	9485
1	18925	194.414763256219	9496
1	18933	194.496469733486	9506
1	18934	194.5	9507
1	18978	195	9556
1	18984	195.127141501827	9567
1	18989	195.224856202632	9576
1	18996	195.27787358824	9581
1	18999	195.285179714949	9581
1	19007	195.332871195239	9586
1	19012	195.349266215675	9587
1	19015	195.356567769863	9588
1	19022	195.372875521498	9589
1	19027	195.5	9601
1	19057	196	9645
1	19061	196.05	9650
1	19067	196.111374732678	9655
1	19072	196.120638075139	9656
1	19077	196.148651817649	9658
1	19082	196.173897551293	9661
1	19087	196.187050531942	9662
1	19092	196.232263894343	9666
1	19095	196.239505773093	9666
1	19102	196.296964405608	9672
1	19107	196.379808438932	9679
1	19112	196.398658272891	9681
1	19117	196.434818669499	9684
1	19122	196.452979924691	9685
1	19127	196.5	9690
1	19132	196.55	9694
1	19133	196.557220961419	9695
1	19141	196.679070884631	9706
1	19146	196.782869161472	9715
1	19151	196.792379632761	9716
1	19154	196.799584243712	9716
1	19161	196.945005457886	9729
1	19167	196.971842220969	9732
1	19172	197	9734
1	19180	197.05	9739
1	19181	197.057187596262	9739
1	19184	197.064375192524	9740
1	19191	197.079221008766	9741
1	19198	197.251168821656	9756
1	19205	197.487869284724	9106
1	19210	197.5	9056
1	19250	198	8419
1	19299	198.5	8868
1	19359	199	8731
1	19437	199.5	8836
1	19473	200	8976
1	19500	200.5	9117
1	19542	201	9257
1	19611	201.5	9397
1	19663	202	9537
1	19694	202.5	9677
1	19697	202.55	9691
1	19703	202.725834767113	9741
1	19709	202.822087809864	9768
1	19714	202.8581316587	9778
1	19718	202.865290586906	9780
1	19727	202.964446241734	9807
1	19732	203	9817
1	19735	203.062511763723	9835
1	19740	203.131174447132	9854
1	19743	203.13827816136	9856
1	19751	203.166540730333	9864
1	19756	203.182689653517	9869
1	19763	203.4251092042	9937
1	19768	203.435079343556	9939
1	19774	203.499305521641	9942
1	19775	203.5	9941
1	19781	203.556346358495	9892
1	19787	203.597506355639	9856
1	19795	203.642593005658	9816
1	19798	203.649724220002	9810
1	19809	203.710735228294	9757
1	19814	203.767104535903	9707
1	19820	203.805233614329	9674
1	19827	203.979466531889	9522
1	19831	204	9504
1	19875	204.5	9427
1	19920	205	9191
1	19973	205.5	8900
1	20016	206	8836
1	20053	206.5	9092
1	20087	207	9348
1	20154	207.5	9604
1	20222	208	8737
1	20272	208.5	9193
1	20347	209	9168
1	20391	209.5	9144
1	20457	210	9119
1	20488	210.5	9083
1	20569	211	8540
1	20618	211.5	8553
1	20660	212	8847
1	20729	212.5	9142
1	20810	213	9436
1	20849	213.5	9731
1	20915	214	9567
1	21000	214.5	9358
1	21044	215	9149
1	21107	215.5	8940
1	21137	216	8850
1	21175	216.5	8813
1	21251	217	8776
1	21296	217.5	8739
1	21318	218	8702
1	21364	218.5	8665
1	21409	219	8629
1	21455	219.5	8273
1	21481	220	8712
1	21526	220.5	9109
1	21582	221	9461
1	21645	221.5	9195
1	21674	222	8804
1	21697	222.5	8413
1	21726	223	8577
1	21756	223.5	9015
1	21786	224	9453
1	21841	224.5	9363
1	21890	225	8918
1	21938	225.5	9427
1	21941	225.563964756414	9514
1	21946	225.675564618604	9665
1	21953	225.717853352016	9676
1	21958	225.740594295869	9673
1	21965	225.804992931243	9665
1	21971	225.859907610616	9657
1	21974	225.867156238554	9656
1	21981	225.897462044734	9652
1	21986	225.922520861671	9649
1	21991	226	9639
1	21994	226.066395797926	9630
1	21999	226.096017173459	9626
1	22004	226.108465264465	9624
1	22009	226.150714478057	9619
1	22015	226.222500236976	9609
1	22022	226.33578921141	9594
1	22027	226.5	9572
1	22030	226.55	9565
1	22036	226.646445159892	9552
1	22041	226.658007515104	9551
1	22044	226.665336590593	9550
1	22049	226.672666433525	9549
1	22056	226.682264811405	9548
1	22061	226.753260798802	9538
1	22067	226.781668829561	9534
1	22073	226.872286187765	9522
1	22079	226.915334723458	9516
1	22084	226.955800026448	9511
1	22089	227	9505
1	22155	227.5	9438
1	22187	228	9371
1	22245	228.5	9394
1	22329	229	9050
1	22361	229.5	8894
1	22393	230	8738
1	22454	230.5	8582
1	22489	231	8426
1	22539	231.5	8621
1	22603	232	8922
1	22655	232.5	9223
1	22701	233	9515
1	22738	233.5	8981
1	22787	234	8843
1	22828	234.5	9609
1	22878	235	9697
1	22949	235.5	8805
1	22993	236	8687
1	23037	236.5	9637
1	23089	237	9774
1	23145	237.5	8347
1	23190	238	8199
1	23259	238.5	8210
1	23294	239	8100
1	23343	239.5	8560
1	23373	240	9139
1	23425	240.5	9201
1	23476	241	8959
1	23520	241.5	8717
1	23569	242	8684
1	23619	242.5	9106
1	23661	243	9528
1	23667	243.101259617128	9614
1	23673	243.17786156272	9678
1	23676	243.185094462079	9684
1	23683	243.20339000481	9700
1	23692	243.324300527649	9781
1	23699	243.39841466723	9715
1	23704	243.430929235129	9687
1	23711	243.5	9626
1	23714	243.55	9581
1	23719	243.665195819102	9480
1	23724	243.69032948182	9457
1	23729	243.752009652918	9403
1	23734	243.780266399144	9378
1	23739	243.82385165668	9339
1	23744	243.850545176453	9316
1	23749	243.900799572041	9271
1	23754	243.958323045103	9221
1	23758	244	9184
1	23806	244.5	8742
1	23858	245	8300
1	23917	245.5	8514
1	23972	246	8825
1	24083	246.5	9135
1	24121	247	9446
1	24176	247.5	9757
1	24179	247.55	9788
1	24184	247.596658901329	9817
1	24189	247.622524521326	9833
1	24194	247.646802364814	9848
1	24199	247.665519923554	9859
1	24202	247.672620035127	9864
1	24207	247.679716547698	9868
1	24214	247.735011880725	9902
1	24220	247.83833585795	9950
1	24225	247.927872018823	9775
1	24231	247.956521895758	9719
1	24236	247.987677712385	9658
1	24240	248	9634
1	24243	248.05	9537
1	24248	248.104476407344	9430
1	24254	248.350941950966	8949
1	24259	248.40429621849	8845
1	24263	248.412210294239	8830
1	24270	248.466301474487	8724
1	24275	248.475732300221	8706
1	24279	248.5	8659
1	24329	249	9612
1	24334	249.05	9598
1	24335	249.05729318608	9596
1	24346	249.262061696291	9538
1	24349	249.269400761084	9536
1	24356	249.294149401706	9529
1	24361	249.337103850644	9517
1	24366	249.392373559684	9501
1	24371	249.439576190056	9488
1	24374	249.44695393036	9486
1	24380	249.5	9471
1	24423	250	9330
1	24477	250.5	9188
1	24507	251	9037
1	24536	251.5	8870
1	24584	252	9428
1	24650	252.5	9196
1	24716	253	8963
1	24781	253.5	8731
1	24841	254	8643
1	24886	254.5	9189
1	24929	255	8503
1	24996	255.5	8636
1	25048	256	9626
1	25053	256.097907718718	9765
1	25058	256.113620805965	9757
1	25064	256.189315863461	9719
1	25069	256.222695733088	9702
1	25074	256.361113780626	9634
1	25079	256.417685684913	9606
1	25084	256.431202739866	9599
1	25090	256.478533203924	9575
1	25094	256.5	9565
1	25097	256.55	9540
1	25104	256.75231277504	9439
1	25109	256.778593103516	9426
1	25115	256.847028622841	9392
1	25123	256.928714215864	9352
1	25127	257	9316
1	25188	257.5	9068
1	25253	258	8819
1	25313	258.5	8571
1	25362	259	8651
1	25398	259.5	8760
1	25442	260	8870
1	25463	260.5	8979
1	25528	261	9089
1	25587	261.5	9198
1	25644	262	9307
1	25673	262.5	9864
1	25681	262.62567088164	9767
1	25691	262.836258624032	9525
1	25694	262.843607705397	9516
1	25701	262.850963737343	9508
1	25704	262.85832595863	9500
1	25717	262.99520612777	9342
1	25718	263	9337
1	25782	263.5	8763
1	25830	264	9048
1	25874	264.5	8886
1	25931	265	8724
1	25966	265.5	9130
1	25998	266	9309
1	26028	266.5	9426
1	26103	267	9544
1	26106	267.05	9556
1	26111	267.0613576869	9558
1	26116	267.099698828227	9568
1	26121	267.159663541761	9582
1	26128	267.268776518384	9607
1	26133	267.456070996185	9651
1	26138	267.47946264729	9657
1	26142	267.5	9662
1	26145	267.55	9674
1	26150	267.561230875689	9676
1	26157	267.766638559374	9725
1	26162	267.87371412223	9750
1	26168	268	9780
1	26171	268.069305557918	9796
1	26174	268.076451331703	9798
1	26181	268.13653086968	9812
1	26187	268.239559758107	9836
1	26192	268.28186176868	9846
1	26197	268.295655996262	9849
1	26202	268.333300006076	9858
1	26207	268.397140550733	9873
1	26212	268.5	9897
1	26276	269	9087
1	26322	269.5	8332
1	26367	270	8142
1	26416	270.5	8195
1	26483	271	8672
1	26523	271.5	9305
1	26579	272	9937
1	26586	272.168363818428	9702
1	26593	272.330051198907	9309
1	26598	272.474792413259	8957
1	26603	272.5	8896
1	26631	273	8639
1	26687	273.5	8553
1	26740	274	8927
1	26788	274.5	8091
1	26832	275	8169
1	26869	275.5	8247
1	26900	276	8325
1	26951	276.5	8402
1	26983	277	8480
1	27018	277.5	8558
1	27082	278	9249
1	27128	278.5	9759
1	27177	279	9701
1	27212	279.5	9643
1	27243	280	9586
1	27298	280.5	9528
1	27342	281	9470
1	27382	281.5	9412
1	27440	282	9354
1	27494	282.5	9297
1	27546	283	9239
1	27588	283.5	9058
1	27613	284	8850
1	27664	284.5	8643
1	27714	285	8621
1	27755	285.5	8704
1	27815	286	8787
1	27855	286.5	8870
1	27904	287	8953
1	27944	287.5	9036
1	27998	288	9119
1	28042	288.5	9201
1	28122	289	9169
1	28164	289.5	8810
1	28194	290	8452
1	28230	290.5	8093
1	28279	291	8917
1	28297	291.5	8666
1	28377	292	8492
1	28417	292.5	8398
1	28474	293	8304
1	28550	293.5	9480
1	28608	294	9268
1	28675	294.5	9764
1	28705	295	9589
1	28754	295.5	9413
1	28823	296	9237
1	28904	296.5	8921
1	28952	297	8304
1	28992	297.5	9561
1	29058	298	9684
1	29094	298.5	8581
1	29139	299	9891
1	29142	299.054442914092	9886
1	29147	299.086029258206	9884
1	29153	299.218031169258	9872
1	29156	299.225121931008	9872
1	29164	299.353087412414	9861
1	29169	299.417278224921	9856
1	29174	299.5	9849
1	29179	299.555985404714	9461
1	29182	299.563384199767	9410
1	29193	299.794662329875	8353
1	29198	299.834466597862	8373
1	29203	299.858713218066	8386
1	29208	299.927680750493	8421
1	29212	300	8458
1	29249	300.5	8715
1	29305	301	8971
1	29353	301.5	9228
1	29416	302	9489
1	29422	302.122710681619	9748
1	29428	302.154663942826	9768
1	29435	302.257659043924	9770
1	29441	302.311023128387	9772
1	29446	302.335092893171	9772
1	29449	302.342256216953	9773
1	29454	302.349418807764	9773
1	29460	302.5	9776
1	29465	302.55	9777
1	29466	302.557159660428	9778
1	29473	302.65501127171	9780
1	29478	302.720388902085	9781
1	29484	302.779057794339	9783
1	29489	302.791524433784	9783
1	29492	302.798679703129	9783
1	29499	302.868199112983	9785
1	29504	302.896685754643	9786
1	29511	302.948086854738	9785
1	29515	303	9782
1	29519	303.179302299212	9769
1	29524	303.217396974323	9766
1	29529	303.286012992762	9761
1	29535	303.373555024736	9755
1	29540	303.384086830804	9754
1	29547	303.5	9746
1	29594	304	9716
1	29603	304.053094612319	9701
1	29605	304.060310363273	9699
1	29609	304.067527602164	9697
1	29614	304.074746329605	9695
1	29623	304.121718154017	9681
1	29627	304.128948812007	9679
1	29633	304.136180964089	9677
1	29640	304.164097323448	9669
1	29643	304.171336955261	9667
1	29654	304.21585043859	9654
1	29660	304.227238661752	9650
1	29663	304.228578084877	9650
1	29671	304.265226050858	9639
1	29679	304.314355044214	9625
1	29686	304.356036064908	9613
1	29692	304.398984562756	9601
1	29699	304.5	9571
1	29703	304.55	9557
1	29709	304.641845298019	9530
1	29714	304.67449471585	9521
1	29719	304.70754669751	9511
1	29722	304.714906596574	9509
1	29730	304.762761462496	9495
1	29736	304.778514761642	9490
1	29741	304.859804666179	9467
1	29746	305	9426
1	29791	305.5	8285
1	29839	306	9001
1	29895	306.5	8886
1	29940	307	8772
1	29997	307.5	8991
1	30056	308	9145
1	30088	308.5	9215
1	30152	309	9158
1	30179	309.5	9101
1	30236	310	9044
1	30300	310.5	8988
1	30328	311	8933
1	30362	311.5	8888
1	30417	312	8843
1	30468	312.5	8797
1	30509	313	8752
1	30557	313.5	8707
1	30578	314	8692
1	30635	314.5	8783
1	30690	315	9567
1	30755	315.5	8834
1	30790	316	8832
1	30844	316.5	8830
1	30889	317	8828
1	30927	317.5	8822
1	30988	318	8817
1	31068	318.5	8811
1	31116	319	8806
1	31151	319.5	8800
1	31190	320	8823
1	31232	320.5	8906
1	31291	321	8988
1	31338	321.5	9071
1	31359	322	9220
1	31403	322.5	8681
1	31460	323	9191
1	31497	323.5	9701
1	31501	323.55	8684
1	31508	323.600517855092	8660
1	31513	323.640297746034	8671
1	31519	323.686824541912	8684
1	31525	323.746287089161	8701
1	31530	323.756642304153	8704
1	31533	323.764684583565	8706
1	31541	323.794517869683	8715
1	31547	323.922448152329	8751
1	31550	323.930447238148	8753
1	31557	323.977330465543	8766
1	31561	324	8772
1	31588	324.5	9156
1	31669	325	9860
1	31677	325.209023696832	9560
1	31685	325.408511864118	9199
1	31690	325.45638370471	9112
1	31694	325.5	9033
1	31733	326	9739
1	31737	326.201839542651	9676
1	31741	326.209073937029	9674
1	31748	326.218608393991	9671
1	31753	326.294868617741	9647
1	31759	326.317355700687	9640
1	31765	326.5	9583
1	31821	327	9428
1	31887	327.5	9272
1	31945	328	9252
1	31981	328.5	9437
1	32018	329	9256
1	32061	329.5	9299
1	32110	330	9766
1	32178	330.5	9949
1	32181	330.55	9949
1	32188	330.664054347292	9950
1	32193	330.701820600703	9950
1	32198	330.72526802646	9950
1	32203	330.809180340963	9950
1	32209	330.878065263689	9951
1	32214	330.885099732587	9951
1	32217	330.892134201485	9951
1	32224	330.914250444111	9951
1	32230	331	8632
1	32299	331.5	9130
1	32337	332	9628
1	32382	332.5	9582
1	32421	333	9217
1	32494	333.5	9137
1	32539	334	9067
1	32585	334.5	9067
1	32653	335	9067
1	32696	335.5	8816
1	32731	336	9157
1	32785	336.5	9497
1	32854	337	9838
1	32863	337.055665675303	9871
1	32864	337.062757155396	9874
1	32876	337.421895316985	9848
1	32881	337.433765811459	9845
1	32887	337.5	9825
1	32898	338	9329
1	32940	338.5	8859
1	32985	339	8845
1	33040	339.5	8831
1	33076	340	8815
1	33141	340.5	8798
1	33231	341	8780
1	33277	341.5	8847
1	33328	342	9100
1	33385	342.5	8721
1	33446	343	8883
1	33478	343.5	9040
1	33544	344	9134
1	33583	344.5	9227
1	33587	344.66871100809	9258
1	33596	344.870516453376	9289
1	33602	344.898021129375	9269
1	33607	345	9197
1	33651	345.5	8848
1	33692	346	8538
1	33740	346.5	8227
1	33790	347	8955
1	33831	347.5	9156
1	33866	348	9426
1	33938	348.5	9695
1	33946	349	8426
1	33995	349.5	8185
1	34042	350	8863
1	34090	350.5	8961
1	34128	351	8795
1	34179	351.5	8629
1	34205	352	8463
1	34248	352.5	8296
1	34316	353	8721
1	34378	353.5	8734
1	34483	354	8746
1	34534	354.5	8758
1	34570	355	8899
1	34627	355.5	9039
1	34651	356	9171
1	34697	356.5	9303
1	34733	357	8912
1	34776	357.5	9201
1	34823	358	9154
1	34885	358.5	9057
1	34933	359	8959
1	34966	359.5	8898
1	35009	360	8837
1	35078	360.5	8776
1	35130	361	8714
1	35174	361.5	8653
1	35225	362	8592
1	35273	362.5	8531
1	35307	363	8603
1	35353	363.5	9654
1	35359	363.607421306378	9876
1	35364	363.647255210167	9959
1	35370	363.681298564688	9941
1	35373	363.688340109804	9937
1	35382	363.863754515459	9829
1	35385	363.870876297939	9825
1	35392	363.956203765815	9772
1	35396	364	9745
1	35401	364.05	9714
1	35402	364.057206094297	9710
1	35411	364.162317984493	9604
1	35416	364.182811816594	9564
1	35423	364.207522288511	9515
1	35429	364.238029758247	9455
1	35435	364.363164663098	9208
1	35439	364.5	8938
1	35497	365	9124
1	35560	365.5	9282
1	35622	366	9780
1	35628	366.051725066161	9735
1	35631	366.058915615724	9728
1	35641	366.158602869443	9641
1	35646	366.196863315618	9607
1	35653	366.225147778961	9583
1	35662	366.327210977376	9493
1	35667	366.383390911678	9444
1	35673	366.419536119548	9412
1	35676	366.426973433615	9406
1	35685	366.5	9342
1	35736	367	9121
1	35797	367.5	9323
1	35846	368	9525
1	35891	368.5	9636
1	35894	368.57817154809	9647
1	35899	368.60163100351	9650
1	35906	368.713495788404	9666
1	35911	368.814269714415	9681
1	35916	368.933758921553	9698
1	35921	369	9707
1	35964	369.5	9779
1	35971	369.611620603872	9795
1	35976	369.643219749283	9799
1	35984	369.744923653239	9814
1	35990	369.792173244078	9820
1	35998	369.803070103089	9822
1	36003	369.845124328828	9828
1	36013	369.950876021293	9833
1	36017	370	9812
1	36020	370.011506827478	9808
1	36023	370.018643858473	9805
1	36028	370.025783073159	9802
1	36035	370.033416218733	9798
1	36038	370.040560533899	9795
1	36046	370.09758911203	9772
1	36050	370.104752435812	9769
1	36055	370.111917959407	9766
1	36062	370.121959891699	9762
1	36068	370.177441588433	9739
1	36073	370.208362460017	9726
1	36079	370.2304496446	9717
1	36084	370.260776726217	9704
1	36090	370.294447738534	9690
1	36095	370.316831281135	9681
1	36100	370.339544739042	9671
1	36106	370.427266942643	9635
1	36109	370.434532121678	9632
1	36117	370.5	9605
1	36172	371	9397
1	36216	371.5	9244
1	36258	372	9160
1	36320	372.5	9121
1	36380	373	9135
1	36443	373.5	9150
1	36492	374	8982
1	36554	374.5	8472
1	36587	375	8344
1	36619	375.5	8344
1	36678	376	8486
1	36703	376.5	9428
1	36708	376.615871916923	9675
1	36713	376.638711044892	9724
1	36719	376.66630553799	9782
1	36727	376.758117575056	9942
1	36732	376.7696524385	9916
1	36737	376.826181737798	9791
1	36742	376.846387516601	9746
1	36748	376.938359202236	9541
1	36751	376.945695959389	9525
1	36758	376.973329657143	9464
1	36761	376.980726106847	9447
1	36767	377	9404
1	36831	377.5	9102
1	36872	378	9157
1	36909	378.5	9212
1	36965	379	9267
1	37026	379.5	9322
1	37069	380	9263
1	37127	380.5	9168
1	37177	381	9073
1	37204	381.5	8978
1	37260	382	8211
1	37319	382.5	8473
1	37381	383	8735
1	37449	383.5	8996
1	37487	384	9258
1	37554	384.5	8795
1	37588	385	8504
1	37651	385.5	9377
1	37694	386	9249
1	37744	386.5	8810
1	37781	387	8586
1	37842	387.5	8860
1	37879	388	9134
1	37953	388.5	9179
1	37984	389	9106
1	38039	389.5	9033
1	38132	390	9048
1	38172	390.5	9085
1	38257	391	9125
1	38286	391.5	9361
1	38328	392	9597
1	38379	392.5	9832
1	38384	392.55	9856
1	38385	392.557102272727	9859
1	38392	392.574819638349	9868
1	38398	392.704525589281	9929
1	38404	392.726319218102	9939
1	38412	392.775495166783	9902
1	38415	392.782564445717	9897
1	38423	392.809235355091	9876
1	38428	392.823372618722	9865
1	38433	392.831814537363	9859
1	38438	392.904050658793	9803
1	38443	392.96112596516	9759
1	38447	393	9729
1	38508	393.5	8437
1	38600	394	8358
1	38637	394.5	8280
1	38706	395	8158
1	38761	395.5	8508
1	38781	396	8926
1	38832	396.5	9343
1	38881	397	9749
1	38922	397.5	9557
1	38961	398	9365
1	38994	398.5	9173
1	39058	399	8980
1	39112	399.5	8788
1	39145	400	8596
2	962	10	9370
2	1009	10.5	9425
2	1062	11	9481
2	1113	11.5	9536
2	1186	12	9591
2	1238	12.5	9646
2	1290	13	9701
2	1296	13.113197380666	9714
2	1303	13.296334280079	9734
2	1308	13.364710757891	9742
2	1313	13.400268199538	9746
2	1318	13.436050963198	9750
2	1323	13.5	9757
2	1326	13.55	9762
2	1334	13.779038950984	9787
2	1340	13.851173265019	9795
2	1345	13.858584863861	9796
2	1350	13.879766071857	9799
2	1355	13.967175185371	9808
2	1359	14	9812
2	1362	14.068030517644	9819
2	1369	14.099873867441	9823
2	1374	14.130174992306	9826
2	1379	14.197691913317	9834
2	1386	14.325461877081	9848
2	1391	14.342706505645	9850
2	1396	14.394938655225	9855
2	1402	14.417482985769	9858
2	1406	14.5	9867
2	1409	14.55	9872
2	1417	14.747435039951	9666
2	1422	14.81819801597	9366
2	1428	14.871469700596	9140
2	1433	14.948984256724	8811
2	1438	15	8594
2	1491	15.5	8109
2	1554	16	8226
2	1642	16.5	8334
2	1686	17	8442
2	1725	17.5	8550
2	1774	18	8658
2	1791	18.5	8791
2	1847	19	9299
2	1901	19.5	9806
2	1907	19.719821774163	8321
2	1912	19.79154808814	8455
2	1917	19.819584442125	8507
2	1922	19.855842386436	8575
2	1927	19.888533814125	8636
2	1932	19.965353866354	8780
2	1935	19.973326531502	8795
2	1941	20	8844
2	1985	20.5	9388
2	2027	21	9084
2	2098	21.5	8537
2	2135	22	8324
2	2179	22.5	8445
2	2217	23	8566
2	2250	23.5	8686
2	2311	24	8765
2	2371	24.5	8553
2	2415	25	8827
2	2478	25.5	9440
2	2508	26	9472
2	2516	26.057147447204	9184
2	2517	26.064769398424	9145
2	2525	26.088656415199	9025
2	2534	26.153930681216	8695
2	2543	26.296065771466	9780
2	2548	26.314402065575	9743
2	2553	26.323257827548	9725
2	2556	26.330455770993	9710
2	2563	26.340130945358	9690
2	2575	26.425353952693	9518
2	2580	26.5	9366
2	2624	27	8352
2	2684	27.5	8184
2	2732	28	8149
2	2778	28.5	8204
2	2835	29	8281
2	2887	29.5	8358
2	2955	30	9522
2	3023	30.5	9334
2	3079	31	9191
2	3151	31.5	9133
2	3186	32	8992
2	3239	32.5	8744
2	3274	33	8496
2	3308	33.5	8627
2	3345	34	8911
2	3380	34.5	9196
2	3420	35	9635
2	3448	35.5	9583
2	3510	36	9223
2	3563	36.5	8862
2	3602	37	8632
2	3636	37.5	8405
2	3698	38	8178
2	3763	38.5	8018
2	3812	39	8026
2	3887	39.5	8034
2	3945	40	8041
2	4000	40.5	8049
2	4055	41	8057
2	4110	41.5	8065
2	4169	42	8221
2	4226	42.5	8760
2	4294	43	9299
2	4346	43.5	9784
2	4394	44	9297
2	4439	44.5	8810
2	4494	45	8405
2	4533	45.5	8033
2	4577	46	8426
2	4605	46.5	8820
2	4650	47	9275
2	4692	47.5	9465
2	4771	48	9655
2	4780	48.092413099099	9627
2	4786	48.123188718609	9617
2	4792	48.169296473252	9601
2	4799	48.328247768986	9547
2	4804	48.396664501601	9524
2	4807	48.404014354604	9522
2	4815	48.459330585593	9503
2	4819	48.5	9490
2	4879	49	9321
2	4970	49.5	8997
2	5014	50	8442
2	5056	50.5	8384
2	5091	51	8327
2	5147	51.5	8269
2	5191	52	8679
2	5246	52.5	9179
2	5278	53	9206
2	5329	53.5	8285
2	5349	54	8652
2	5385	54.5	9020
2	5428	55	9139
2	5477	55.5	9246
2	5541	56	8797
2	5597	56.5	8850
2	5639	57	9009
2	5692	57.5	8926
2	5716	58	8810
2	5787	58.5	8694
2	5835	59	8578
2	5875	59.5	8462
2	5908	60	8346
2	5959	60.5	8571
2	6020	61	8980
2	6045	61.5	9036
2	6108	62	9141
2	6155	62.5	9385
2	6203	63	9422
2	6206	63.073494562336	9730
2	6212	63.092598143299	9702
2	6217	63.139671545114	9624
2	6222	63.149300591555	9608
2	6228	63.16923622897	9575
2	6234	63.285639121563	9382
2	6238	63.293100217278	9370
2	6245	63.347962040373	9279
2	6253	63.422304230816	9249
2	6258	63.44367417771	9249
2	6261	63.451242563481	9249
2	6268	63.481144683811	9249
2	6272	63.5	9249
2	6345	64	9249
2	6397	64.5	9249
2	6444	65	8883
2	6489	65.5	8753
2	6517	66	9101
2	6569	66.5	9450
2	6602	67	9108
2	6662	67.5	8580
2	6693	68	8489
2	6732	68.5	8428
2	6779	69	8689
2	6809	69.5	8949
2	6871	70	9210
2	6922	70.5	9470
2	6986	71	9202
2	7053	71.5	9376
2	7106	72	9551
2	7142	72.5	9725
2	7179	73	9899
2	7184	73.04923980087	9916
2	7190	73.073088545665	9925
2	7196	73.093904278654	9932
2	7203	73.162335747152	9956
2	7208	73.175751690652	9960
2	7211	73.182779803102	9963
2	7221	73.335649701112	9205
2	7226	73.391724526093	9364
2	7231	73.413923276878	9427
2	7238	73.452887920486	9537
2	7243	73.483860127782	9625
2	7247	73.5	9670
2	7251	73.55	9573
2	7256	73.564058377266	9538
2	7261	73.580399450847	9496
2	7266	73.713193084739	9157
2	7271	73.756549218991	9046
2	7278	73.790551336582	9033
2	7283	73.818076414741	9077
2	7291	73.976124298498	9330
2	7295	74	9368
2	7347	74.5	9301
2	7406	75	8932
2	7417	75.5	8564
2	7464	76	8876
2	7494	76.5	8809
2	7546	77	8743
2	7608	77.5	8655
2	7662	78	8155
2	7694	78.5	9058
2	7723	79	8986
2	7774	79.5	9110
2	7835	80	9233
2	7894	80.5	9356
2	7919	81	9479
2	7995	81.5	9364
2	8059	82	9173
2	8100	82.5	8983
2	8162	83	8793
2	8217	83.5	8603
2	8246	84	8413
2	8287	84.5	8317
2	8327	85	8354
2	8369	85.5	9112
2	8498	86	9681
2	8540	86.5	9447
2	8612	87	8486
2	8658	87.5	8305
2	8686	88	8370
2	8737	88.5	8453
2	8813	89	8537
2	8879	89.5	8661
2	8924	90	8805
2	8959	90.5	8920
2	9003	91	9014
2	9061	91.5	9107
2	9105	92	9201
2	9145	92.5	9294
2	9172	93	9388
2	9205	93.5	9201
2	9255	94	8761
2	9313	94.5	8326
2	9360	95	9172
2	9412	95.5	9826
2	9419	95.557980620935	9818
2	9422	95.565110382597	9818
2	9427	95.572240144259	9817
2	9430	95.579370632188	9816
2	9441	95.696269539747	9801
2	9446	95.74665954983	9794
2	9452	95.780596925091	9790
2	9457	95.79758303483	9788
2	9463	95.817634759728	9785
2	9470	95.872079534924	9778
2	9478	96	9762
2	9483	96.05	9755
2	9484	96.057175807278	9754
2	9491	96.132636974051	9745
2	9497	96.356129436497	9716
2	9505	96.412777911621	9668
2	9512	96.5	9497
2	9583	97	8514
2	9620	97.5	8686
2	9661	98	8658
2	9716	98.5	8629
2	9788	99	8600
2	9867	99.5	8572
2	9924	100	9285
2	9974	100.5	8997
2	10038	101	8696
2	10088	101.5	8395
2	10144	102	8094
2	10174	102.5	8405
2	10224	103	8785
2	10283	103.5	9165
2	10345	104	9480
2	10402	104.5	8800
2	10448	105	8465
2	10502	105.5	9364
2	10556	106	8674
2	10605	106.5	8629
2	10630	107	9325
2	10679	107.5	9621
2	10729	108	9646
2	10734	108.05	9648
2	10739	108.076588279181	9650
2	10744	108.163011775481	9654
2	10749	108.193804278355	9656
2	10754	108.216197462056	9657
2	10759	108.248539832568	9658
2	10765	108.380225855495	9665
2	10771	108.480135139138	9670
2	10776	108.5	9671
2	10779	108.55183082714	9673
2	10784	108.577511136168	9675
2	10789	108.614855017629	9676
2	10794	108.629108950205	9677
2	10799	108.64755098657	9678
2	10802	108.654783885929	9678
2	10810	108.702639538586	9681
2	10817	108.827900954374	9687
2	10822	108.840908355919	9688
2	10830	108.991371696035	9695
[...]
23	29957	307.248595345101	0.73900445499029
23	30055	307.987599800091	0.55895739720434
23	30093	308.546557197295	1.0263212538081
23	30186	309.572878451103	0.55837282414016
23	30265	310.131251275243	0.5785309012101
23	30319	310.709782176453	0.32466061734193
23	30331	311.034442793795	4.2615685077941
23	30730	315.296011301589	0.517538354055
23	30770	315.813549655644	0.27882963253486
23	30807	316.092379288179	4.630933818017
23	31260	320.723313106196	0.84543106870632
23	31345	321.568744174902	0.58975630804491
23	31377	322.158500482947	1.425492140159
23	31506	323.583992623106	0.5183302827941
23	31569	324.1023229059	0.26497494524904
23	31582	324.367297851149	0.67788637243832
23	31672	325.045184223587	0.13278845117369
23	31675	325.177972674761	1.3512587130827
23	31770	326.529231387844	0.5754570948023
23	31838	327.104688482646	0.84352752051243
23	31936	327.948216003158	0.021864909637454
23	31939	327.970080912795	0.60230434367264
23	31989	328.572385256468	0.33861933965901
23	32007	328.911004596127	0.45233368372738
23	32051	329.363338279854	0.5852866115323
23	32108	329.948624891386	4.746309517976
23	32608	334.694934409362	0.20672061599297
23	32629	334.901655025355	1.6139552336879
23	32791	336.515610259043	0.74411958513031
23	32874	337.259729844173	0.98503870975712
23	32911	338.24476855393	0.027455464941022
23	32917	338.272224018871	1.3577046061901
23	33064	339.629928625061	0.6472881294183
23	33115	340.277216754479	0.0081198671748602
23	33118	340.285336621654	1.0132907083054
23	33269	341.298627329959	0.59914789807117
23	33317	341.89777522803	1.408230117987
23	33466	343.306005346017	0.72617607225663
23	33545	344.032181418274	0.6548199859832
23	33592	344.687001404257	0.91209028285143
23	33653	345.599091687108	0.11524233257907
23	33659	345.714334019687	1.0228765555257
23	33757	346.737210575213	1.9962373149076
23	33942	348.733447890121	0.17021467250113
23	33944	348.903662562622	1.5468095761447
23	34083	350.450472138767	0.56602689336054
23	34129	351.016499032128	0.033439875726896
23	34130	351.049938907855	0.34007282905863
23	34165	351.390011736914	0.47363325734462
23	34198	351.863644994259	0.090785769099708
23	34199	351.954430763359	1.8265866338605
23	34445	353.78101739722	0.094352484795462
23	34465	353.875369882015	1.0511333437237
23	34566	354.926503225739	0.17500759288793
23	34583	355.101510818627	0.4986761719883
23	34636	355.600186990615	0.11180903654053
23	34639	355.711996027156	0.47975445988931
23	34670	356.191750487045	0.27881425264275
23	34696	356.470564739688	1.0088564673468
23	34774	357.479421207035	0.0094297455291515
23	34775	357.488850952564	0.27731784998994
23	34800	357.766168802554	0.57459928934381
23	34881	358.340768091898	0.83765261516914
23	34946	359.178420707067	3.0747713588692
23	35239	362.253192065936	2.2815816397705
23	35441	364.534773705707	0.30854419027933
23	35486	364.843317895986	2.6218223263402
23	35792	367.465140222326	0.63031172488637
23	35854	368.095451947212	0.85270331730344
23	35920	368.948155264515	0.77376400468018
23	35982	369.721919269195	0.078639366660445
23	35995	369.800558635855	0.11981330170305
23	36010	369.920371937558	0.67106998074287
23	36130	370.591441918301	0.86018950827604
23	36213	371.451631426577	0.044944678907242
23	36215	371.496576105484	1.0401903620623
23	36323	372.536766467546	0.56378927749546
23	36403	373.100555745041	0.62075277463987
23	36462	373.721308519681	0.74260640570068
23	36553	374.463914925382	0.3992392274992
23	36580	374.863154152881	1.852328525256
23	36723	376.715482678137	1.2686556552804
23	36869	377.984138333417	1.5897698638956
23	37029	379.573908197313	0.4210678388266
23	37068	379.99497603614	4.9306444668776
23	37585	384.925620503018	0.35923964885634
23	37607	385.284860151874	1.10915280706
23	37727	386.394012958934	1.3745705658817
23	37867	387.768583524816	2.8208554080057
23	38177	390.589438932822	0.45157763164851
23	38258	391.041016564471	1.6618504877112
23	38396	392.702867052182	2.5752290277002
23	38749	395.278096079882	1.8137552924469
23	38888	397.091851372329	0.18171281510329
23	38896	397.273564187432	1.3113902506107
23	39011	398.584954438043	2.7772557168719
24	1414	14.694997286335	0.43967405442543
24	1456	15.13467134076	0.87391368060988
24	1558	16.00858502137	2.458953234254
24	1790	18.467538255624	1.0831760170536
24	1904	19.550714272678	0.14381749864963
24	1905	19.694531771328	0.64787444522696
24	1960	20.342406216555	0.91374390912158
24	2083	21.256150125677	0.42501177435329
24	2106	21.68116190003	2.2551838808788
24	2305	23.936345780909	0.7688490026619
24	2384	24.705194783571	1.2023761550254
24	2505	25.907570938596	0.33631747386842
24	2539	26.243888412464	0.026738453737199
24	2540	26.270626866201	0.79739014047039
24	2635	27.068017006671	1.0308922230364
24	2739	28.098909229707	1.6038809522826
24	2928	29.70279018199	0.019167659521677
24	2929	29.721957841512	1.1039074314704
24	3057	30.825865272982	0.95517338546873
24	3173	31.781038658451	1.3620390347451
24	3279	33.143077693196	1.5010455147374
24	3398	34.644123207933	0.5352208710624
24	3440	35.179344078995	1.3340835296095
24	3567	36.513427608604	1.8451455877055
24	3741	38.358573196309	3.3461597666097
24	4139	41.704732962919	0.13378121731505
24	4150	41.838514180234	1.6354305130042
24	4344	43.473944693238	1.4106403630445
24	4484	44.884585056283	0.25956152164633
24	4509	45.144146577929	0.19169675516239
24	4526	45.335843333091	0.1609628772843
24	4532	45.496806210375	1.0284868503347
24	4606	46.52529306071	0.30040318238211
24	4639	46.825696243092	1.1789525800171
24	4772	48.004648823109	1.4368942026365
24	4958	49.441543025746	0.23145140511917
24	4996	49.672994430865	1.9083310872842
24	5164	51.581325518149	1.3021846350405
24	5274	52.88351015319	0.45552742292915
24	5317	53.339037576119	1.1846688142406
24	5386	54.52370639036	1.0982746432218
24	5486	55.621981033582	0.56586821992889
24	5575	56.187849253511	0.62259414149864
24	5618	56.81044339501	0.30207856352281
24	5651	57.112521958533	0.28710848763945
24	5677	57.399630446172	2.894239018021
24	5931	60.293869464193	0.47481906243599
24	5989	60.768688526629	1.1819955072578
24	6100	61.950684033887	0.44241683776017
24	6147	62.393100871647	0.45454931891953
24	6192	62.847650190567	0.22646036263016
24	6207	63.074110553197	0.29202058535558
24	6249	63.366131138553	1.4689553163513
24	6434	64.835086454904	0.32887675279091
24	6473	65.163963207695	1.4887143856679
24	6583	66.652677593363	0.74059383642616
24	6648	67.393271429789	1.0636546405962
24	6730	68.456926070385	2.3252868339298
24	6971	70.782212904315	0.10366043279066
24	6978	70.885873337106	2.3418059020736
24	7217	73.22767923918	0.10102625884345
24	7219	73.328705498023	0.17695610968153
24	7250	73.505661607705	0.26730608724886
24	7276	73.772967694954	0.35599127566208
24	7314	74.128958970616	1.540569013254
24	7436	75.66952798387	0.01893631190737
24	7439	75.688464295777	0.036440956845967
24	7445	75.724905252623	0.4173503927332
24	7479	76.142255645356	0.61278315833401
24	7506	76.75503880369	0.71631084956748
24	7607	77.471349653257	0.66275855237338
24	7664	78.13410820563	0.19938836478075
24	7680	78.333496570411	0.38257680013063
24	7698	78.716073370542	2.4027359873877
24	7937	81.11880935793	3.3088835253282
24	8279	84.427692883258	0.045799947292815
24	8286	84.473492830551	0.79051522104153
24	8344	85.264008051593	0.45950411592172
24	8462	85.723512167515	0.83036033772336
24	8544	86.553872505238	0.41206628109016
24	8605	86.965938786328	0.56935441232993
24	8660	87.535293198658	1.6196347301959
24	8844	89.154927928854	1.0601953145557
24	8937	90.21512324341	3.0219480392146
24	9187	93.237071282625	1.2610668953184
24	9312	94.498138177943	0.89619174981765
24	9392	95.394329927761	0.99652273358377
24	9502	96.390852661345	0.70122360129927
24	9585	97.092076262644	0.22800043211589
24	9608	97.32007669476	2.5647648599224
24	9907	99.884841554682	0.2194257901292
24	9933	100.104267344811	0.075074174006745
24	9937	100.179341518818	1.8715023302867
24	10147	102.050843849105	1.6740708157717
24	10301	103.724914664877	0.34313596820716
24	10348	104.068050633084	0.50651879387211
24	10409	104.574569426956	0.80047788627469
24	10495	105.375047313231	0.023379542739996
24	10496	105.398426855971	0.22076592246664
24	10507	105.619192778438	0.61520895590748
24	10580	106.234401734345	0.81563957813097
24	10632	107.050041312476	0.31363213314067
24	10652	107.363673445617	2.0828179506439
24	10880	109.446491396261	0.53071900523094
24	10929	109.977210401492	1.2025960267008
24	11036	111.179806428193	3.3847585772752
24	11348	114.564565005468	1.0970666756907
24	11441	115.661631681159	0.37668555152446
24	11473	116.038317232683	1.0293998116844
24	11595	117.067717044367	0.35904213878779
24	11622	117.426759183155	1.6546686111387
24	11748	119.081427794294	0.8645233433949
24	11824	119.945951137689	0.97827579882918
24	11955	120.924226936518	0.15014531699878
24	11971	121.074372253517	0.22096165563113
24	11992	121.295333909148	0.16655150753998
24	12003	121.461885416688	0.96661869152468
24	12140	122.428504108213	0.12062524160867
24	12161	122.549129349822	1.2619321597628
24	12266	123.811061509585	0.42076903418356
24	12290	124.231830543769	0.59753499212284
24	12351	124.829365535892	0.8900862005824
24	12432	125.719451736474	0.79972053180049
24	12551	126.519172268274	0.002064370661587
24	12552	126.521236638936	0.11136726403573
24	12556	126.632603902972	3.4465875157536
24	12949	130.079191418726	1.7328147055348
24	13060	131.812006124261	1.9551261244179
24	13223	133.767132248679	0.19550659096755
24	13240	133.962638839647	0.46043680483943
24	13289	134.423075644486	0.10039243872885
24	13298	134.523468083215	2.2021118775762
24	13484	136.725579960791	2.4909005567922
24	13768	139.216480517583	0.69920832050737
24	13826	139.91568883809	1.5821694797552
24	13989	141.497858317845	0.19892737080419
24	14013	141.696785688649	0.23957348415343
24	14042	141.936359172802	0.56160576231797
24	14070	142.49796493512	0.99236575872442
24	14155	143.490330693844	4.5408052440417
24	14588	148.031135937886	2.8359861518048
24	14869	150.867122089691	0.7829032118118
24	14937	151.650025301503	2.0518178415507
24	15083	153.701843143054	0.21175914948661
24	15106	153.913602292541	0.34369635332662
24	15119	154.257298645868	0.25374506976215
24	15134	154.51104371563	0.90129391528681
24	15191	155.412337630917	0.75680430359851
24	15271	156.169141934516	0.54432891150694
24	15346	156.713470846023	1.3768623351454
24	15494	158.090333181168	0.50079110488677
24	15533	158.591124286055	1.0713025409
24	15605	159.662426826955	0.24098539849751
24	15622	159.903412225453	0.07284780326741
24	15629	159.97626002872	0.46009424076122
24	15675	160.436354269481	1.4939741345013
24	15792	161.930328403982	1.5469250630909
24	15934	163.477253467073	0.55150367927992
24	16007	164.028757146353	0.090216255147249
24	16010	164.1189734015	0.78864422907128
24	16107	164.907617630571	0.0022114824650703
24	16108	164.909829113036	0.38967957484725
24	16164	165.299508687883	0.63769673071544
24	16254	165.937205418598	0.69746982640828
24	16325	166.634675245006	0.2786331023127
24	16347	166.913308347319	1.4191716668678
24	16459	168.332480014187	1.7716304889801
24	16685	170.104110503167	0.33573195325522
24	16703	170.439842456422	0.013087224662335
24	16704	170.452929681084	0.26129694828606
24	16727	170.71422662937	1.243939162538
24	16829	171.958165791908	0.24326237809894
24	16843	172.201428170007	0.62928176437138
24	16905	172.830709934378	0.13888299362812
24	16922	172.969592928006	0.75121394833068
24	16977	173.720806876337	0.17549031122213
24	17003	173.896297187559	0.25206058943553
24	17032	174.148357776995	3.1601748860203
24	17331	177.308532663015	0.5094635773275
24	17384	177.817996240342	0.74674600786
24	17455	178.564742248202	0.36860803612323
24	17491	178.933350284325	2.0355456767714
24	17669	180.968895961096	1.8784569217655
24	17849	182.847352882862	0.014343611822061
24	17850	182.861696494684	0.94619426153017
24	17930	183.807890756214	0.29386985076195
24	17962	184.101760606976	0.14062126264717
24	17981	184.242381869623	0.23701520978002
24	18010	184.479397079403	0.51290908775787
24	18047	184.992306167161	1.5966678297238
24	18193	186.588973996885	2.9183480702779
24	18431	189.507322067163	1.036747706949
24	18551	190.544069774112	0.44460122537837
24	18591	190.98867099949	0.11285081626084
24	18594	191.101521815751	1.9186828718499
24	18775	193.020204687601	4.1020930957407
24	19195	197.122297783342	1.1439714823622
24	19278	198.266269265704	0.0077133535963422
24	19279	198.2739826193	0.42563441205148
24	19335	198.699617031351	0.07978549046651
24	19346	198.779402521818	3.8911892172735
24	19701	202.670591739091	0.90327891175312
24	19785	203.573870650844	0.66969492051196
24	19859	204.243565571356	0.021341669000509
24	19861	204.264907240357	0.60021525656953
24	19906	204.865122496927	0.86715030005066
24	20007	205.732272796978	0.22992400611357
24	20015	205.962196803092	1.1844831858359
24	20111	207.146679988928	2.0847152987308
24	20365	209.231395287659	0.36300440413605
24	20398	209.594399691795	1.438281901161
24	20571	211.032681592956	0.88520887666374
24	20654	211.91789046962	0.55867712065575
24	20723	212.476567590276	0.025339160955372
24	20730	212.501906751231	4.1017514687894
24	21193	216.60365822002	1.4240492266165
24	21320	218.027707446636	1.536770162383
24	21460	219.564477609019	0.57840377377262
24	21490	220.142881382792	0.59084662944018
24	21562	220.733728012232	1.8122246800499
24	21700	222.545952692282	0.20571318473858
24	21712	222.751665877021	5.2881247296081
24	22191	228.039790606629	1.736366380609
24	22375	229.776156987238	0.89037256484805
24	22467	230.666529552086	0.56651810619065
24	22508	231.233047658277	0.14435578748677
24	22536	231.377403445764	0.7711589101986
24	22625	232.148562355963	1.1613581055114
24	22724	233.309920461474	0.41517290763806
24	22771	233.725093369112	3.8587749080143
24	23148	237.583868277126	0.48501731725522
24	23192	238.068885594381	2.0975816350447
24	23398	240.166467229426	1.2333321209811
24	23506	241.399799350407	1.9450689312616
24	23696	243.344868281669	1.7837545334246
24	23885	245.128622815094	0.92474056271148
24	23985	246.053363377805	0.65734173890445
24	24100	246.710705116709	1.607263945392
24	24252	248.317969062101	0.46617650174654
24	24306	248.784145563848	1.4147091881407
24	24447	250.198854751989	4.1487862986853
24	24877	254.347641050674	0.040019514874955
24	24878	254.387660565549	0.28424401404152
24	24894	254.671904579591	0.023442162593833
24	24896	254.695346742185	0.53883627326766
24	24973	255.234183015453	2.6126667692375
24	25240	257.84684978469	0.095183037582624
24	25251	257.942032822273	0.018965354411358
24	25252	257.960998176684	0.301439627901
24	25286	258.262437804585	1.5689851925308
24	25426	259.831422997116	0.30779299851768
24	25449	260.139215995634	0.37954596121533
24	25466	260.518761956849	3.8050220379814
24	25860	264.32378399483	2.3850012454905
24	26065	266.70878524032	0.22497486266822
24	26102	266.933760102988	1.629010148057
24	26219	268.562770251045	0.45414349797611
24	26277	269.016913749021	2.5625231541937
24	26535	271.579436903215	1.4916391247187
24	26647	273.071076027934	1.6850318563572
24	26818	274.756107884291	0.16172219826826
24	26830	274.917830082559	0.37688421433784
24	26861	275.294714296897	1.5125375378966
24	26971	276.807251834794	1.1695016278856
24	27080	277.97675346268	0.7406399304006
24	27142	278.717393393081	0.1358840676564
24	27166	278.853277460737	0.18194380669387
24	27178	279.035221267431	1.4773792075242
24	27299	280.512600474955	0.49749715049356
24	27343	281.010097625449	0.68524779171804
24	27418	281.695345417167	0.20708425032232
24	27421	281.902429667489	1.2895874497844
24	27566	283.192017117273	0.25326462217148
24	27582	283.445281739444	0.86350039528516
24	27647	284.308782134729	3.5073362183197
24	27980	287.816118353049	0.9639987344029
24	28081	288.780117087452	0.022089883200136
24	28082	288.802206970652	1.5310954843819
24	28217	290.333302455034	0.7346670150558
24	28284	291.06796947009	0.057519463365696
24	28286	291.125488933456	1.0699167774418
24	28391	292.195405710898	0.48936231999092
24	28445	292.684768030889	1.946945755157
24	28685	294.631713786046	1.6221585710215
24	28850	296.253872357067	0.50749174265349
24	28934	296.76136409972	0.6615304535558
24	28985	297.422894553276	3.2078941238656
24	29264	300.630788677142	0.011079071763467
24	29265	300.641867748905	0.32942060628504
24	29303	300.97128835519	0.66001416475114
24	29376	301.631302519941	1.669403694743
24	29533	303.300706214684	0.18962289904295
24	29546	303.490329113727	0.57338799281005
24	29608	304.063717106537	4.7677442572192
24	30120	308.831461363756	1.0787262407006
24	30230	309.910187604457	1.293825823103
24	30343	311.20401342756	0.4554909917481
24	30384	311.659504419308	1.4212390930873
24	30516	313.080743512395	1.3773879856937
24	30633	314.458131498089	3.6632412009744
24	31012	318.121372699063	0.2665354679025
24	31052	318.387908166965	0.21524959759701
24	31075	318.603157764562	1.4326897741784
24	31191	320.03584753874	1.9052929502416
24	31358	321.941140488982	0.70008762335905
24	31422	322.641228112341	0.99967892331654
24	31514	323.640907035658	0.1436517099835
24	31539	323.784558745641	1.2562885250057
24	31671	325.040847270647	2.373320571098
24	31886	327.414167841745	0.36620863377908
24	31916	327.780376475524	0.7124305782309
24	31980	328.492807053755	3.3157478971422
24	32315	331.808554950897	0.00090222306082665
24	32316	331.809457173958	1.2732047157466
24	32424	333.082661889705	0.040118023567567
24	32425	333.122779913273	0.061931472949913
24	32438	333.184711386223	0.66927000394999
24	32528	333.853981390173	1.486589417964
24	32679	335.340570808137	0.27178677620853
24	32703	335.612357584346	3.7934258613122
24	33020	339.405783445658	1.6602100890288
24	33251	341.065993534687	0.63175168053391
24	33299	341.697745215221	0.36197155631365
24	33340	342.059716771535	0.97418794417099
24	33447	343.033904715706	0.20974448128438
24	33454	343.24364919699	1.5594645591906
24	33593	344.803113756181	0.077723082809
24	33600	344.88083683899	0.8896160953299
24	33670	345.77045293432	0.32228241076551
24	33701	346.092735345086	1.2234940387595
24	33815	347.316229383846	3.409458060408
24	34115	350.725687444254	0.22386105096209
24	34122	350.949548495216	2.5564183181861
24	34382	353.505966813402	0.35053678800919
24	34461	353.856503601411	0.19342304202463
24	34490	354.049926643436	0.77102407563944
24	34559	354.820950719075	0.82252851030624
24	34637	355.643479229381	1.2855917792049
24	34721	356.929071008586	1.7733347708792
24	34899	358.702405779465	0.16995933561021
24	34917	358.872365115075	0.48610203345879
24	34953	359.358467148534	1.124410363339
24	35075	360.482877511873	1.0973677775434
24	35184	361.580245289416	0.61862690288173
24	35233	362.198872192298	0.92426228263046
24	35325	363.123134474928	1.0778993872494
24	35421	364.201033862177	3.8874537730683
24	35853	368.088487635245	2.977356381902
24	36174	371.065844017147	3.3728779077365
24	36552	374.438721924884	0.099630004666494
24	36557	374.53835192955	1.3017368666694
24	36668	375.840088796219	0.91150966237242
24	36725	376.751598458591	2.3197351225496
24	36981	379.071333581141	0.63148868194099
24	37049	379.702822263082	0.010527525332926
24	37052	379.713349788415	2.6363555599883
24	37299	382.349705348403	0.48949562505167
24	37367	382.839200973455	0.10050730321371
24	37379	382.939708276669	0.4051681124685
24	37429	383.344876389137	0.050667824391983
24	37437	383.395544213529	0.39547500514541
24	37473	383.791019218674	0.76468179852956
24	37558	384.555701017204	2.1448087596557
24	37764	386.70050977686	0.11026853266299
24	37771	386.810778309523	2.0728173181838
24	37982	388.883595627707	1.1658847216272
24	38135	390.049480349334	0.12128791935148
24	38140	390.170768268685	0.27137072165627
24	38157	390.442138990341	1.6817965604144
24	38345	392.123935550755	0.62268557893382
24	38409	392.746621129689	0.31556510829077
24	38458	393.06218623798	0.66095247382854
24	38546	393.723138711809	1.0476162640535
24	38664	394.770754975862	0.98372595101264
24	38777	395.754480926875	0.90546094481904
24	38852	396.659941871694	0.61537260438181
24	38897	397.275314476076	1.1814623719697
24	38990	398.456776848046	0.17141433155207
24	39016	398.628191179598	2.7404127243163

