version 2
run Exponential-capacity-5-20210215-11:02:27-10772
attr configname Exponential-capacity
attr datetime 20210215-11:02:27
attr experiment Exponential-capacity
attr inifile aerocom.ini
attr iterationvars "$0=20, $1=3"
attr iterationvarsf 20,3-
attr measurement "$0=20, $1=3"
attr network Aerocom
attr processid 10772
attr repetition 0
attr replication #0
attr resultdir results
attr runnumber 5
attr seedset 0
param **.t 1s
param **.k 20ms
param **.X 0.4s
param **.m 3s
param **.tDistribution "\"exponential\""
param **.operationMode 0
param **.s "70 byte"
param **.dimPoolMax 10000
param **.dimPoolMin 8000
param **.nDL 1
param **.nA 1
param **.DLMaxCapacity 0
param **.trasmitting false

scalar Aerocom.aircraft[0].linkSelector responseTime:mean 0.037256397539515
attr "" ""
attr source computeResponseTime
scalar Aerocom.aircraft[0].linkSelector meanMalus:sum 3093.2000000004
attr "" ""
attr source computeMeanMalus
scalar Aerocom.aircraft[0].linkSelector waitingTime:mean 0.029436508832185
attr "" ""
attr source computeWaitingTime
scalar Aerocom.aircraft[0].linkSelector serviceTime:mean 0.0078183849457426
attr "" ""
attr source computeServiceTime
scalar Aerocom.aircraft[0].linkSelector queueLength:mean 1.4820382165605
attr "" ""
attr source computeQueueLength
scalar Aerocom.aircraft[0].dataLink[0] sentPackets:count 19624
attr source computeSentPackets
scalar Aerocom.aircraft[0].dataLink[0] actualCapacity:mean 8977.0455580866
attr "" ""
attr source computeActualCapacity
scalar Aerocom.controlTower receivedPackets:count 19624
attr source computeReceivedPackets

