file 2458936 1613553642                                         
version 2
run Exponential-capacity-11-20210217-10:20:41-1044
attr configname Exponential-capacity
attr datetime 20210217-10:20:41
attr experiment Exponential-capacity
attr inifile aerocom.ini
attr iterationvars "$0=35, $1=3.5"
attr iterationvarsf 35,3.5-
attr measurement "$0=35, $1=3.5"
attr network Aerocom
attr processid 1044
attr repetition 0
attr replication #0
attr resultdir results
attr runnumber 11
attr seedset 0
param **.t 3s
param **.k 35ms
param **.X 0.5s
param **.m 3.5s
param **.tDistribution "\"exponential\""
param **.operationMode 0
param **.s "70 byte"
param **.dimPoolMax 10000
param **.dimPoolMin 8000
param **.nDL 10
param **.nA 1
param **.DLMaxCapacity 0
param **.trasmitting false

vector 0 Aerocom.aircraft[0].packetGenerator arrivalTime:vector ETV
attr "" ""
attr source computeArrivalTime
vector 1 Aerocom.aircraft[0].linkSelector waitingTime:vector ETV
attr "" ""
attr source computeWaitingTime
vector 2 Aerocom.aircraft[0].linkSelector queueLength:vector ETV
attr "" ""
attr source computeQueueLength
vector 3 Aerocom.aircraft[0].dataLink[1] actualCapacity:vector ETV
attr "" ""
attr source computeActualCapacity
vector 4 Aerocom.aircraft[0].linkSelector serviceTime:vector ETV
attr "" ""
attr source computeServiceTime
vector 5 Aerocom.aircraft[0].linkSelector responseTime:vector ETV
attr "" ""
attr source computeResponseTime
vector 6 Aerocom.aircraft[0].dataLink[4] tDistribution:vector ETV
attr "" ""
attr source computeTDistribution
vector 7 Aerocom.aircraft[0].dataLink[6] tDistribution:vector ETV
attr "" ""
attr source computeTDistribution
vector 8 Aerocom.aircraft[0].dataLink[1] tDistribution:vector ETV
attr "" ""
attr source computeTDistribution
vector 9 Aerocom.aircraft[0].dataLink[0] actualCapacity:vector ETV
attr "" ""
attr source computeActualCapacity
vector 10 Aerocom.aircraft[0].dataLink[2] actualCapacity:vector ETV
attr "" ""
attr source computeActualCapacity
vector 11 Aerocom.aircraft[0].dataLink[3] actualCapacity:vector ETV
attr "" ""
attr source computeActualCapacity
vector 12 Aerocom.aircraft[0].dataLink[4] actualCapacity:vector ETV
attr "" ""
attr source computeActualCapacity
vector 13 Aerocom.aircraft[0].dataLink[5] actualCapacity:vector ETV
attr "" ""
attr source computeActualCapacity
vector 14 Aerocom.aircraft[0].dataLink[6] actualCapacity:vector ETV
attr "" ""
attr source computeActualCapacity
vector 15 Aerocom.aircraft[0].dataLink[7] actualCapacity:vector ETV
attr "" ""
attr source computeActualCapacity
vector 16 Aerocom.aircraft[0].dataLink[8] actualCapacity:vector ETV
attr "" ""
attr source computeActualCapacity
vector 17 Aerocom.aircraft[0].dataLink[9] actualCapacity:vector ETV
attr "" ""
attr source computeActualCapacity
vector 18 Aerocom.aircraft[0].dataLink[5] tDistribution:vector ETV
attr "" ""
attr source computeTDistribution
vector 19 Aerocom.aircraft[0].dataLink[8] tDistribution:vector ETV
attr "" ""
attr source computeTDistribution
vector 20 Aerocom.aircraft[0].dataLink[0] tDistribution:vector ETV
attr "" ""
attr source computeTDistribution
vector 21 Aerocom.aircraft[0].dataLink[2] tDistribution:vector ETV
attr "" ""
attr source computeTDistribution
vector 22 Aerocom.aircraft[0].dataLink[7] tDistribution:vector ETV
attr "" ""
attr source computeTDistribution
vector 23 Aerocom.aircraft[0].dataLink[9] tDistribution:vector ETV
attr "" ""
attr source computeTDistribution
vector 24 Aerocom.aircraft[0].dataLink[3] tDistribution:vector ETV
attr "" ""
attr source computeTDistribution
0	3586 445807 1476 60256 10.089882227233 399.938715992406 11034 1.937316e-006 0.358136874346 389.93503104393 27.464644176194
1	449393 349495 1477 60257 10.089882227233 399.938715992406 11034 0 0.513180681788 440.55727355538 144.76499760643
2	798888 303244 1477 60257 10.089882227233 399.938715992406 11034 0 23 13091 140721
3	1102132 48521 1477 60139 10.089882227233 399 1621 8083 9921 15317630 145014302268
4	1150653 488836 1477 60257 10.089882227233 399.938715992406 11034 0.0070063056751076 0.0087227414330218 81.833337876294 0.60828316059178
5	1639489 445861 1478 60258 10.097228223665 399.946275387654 11034 0.007006305675 0.520380846363 522.39061143147 151.76858290541
6	2085350 6474 1491 59928 10.203684607688 397.281470896017 155 0.010739517205868 10.933740481042 391.20523465692 1867.3384032852
7	2091824 5358 1502 60209 10.276687748401 399.582664491057 128 0.0046257705518035 21.866676562641 394.65348847132 2680.3533415531
8	2097182 4998 1523 60216 10.379485951627 399.598350968059 120 0.010023053548118 19.095471434865 392.76340000707 2407.0567308421
9	2102180 43551 1539 60139 10.5 399 1469 8066 9960 13832911 130570838595
10	2145731 23549 1539 60139 10.5 399 795 8018 9888 7480862 70525889882
11	2169280 34098 1539 60139 10.5 399 1127 8044 9933 10644654 100711790488
12	2203378 37016 1539 60139 10.5 399 1229 8023 9965 11412338 106380104742
13	2240394 31249 1539 60139 10.5 399 1031 8089 9986 9634137 90243759295
14	2271643 29369 1539 60139 10.5 399 973 8090 9977 9135483 85979842219
15	2301012 34293 1539 60257 10.5 399.938715992406 1127 8040 9987 10523784 98516067134
16	2335305 35750 1539 60139 10.5 399 1206 8032 9991 11664897 112925070757
17	2371055 48274 1539 60139 10.5 399 1576 8103 9934 14777768 138868518376
18	2419329 6226 1542 60155 10.512701937009 399.26724886852 146 0.0074565261417224 13.460148239681 393.83660967434 2049.2077779932
19	2425555 4693 1643 59394 11.360882962893 393.499445083393 110 0.00037077544349613 23.253607185995 395.47160748284 3033.4957189197
20	2430248 5675 1727 59836 11.986246086418 396.616178795411 133 0.039976272460222 11.530792426723 388.43385299836 2058.0400242859
21	2435923 5821 1738 59682 12.109370541993 395.436018372776 136 0.0061931119847609 15.274890465208 389.19202620404 2037.979323136
22	2441744 5603 1798 60138 12.313726549034 398.971737981676 131 0.029300814333314 15.865257109258 388.93846333758 2425.3017972606
23	2447347 5524 1901 60164 13.034736668212 399.363504255394 129 0.0077577452830852 19.513402438353 388.62563507912 2515.9534008334
24	2452871 6063 2735 60102 18.527692622347 398.597767503948 142 0.0056532962066554 13.09960706888 383.31012451243 1994.1847888339

