version 2
run Exponential-capacity-14-20210216-13:45:46-23388
attr configname Exponential-capacity
attr datetime 20210216-13:45:46
attr experiment Exponential-capacity
attr inifile aerocom.ini
attr iterationvars "$0=0.5, $1=50, $2=0.5, $3=0.5"
attr iterationvarsf 0.5,50,0.5,0.5-
attr measurement "$0=0.5, $1=50, $2=0.5, $3=0.5"
attr network Aerocom
attr processid 23388
attr repetition 2
attr replication #2
attr resultdir results
attr runnumber 14
attr seedset 2
param **.t 0.5s
param **.k 50ms
param **.X 0.5s
param **.m 0.5s
param **.tDistribution "\"exponential\""
param **.operationMode 0
param **.s "70 byte"
param **.dimPoolMax 10000
param **.dimPoolMin 8000
param **.nDL 10
param **.nA 1
param **.DLMaxCapacity 0
param **.trasmitting false

vector 0 Aerocom.aircraft[0].dataLink[0] actualCapacity:vector ETV
attr "" ""
attr source computeActualCapacity
vector 1 Aerocom.aircraft[0].dataLink[1] actualCapacity:vector ETV
attr "" ""
attr source computeActualCapacity
vector 2 Aerocom.aircraft[0].dataLink[2] actualCapacity:vector ETV
attr "" ""
attr source computeActualCapacity
vector 3 Aerocom.aircraft[0].dataLink[3] actualCapacity:vector ETV
attr "" ""
attr source computeActualCapacity
vector 4 Aerocom.aircraft[0].dataLink[4] actualCapacity:vector ETV
attr "" ""
attr source computeActualCapacity
vector 5 Aerocom.aircraft[0].dataLink[5] actualCapacity:vector ETV
attr "" ""
attr source computeActualCapacity
vector 6 Aerocom.aircraft[0].dataLink[6] actualCapacity:vector ETV
attr "" ""
attr source computeActualCapacity
vector 7 Aerocom.aircraft[0].dataLink[7] actualCapacity:vector ETV
attr "" ""
attr source computeActualCapacity
vector 8 Aerocom.aircraft[0].dataLink[8] actualCapacity:vector ETV
attr "" ""
attr source computeActualCapacity
vector 9 Aerocom.aircraft[0].dataLink[9] actualCapacity:vector ETV
attr "" ""
attr source computeActualCapacity
vector 10 Aerocom.aircraft[0].packetGenerator arrivalTime:vector ETV
attr "" ""
attr source computeArrivalTime
vector 11 Aerocom.aircraft[0].linkSelector waitingTime:vector ETV
attr "" ""
attr source computeWaitingTime
vector 12 Aerocom.aircraft[0].linkSelector queueLength:vector ETV
attr "" ""
attr source computeQueueLength
vector 13 Aerocom.aircraft[0].linkSelector serviceTime:vector ETV
attr "" ""
attr source computeServiceTime
vector 14 Aerocom.aircraft[0].linkSelector responseTime:vector ETV
attr "" ""
attr source computeResponseTime
vector 15 Aerocom.aircraft[0].dataLink[4] tDistribution:vector ETV
attr "" ""
attr source computeTDistribution
vector 16 Aerocom.aircraft[0].dataLink[9] tDistribution:vector ETV
attr "" ""
attr source computeTDistribution
vector 17 Aerocom.aircraft[0].dataLink[2] tDistribution:vector ETV
attr "" ""
attr source computeTDistribution
vector 18 Aerocom.aircraft[0].dataLink[1] tDistribution:vector ETV
attr "" ""
attr source computeTDistribution
vector 19 Aerocom.aircraft[0].dataLink[7] tDistribution:vector ETV
attr "" ""
attr source computeTDistribution
vector 20 Aerocom.aircraft[0].dataLink[5] tDistribution:vector ETV
attr "" ""
attr source computeTDistribution
vector 21 Aerocom.aircraft[0].dataLink[0] tDistribution:vector ETV
attr "" ""
attr source computeTDistribution
vector 22 Aerocom.aircraft[0].dataLink[8] tDistribution:vector ETV
attr "" ""
attr source computeTDistribution
vector 23 Aerocom.aircraft[0].dataLink[3] tDistribution:vector ETV
attr "" ""
attr source computeTDistribution
vector 24 Aerocom.aircraft[0].dataLink[6] tDistribution:vector ETV
attr "" ""
attr source computeTDistribution
0	1238	10	8605
0	1310	10.5	8412
0	1372	11	8044
0	1427	11.5	8058
0	1496	12	9458
0	1562	12.5	9585
0	1649	13	8721
0	1727	13.5	9982
0	1730	13.516643286765	9981
0	1736	13.553736234261	9977
0	1739	13.560752371376	9976
0	1747	13.570683912213	9976
0	1752	13.606031088707	9972
0	1759	13.701527325298	9964
0	1764	13.713146948108	9962
0	1770	13.746181293684	9959
0	1775	13.811862191866	9953
0	1781	13.86065758718	9923
0	1789	13.91241059981	9873
0	1796	14	9786
0	1803	14.093140959373	9695
0	1809	14.169802783087	9619
0	1814	14.191708463894	9598
0	1819	14.219702358213	9570
0	1824	14.232424113309	9558
0	1829	14.282166756374	9509
0	1838	14.474651585146	9320
0	1843	14.496454388854	9298
0	1844	14.5	9295
0	1874	15	8803
0	1967	15.5	8738
0	2012	16	8721
0	2089	16.5	8595
0	2132	17	8470
0	2224	17.5	8540
0	2276	18	8348
0	2357	18.5	8137
0	2456	19	9049
0	2539	19.5	9157
0	2601	20	8948
0	2655	20.5	8739
0	2715	21	8530
0	2790	21.5	8321
0	2859	22	9046
0	2915	22.5	9398
0	2963	23	9857
0	2969	23.012167536114	9846
0	2974	23.05412151414	9810
0	2979	23.070324965155	9796
0	2985	23.098454839845	9772
0	2991	23.148913257927	9729
0	2997	23.164059354438	9716
0	3002	23.228500700293	9660
0	3005	23.235747077105	9654
0	3012	23.250914760201	9641
0	3018	23.386749349949	9524
0	3025	23.443403727737	9497
0	3030	23.456442605761	9494
0	3035	23.491753562781	9484
0	3038	23.499134414742	9482
0	3041	23.5	9482
0	3119	24	9347
0	3204	24.5	9213
0	3262	25	9078
0	3334	25.5	9247
0	3376	26	9533
0	3379	26.019990887933	9544
0	3382	26.027325338897	9548
0	3389	26.036000969074	9553
0	3392	26.043328510161	9557
0	3399	26.056644221527	9565
0	3404	26.113221616235	9597
0	3407	26.12051556226	9601
0	3414	26.138712441948	9612
0	3419	26.195765960725	9644
0	3424	26.214662812239	9655
0	3429	26.223481531156	9660
0	3437	26.333869663999	9723
0	3442	26.355306958119	9735
0	3448	26.455030878221	9792
0	3453	26.464059299566	9798
0	3459	26.5	9777
0	3463	26.545967201607	9702
0	3468	26.567896693892	9667
0	3473	26.590002365211	9631
0	3479	26.610920300015	9597
0	3484	26.662111488325	9513
0	3490	26.677295259799	9489
0	3496	26.722964076788	9414
0	3506	26.882830623137	9154
0	3511	26.896260055952	9132
0	3519	26.990950443712	9166
0	3523	27	9185
0	3571	27.5	8492
0	3632	28	9563
0	3710	28.5	9774
0	3763	29	9366
0	3832	29.5	8957
0	3891	30	8549
0	3943	30.5	8897
0	4030	31	8843
0	4094	31.5	8951
0	4126	32	9059
0	4191	32.5	9166
0	4241	33	9274
0	4281	33.5	9065
0	4348	34	9230
0	4408	34.5	9353
0	4471	35	9187
0	4520	35.5	9356
0	4583	36	9525
0	4655	36.5	9695
0	4710	37	9062
0	4792	37.5	8323
0	4855	38	9809
0	4859	38.103457811556	9557
0	4866	38.148788260897	9445
0	4871	38.156727022566	9422
0	4876	38.240420076524	9179
0	4883	38.398655198707	8720
0	4888	38.407596887421	8694
0	4895	38.428306609865	9066
0	4903	38.481024088207	9790
0	4908	38.488174241425	9775
0	4911	38.495335366745	9760
0	4914	38.5	9751
0	4921	38.572723796929	9600
0	4924	38.580015463596	9585
0	4931	38.656858189096	9426
0	4936	38.679618674477	9378
0	4941	38.710736750154	9314
0	4947	38.77977653787	9171
0	4957	38.853774851125	8789
0	4962	38.871267871881	9371
0	4968	38.940346988933	9538
0	4972	39	9465
0	5045	39.5	8859
0	5109	40	8275
0	5175	40.5	8322
0	5227	41	8527
0	5267	41.5	9141
0	5334	42	9756
0	5337	42.010344289865	9769
0	5342	42.029885517145	9793
0	5347	42.057304614665	9826
0	5352	42.066682657248	9838
0	5359	42.075642609303	9831
0	5366	42.162191418903	9679
0	5369	42.169423570985	9666
0	5378	42.311940756211	9416
0	5383	42.319374910841	9403
0	5386	42.326819343469	9390
0	5393	42.371766294695	9311
0	5396	42.37928428417	9298
0	5403	42.390659287074	9278
0	5408	42.421232037631	9224
0	5413	42.429479011486	9209
0	5419	42.467168328357	9143
0	5424	42.478174672958	9124
0	5429	42.5	9086
0	5493	43	8882
0	5542	43.5	9126
0	5620	44	9370
0	5691	44.5	9614
0	5699	44.543474211476	9635
0	5705	44.570985918689	9648
0	5718	44.635872348948	9625
0	5721	44.641870696848	9621
0	5729	44.674780833674	9601
0	5735	44.703455995125	9583
0	5740	44.723392455088	9571
0	5746	44.789039942583	9530
0	5753	44.853082392499	9491
0	5760	44.865992476838	9483
0	5764	44.873374107124	9479
0	5769	44.88075885235	9474
0	5777	44.943226060424	9436
0	5783	45	9401
0	5844	45.5	9093
0	5908	46	8560
0	5947	46.5	8199
0	6005	47	9623
0	6067	47.5	8875
0	6135	48	9634
0	6136	48	9634
0	6145	48.037036432522	9636
0	6151	48.056026645352	9538
0	6159	48.144117660766	9253
0	6167	48.229859308593	9154
0	6170	48.237506238897	9145
0	6178	48.261972532075	9116
0	6187	48.5	8839
0	6267	49	8296
0	6309	49.5	8277
0	6387	50	8274
0	6444	50.5	8844
0	6524	51	8424
0	6580	51.5	9216
0	6647	52	9473
0	6656	52.035226646031	9491
0	6662	52.15832200517	9554
0	6665	52.165648779296	9558
0	6676	52.484838700895	9722
0	6680	52.5	9730
0	6749	53	9072
0	6795	53.5	8326
0	6844	54	9295
0	6879	54.5	8929
0	6956	55	8659
0	7031	55.5	8389
0	7102	56	8502
0	7170	56.5	9237
0	7239	57	9832
0	7243	57.004544909442	9827
0	7250	57.0173543329	9810
0	7256	57.079461906626	9732
0	7263	57.161188973958	9630
0	7268	57.246688111676	9522
0	7274	57.304374536783	9449
0	7283	57.45857419709	9256
0	7289	57.5	9203
0	7383	58	8712
0	7434	58.5	8824
0	7460	59	8935
0	7516	59.5	9046
0	7564	60	9158
0	7618	60.5	8155
0	7686	61	8011
0	7759	61.5	8967
0	7834	62	9330
0	7915	62.5	9376
0	7995	63	9653
0	8075	63.5	9930
0	8080	63.566735597534	9908
0	8089	63.637456482541	9576
0	8092	63.644766424061	9541
0	8098	63.652103181214	9507
0	8106	63.705159746052	9258
0	8118	63.820069643492	9874
0	8124	63.846287010912	9809
0	8129	63.88316233777	9718
0	8134	63.89342200457	9693
0	8140	63.909805665479	9652
0	8147	63.95924984931	9529
0	8150	63.966595845742	9511
0	8157	64	9428
0	8208	64.5	8189
0	8263	65	9178
0	8359	65.5	9940
0	8366	65.513141373776	9937
0	8372	65.54818837809	9928
0	8380	65.590063716506	9917
0	8386	65.641351785418	9904
0	8394	65.699556148274	9889
0	8400	65.731359671415	9880
0	8406	65.740311084893	9878
0	8419	65.912278843533	9834
0	8426	65.929577395515	9829
0	8429	65.936699177995	9827
0	8439	66	9811
0	8449	66.14914758468	9772
0	8454	66.170730909882	9767
0	8466	66.331214430826	9725
0	8472	66.38821867603	9710
0	8481	66.5	9681
0	8484	66.511923665346	9678
0	8495	66.588879614768	9662
0	8500	66.611837996687	9667
0	8505	66.637188186389	9673
0	8510	66.648373754342	9675
0	8515	66.715875519968	9690
0	8520	66.726553376604	9692
0	8525	66.749867989462	9697
0	8532	66.75824383479	9699
0	8535	66.765461073681	9701
0	8543	66.827189541021	9714
0	8546	66.834395635318	9716
0	8555	66.915571113454	9734
0	8560	66.923210235614	9735
0	8565	66.991823850301	9750
0	8569	67	9752
0	8581	67.20924732813	9798
0	8587	67.223713356001	9801
0	8592	67.234375389059	9803
0	8597	67.299570105532	9818
0	8600	67.306699867194	9819
0	8609	67.358033519852	9830
0	8616	67.400051614992	9716
0	8621	67.434667496617	9606
0	8626	67.467585202828	9501
0	8631	67.491472967125	9425
0	8636	67.5	9398
0	8696	68	8316
0	8735	68.5	8784
0	8781	69	8989
0	8822	69.5	9329
0	8880	70	9645
0	8939	70.5	9814
0	8942	70.50583734917	9798
0	8952	70.580139016014	9586
0	8959	70.624570606509	9460
0	8964	70.650055137539	9388
0	8972	70.695622375751	9258
0	8978	70.711721391327	9212
0	8985	70.759485713522	9077
0	8993	70.845471606773	8832
0	9002	70.92059517418	8619
0	9007	70.936236140142	8574
0	9012	70.966109064246	8489
0	9017	70.981188121856	8447
0	9023	71	8393
0	9087	71.5	8780
0	9125	72	9436
0	9202	72.5	9450
0	9205	72.519315760154	9402
0	9212	72.573480151594	9267
0	9217	72.583432367055	9242
0	9223	72.63225294608	9121
0	9229	72.723804437261	8893
0	9237	72.910844059721	8669
0	9242	72.928147344553	8748
0	9247	72.946811746544	8834
0	9251	73	9078
0	9305	73.5	8530
0	9388	74	9155
0	9413	74.5	9080
0	9483	75	8983
0	9545	75.5	8887
0	9594	76	8790
0	9660	76.5	8694
0	9727	77	8597
0	9773	77.5	8501
0	9813	78	8404
0	9875	78.5	8412
0	9952	79	8462
0	10064	79.5	8157
0	10118	80	8202
0	10189	80.5	8246
0	10246	81	9307
0	10301	81.5	8592
0	10370	82	8823
0	10444	82.5	8924
0	10503	83	8168
0	10557	83.5	8099
0	10620	84	8844
0	10686	84.5	9291
0	10747	85	8964
0	10791	85.5	8979
0	10853	86	9284
0	10908	86.5	9434
0	11007	87	9584
0	11056	87.5	9353
0	11129	88	9036
0	11182	88.5	9069
0	11261	89	9365
0	11355	89.5	9642
0	11423	90	9773
0	11426	90.007305860167	9775
0	11431	90.031401938847	9781
0	11436	90.04564604458	9785
0	11442	90.098836927447	9710
0	11448	90.124200432905	9657
0	11453	90.142163776422	9619
0	11458	90.17228763556	9556
0	11461	90.179612876246	9541
0	11466	90.186949633399	9526
0	11473	90.214446144479	9468
0	11476	90.221839469363	9453
0	11484	90.25272139514	9389
0	11490	90.349982573502	9186
0	11495	90.455459484146	8966
0	11500	90.5	8882
0	11566	91	8482
0	11622	91.5	8529
0	11670	92	8577
0	11701	92.5	8768
0	11763	93	9758
0	11801	93.5	9220
0	11881	94	9068
0	11941	94.5	9087
0	11998	95	9106
0	12062	95.5	9293
0	12130	96	9195
0	12197	96.5	9097
0	12259	97	8999
0	12333	97.5	8616
0	12382	98	9422
0	12453	98.5	8857
0	12515	99	9398
0	12561	99.5	9292
0	12619	100	9801
0	12623	100.063903324004	9616
0	12626	100.071182858114	9579
0	12637	100.136987758883	9249
0	12642	100.145210212736	9208
0	12647	100.162668701004	9120
0	12653	100.180784778182	9104
0	12658	100.22952462837	9062
0	12664	100.295520868482	9005
0	12668	100.303294327671	8998
0	12673	100.311073834228	8992
0	12680	100.319539417128	8984
0	12687	100.469693164854	8855
0	12692	100.494027617536	8834
0	12694	100.5	8829
0	12778	101	8398
0	12859	101.5	8287
0	12915	102	8241
0	12990	102.5	8615
0	13030	103	9684
0	13084	103.5	9330
0	13141	104	8976
0	13196	104.5	8622
0	13272	105	9584
0	13275	105.029834716385	9597
0	13283	105.09766946204	9627
0	13287	105.104940678411	9631
0	13296	105.158204727686	9655
0	13306	105.263586314425	8609
0	13309	105.271717340096	8753
0	13318	105.31473097974	9515
0	13326	105.33896978961	9943
0	13331	105.352861061657	9891
0	13338	105.457987203979	9498
0	13345	105.480000357402	9416
0	13350	105.5	9341
0	13424	106	9001
0	13448	106.5	9762
0	13508	107	9105
0	13569	107.5	8625
0	13628	108	9102
0	13718	108.5	8705
0	13769	109	8633
0	13810	109.5	8474
0	13899	110	8314
0	13946	110.5	8155
0	13986	111	8144
0	14055	111.5	8616
0	14106	112	9141
0	14127	112.5	8773
0	14178	113	8499
0	14223	113.5	9543
0	14230	113.624858633059	9458
0	14235	113.665956458392	9433
0	14242	113.760230881272	9376
0	14245	113.767696751579	9371
0	14253	113.794590829913	9355
0	14259	113.813992915776	9343
0	14265	113.876396729848	9305
0	14268	113.883919567032	9301
0	14278	113.991062916429	9235
0	14282	114	9230
0	14372	114.5	8926
0	14414	115	8798
0	14466	115.5	8213
0	14539	116	9289
0	14620	116.5	9337
0	14668	117	9071
0	14733	117.5	9545
0	14762	118	9502
0	14835	118.5	9439
0	14880	119	9373
0	14928	119.5	9428
0	15029	120	8985
0	15094	120.5	9228
0	15159	121	9467
0	15235	121.5	9376
0	15277	122	9106
0	15347	122.5	8490
0	15396	123	8462
0	15477	123.5	8434
0	15563	124	8410
0	15650	124.5	8352
0	15704	125	8916
0	15749	125.5	9297
0	15822	126	9011
0	15857	126.5	8387
0	15909	127	8174
0	15985	127.5	8902
0	16031	128	8965
0	16119	128.5	8995
0	16200	129	9569
0	16260	129.5	8123
0	16338	130	8759
0	16382	130.5	9256
0	16444	131	9405
0	16495	131.5	9553
0	16540	132	9700
0	16543	132.082687471336	9510
0	16549	132.122141701215	9419
0	16555	132.135326286004	9389
0	16561	132.186455225414	9271
0	16565	132.194005651474	9253
0	16576	132.201570765491	9236
0	16579	132.209149804036	9219
0	16582	132.216742818463	9201
0	16585	132.224350687173	9184
0	16593	132.245922991752	9134
0	16596	132.253586665936	9116
0	16606	132.5	9910
0	16610	132.517039430883	9884
0	16617	132.660601750078	9664
0	16622	132.697363459117	9607
0	16628	132.738542671417	9544
0	16633	132.753690768232	9521
0	16638	132.787176158604	9469
0	16643	132.808972896577	9436
0	16648	132.819237022931	9420
0	16653	132.909081149475	9283
0	16659	132.961844374948	9202
0	16664	133	9143
0	16711	133.5	8376
0	16794	134	8990
0	16841	134.5	9129
0	16902	135	9269
0	16982	135.5	9408
0	17032	136	9547
0	17104	136.5	9432
0	17211	137	9060
0	17258	137.5	8952
0	17320	138	9010
0	17419	138.5	8164
0	17478	139	8206
0	17544	139.5	8248
0	17620	140	8289
0	17682	140.5	8331
0	17743	141	8373
0	17810	141.5	8273
0	17862	142	8143
0	17947	142.5	8452
0	18004	143	8705
0	18045	143.5	9707
0	18108	144	9035
0	18184	144.5	9712
0	18264	145	9462
0	18309	145.5	9591
0	18317	145.705034037311	9644
0	18324	145.832517657793	9307
0	18330	145.960286829494	8934
0	18336	146	8818
0	18392	146.5	8198
0	18479	147	9360
0	18530	147.5	9202
0	18587	148	9044
0	18649	148.5	8783
0	18711	149	8559
0	18756	149.5	9436
0	18809	150	8593
0	18875	150.5	8618
0	18994	151	9709
0	19001	151.142400460076	9411
0	19006	151.16610457491	9362
0	19011	151.192211407012	9307
0	19018	151.311302948812	9059
0	19024	151.320715079538	9039
0	19033	151.459940681214	9003
0	19038	151.5	9487
0	19091	152	9743
0	19095	152.074652663858	9754
0	19101	152.1897394441	9771
0	19114	152.354389633071	9729
0	19119	152.445473194035	9602
0	19124	152.5	9527
0	19127	152.560984990593	9442
0	19134	152.708597023334	9237
0	19140	152.734452386987	9201
0	19146	152.758483872513	9168
0	19153	152.839914460444	9055
0	19156	152.84764499606	9044
0	19164	152.86545823147	9020
0	19170	152.886766051585	8990
0	19173	152.894552480951	8979
0	19182	152.907827179402	8891
0	19189	152.940242250266	8619
0	19194	152.970031285179	8619
0	19200	153	8618
0	19266	153.5	8489
0	19356	154	9202
0	19426	154.5	9251
0	19500	155	8363
0	19571	155.5	8670
0	19628	156	8976
0	19715	156.5	9685
0	19723	156.589314671888	9644
0	19728	156.605915466241	9636
0	19736	156.669554386912	9607
0	19741	156.707687336052	9590
0	19748	156.791213335927	9552
0	19756	156.871967928878	9515
0	19765	156.945098319922	9482
0	19773	157	9457
0	19821	157.5	9294
0	19875	158	9272
0	19914	158.5	9250
0	19962	159	9227
0	20022	159.5	9723
0	20029	159.604946795422	9909
0	20039	159.853370068026	9390
0	20046	159.899831850367	9274
0	20052	159.947380820052	9155
0	20055	159.955026915082	9136
0	20062	159.968787625839	9101
0	20065	159.976479088316	9082
0	20072	160	9023
0	20139	160.5	9614
0	20145	160.51017613539	9649
0	20150	160.532704468139	9726
0	20155	160.5489117314	9781
0	20164	160.634996790029	9321
0	20169	160.664889140587	9324
0	20174	160.684904836672	9326
0	20180	160.720548438018	9329
0	20186	160.775251283571	9335
0	20189	160.782749944524	9336
0	20198	160.958153250208	9353
0	20204	161	9299
0	20273	161.5	9785
0	20348	162	9326
0	20426	162.5	9044
0	20472	163	9099
0	20553	163.5	8327
0	20604	164	8187
0	20668	164.5	8143
0	20748	165	8098
0	20798	165.5	8132
0	20852	166	8546
0	20882	166.5	8923
0	20945	167	9391
0	20997	167.5	9285
0	21033	168	8938
0	21079	168.5	8650
0	21146	169	9450
0	21222	169.5	8969
0	21281	170	8731
0	21333	170.5	8962
0	21378	171	9288
0	21403	171.5	9280
0	21466	172	9332
0	21504	172.5	9384
0	21545	173	8942
0	21550	173.004636723608	8937
0	21557	173.032829780063	8904
0	21562	173.065266974683	8866
0	21567	173.09685195674	8828
0	21573	173.186403092016	8723
0	21578	173.212934091295	8692
0	21583	173.252591139081	8645
0	21588	173.270745181667	8624
0	21594	173.375706629153	8500
0	21600	173.45009315799	8413
0	21605	173.464652430132	8396
0	21609	173.5	8354
0	21696	174	9185
0	21770	174.5	9038
0	21839	175	9340
0	21842	175.044366617377	9313
0	21848	175.127922036754	9262
0	21853	175.139487406658	9255
0	21859	175.172213543542	9234
0	21864	175.204935934752	9214
0	21867	175.212533069547	9210
0	21877	175.320874113008	9143
0	21883	175.404681394295	9092
0	21887	175.5	9033
0	21950	176	9919
0	21956	176.026208273732	9897
0	21963	176.172134874459	9773
0	21969	176.255209377381	9702
0	21974	176.293040882952	9670
0	21979	176.314163025005	9652
0	21986	176.418855815292	9564
0	21989	176.426174928634	9557
0	21996	176.453253021638	9534
0	22003	176.491116810751	9502
0	22007	176.5	9495
0	22091	177	9167
0	22125	177.5	8882
0	22179	178	9173
0	22224	178.5	9410
0	22277	179	9384
0	22327	179.5	9503
0	22360	180	9480
0	22364	180.071066942034	9310
0	22370	180.156625899562	9106
0	22375	180.175988068407	9060
0	22380	180.236003685019	8916
0	22386	180.298702992509	8766
0	22390	180.306688390638	8747
0	22397	180.314691134436	8728
0	22400	180.322711299422	8709
0	22407	180.387919917516	8553
0	22413	180.40938768401	8502
0	22418	180.44651030593	8413
0	22422	180.5	8285
0	22472	181	8503
0	22526	181.5	8760
0	22591	182	9029
0	22639	182.5	8899
0	22684	183	8239
0	22697	183.5	8866
0	22745	184	9204
0	22819	184.5	9158
0	22893	185	9014
0	22953	185.5	8870
0	23033	186	8726
0	23063	186.5	8792
0	23141	187	8971
0	23215	187.5	8574
0	23286	188	8168
0	23350	188.5	8920
0	23391	189	9672
0	23444	189.5	8883
0	23486	190	8900
0	23542	190.5	8173
0	23627	191	8566
0	23738	191.5	8958
0	23796	192	9351
0	23867	192.5	9176
0	23928	193	8871
0	24005	193.5	8673
0	24074	194	8888
0	24114	194.5	9102
0	24172	195	9317
0	24218	195.5	9262
0	24272	196	8960
0	24354	196.5	8659
0	24403	197	8775
0	24456	197.5	9324
0	24510	198	9612
0	24578	198.5	8516
0	24669	199	9494
0	24675	199.033540937542	9443
0	24681	199.127869296374	9298
0	24686	199.156864486251	9254
0	24691	199.193741914156	9197
0	24697	199.206055114124	9178
0	24704	199.296425981078	9040
0	24709	199.30859146613	9021
0	24715	199.397403487734	8885
0	24720	199.422374392258	8847
0	24725	199.451061849724	8803
0	24731	199.5	8728
0	24782	200	9096
0	24823	200.5	9242
0	24880	201	9065
0	24950	201.5	9171
0	25023	202	9613
0	25080	202.5	9716
0	25140	203	9819
0	25209	203.5	9375
0	25295	204	9512
0	25303	204.043200238566	9328
0	25310	204.079162825283	9175
0	25326	204.168881387399	8925
0	25335	204.241451289216	8844
0	25340	204.277347840666	8804
0	25348	204.32005455137	8882
0	25356	204.37446385191	8993
0	25362	204.429746472189	9106
0	25370	204.486481731429	9222
0	25376	204.5	9249
0	25433	205	9268
0	25512	205.5	8247
0	25587	206	8437
0	25666	206.5	8627
0	25728	207	8817
0	25812	207.5	9007
0	25854	208	9197
0	25929	208.5	9387
0	26007	209	9199
0	26088	209.5	9190
0	26165	210	8780
0	26217	210.5	9564
0	26297	211	9444
0	26385	211.5	9169
0	26447	212	8221
0	26490	212.5	8561
0	26544	213	9527
0	26623	213.5	9916
0	26627	213.556130862614	9890
0	26631	213.563208719035	9887
0	26643	213.747943926747	8853
0	26648	213.765869263019	8726
0	26654	213.80043699671	8532
0	26659	213.83761625922	8501
0	26665	213.865675395893	8478
0	26674	213.931514466497	8424
0	26680	213.987794399286	8378
0	26685	214	8368
0	26767	214.5	8291
0	26840	215	8297
0	26911	215.5	8485
0	26944	216	8610
0	26987	216.5	8525
0	27025	217	8965
0	27075	217.5	8786
0	27165	218	9793
0	27169	218.047939948936	9769
0	27174	218.066524821024	9759
0	27180	218.085792192723	9750
0	27185	218.101318551788	9742
0	27188	218.108503934666	9738
0	27195	218.15153652285	9716
0	27200	218.177134601553	9703
0	27206	218.243491800712	9670
0	27211	218.300908062537	9640
0	27216	218.311489189555	9635
0	27221	218.332358130126	9624
0	27226	218.369685171999	9606
0	27231	218.438143323113	9571
0	27236	218.487747005316	9546
0	27239	218.495079919626	9542
0	27242	218.5	9539
0	27316	219	9286
0	27388	219.5	8972
0	27415	220	8796
0	27489	220.5	8860
0	27540	221	8725
0	27597	221.5	9559
0	27685	222	8744
0	27745	222.5	9843
0	27753	222.541010935174	8753
0	27763	222.620890104254	8728
0	27768	222.634702499092	8724
0	27771	222.642726341366	8721
0	27776	222.65075294382	8719
0	27785	222.688575001873	8707
0	27792	222.738807061107	8691
0	27803	222.869656134076	8649
0	27809	222.939610185043	8627
0	27817	222.974703684932	8616
0	27820	222.982828104616	8613
0	27828	223	8608
0	27904	223.5	8668
0	27963	224	8893
0	28025	224.5	9119
0	28086	225	9127
0	28150	225.5	8144
0	28210	226	8081
0	28275	226.5	8018
0	28356	227	8164
0	28415	227.5	8372
0	28449	228	9307
0	28520	228.5	8188
0	28583	229	8646
0	28668	229.5	9077
0	28721	230	9386
0	28768	230.5	8997
0	28819	231	8609
0	28894	231.5	8344
0	28974	232	8335
0	29048	232.5	8322
0	29105	233	8308
0	29188	233.5	8295
0	29274	234	8281
0	29348	234.5	8873
0	29437	235	9657
0	29492	235.5	9153
0	29577	236	9171
0	29652	236.5	8706
0	29720	237	9281
0	29766	237.5	9371
0	29823	238	8927
0	29885	238.5	9344
0	29943	239	9105
0	29977	239.5	8506
0	30056	240	8523
0	30111	240.5	9076
0	30166	241	9125
0	30221	241.5	8521
0	30292	242	8430
0	30328	242.5	8183
0	30386	243	8491
0	30437	243.5	8560
0	30474	244	8319
0	30515	244.5	9687
0	30561	245	9228
0	30619	245.5	8769
0	30693	246	8310
0	30753	246.5	8534
0	30802	247	9514
0	30860	247.5	9081
0	30928	248	8601
0	31014	248.5	8621
0	31068	249	8920
0	31113	249.5	9220
0	31168	250	9361
0	31239	250.5	8989
0	31307	251	8969
0	31359	251.5	9051
0	31401	252	9292
0	31459	252.5	9532
0	31498	253	9663
0	31503	253.032944489127	9603
0	31508	253.055510640728	9547
0	31513	253.064664316222	9525
0	31516	253.072013397587	9507
0	31521	253.079376393274	9489
0	31526	253.086753356073	9471
0	31533	253.109588185077	9415
0	31538	253.143374425999	9332
0	31544	253.179568774853	9298
0	31547	253.187097275606	9295
0	31554	253.239705428745	9270
0	31559	253.270752152403	9256
0	31563	253.27831481446	9252
0	31568	253.28588074615	9249
0	31577	253.394387649148	9198
0	31582	253.405442838969	9192
0	31587	253.430762301461	9181
0	31590	253.438386743243	9177
0	31598	253.489367098087	9153
0	31602	253.5	9148
0	31666	254	9363
0	31730	254.5	9150
0	31796	255	8937
0	31866	255.5	8724
0	31904	256	8511
0	31950	256.5	8290
0	32041	257	8631
0	32116	257.5	8927
0	32206	258	8312
0	32238	258.5	8301
0	32280	259	8929
0	32352	259.5	8506
0	32403	260	9461
0	32489	260.5	9160
0	32532	261	9610
0	32602	261.5	8472
0	32664	262	8489
0	32719	262.5	8609
0	32789	263	9008
0	32871	263.5	9407
0	32957	264	8480
0	33029	264.5	8167
0	33114	265	9197
0	33151	265.5	9161
0	33204	266	9009
0	33262	266.5	8998
0	33307	267	9188
0	33394	267.5	8601
0	33444	268	9768
0	33448	268.012512170973	9774
0	33454	268.102500445308	9740
0	33461	268.197051785972	9704
0	33467	268.260300784775	9680
0	33473	268.285739914185	9670
0	33478	268.300244667019	9665
0	33483	268.329502415727	9653
0	33489	268.367581820261	9715
0	33495	268.40103279175	9715
0	33501	268.429278140571	9669
0	33507	268.5	9556
0	33513	268.676279260097	9360
0	33518	268.764087531909	9446
0	33523	268.790919166989	9472
0	33528	268.818236207844	9499
0	33531	268.825605404602	9506
0	33538	268.851402615888	9531
0	33544	268.865525582749	9545
0	33547	268.872859265305	9552
0	33556	268.934285521924	9612
0	33562	268.949050379065	9627
0	33565	268.956321595436	9634
0	33574	268.992629131364	9669
0	33578	269	9676
0	33581	269.044927300333	9720
0	33588	269.105911339473	9718
0	33595	269.166863673812	9699
0	33601	269.232719057685	9679
0	33607	269.388443203152	9631
0	33612	269.431114292076	9618
0	33619	269.5	9597
0	33622	269.537120639801	9586
0	33627	269.553797282601	9581
0	33636	269.657340882988	9549
0	33643	269.772988075877	9514
0	33654	269.96187161022	8938
0	33659	270	8725
0	33720	270.5	8649
0	33753	271	8868
0	33797	271.5	8420
0	33857	272	8522
0	33918	272.5	8839
0	33976	273	8946
0	34048	273.5	9257
0	34082	274	9912
0	34085	274.012110878012	9925
0	34091	274.032368238454	9949
0	34100	274.234760102173	9964
0	34105	274.24743355902	9964
0	34108	274.254458850068	9964
0	34116	274.276150874549	9963
0	34121	274.336690973031	9963
0	34126	274.343716969217	9963
0	34129	274.350742965403	9963
0	34136	274.357768961589	9963
0	34139	274.364794957775	9963
0	34146	274.44061958649	9963
0	34150	274.5	9962
0	34153	274.517569477117	9962
0	34159	274.56539972569	9962
0	34166	274.616047278311	9962
0	34173	274.732796461618	9961
0	34181	274.819182462707	9961
0	34191	275	8650
0	34231	275.5	9063
0	34289	276	8178
0	34378	276.5	8420
0	34468	277	8662
0	34543	277.5	8904
0	34600	278	9147
0	34696	278.5	9389
0	34764	279	9631
0	34767	279.004685566637	9634
0	34774	279.014845718418	9638
0	34777	279.022108636036	9642
0	34785	279.033078450062	9647
0	34788	279.040334591868	9651
0	34801	279.159601097005	9709
0	34808	279.250933108038	9753
0	34815	279.337575559222	9795
0	34823	279.440685854789	9845
0	34834	279.490870498737	9869
0	34839	279.5	9874
0	34842	279.512103801783	9879
0	34852	279.688728951174	9880
0	34862	279.825614428502	9715
0	34868	279.857340562293	9676
0	34873	279.946667508015	9569
0	34876	279.953982796969	9560
0	34881	279.961304972701	9551
0	34886	279.96863404819	9542
0	34895	279.997769278438	9507
0	34896	280	9505
0	34904	280.052422345358	9491
0	34909	280.088793234009	9491
0	34912	280.096168642291	9491
0	34917	280.103544050573	9492
0	34922	280.110918681841	9492
0	34929	280.123412364923	9492
0	34934	280.149412839545	9492
0	34939	280.273084494052	9493
0	34944	280.295756167247	9494
0	34950	280.401255069521	9495
0	34954	280.408627370732	9495
0	34961	280.452769458766	9495
0	34967	280.486470787474	9496
0	34971	280.5	9496
0	35027	281	9540
0	35085	281.5	9750
0	35091	281.67872416574	9777
0	35099	281.752192552778	9775
0	35103	281.759353678098	9775
0	35112	281.806382248698	9774
0	35118	281.935307955251	9770
0	35124	282	9768
0	35128	282.035357498841	9767
0	35133	282.052201388989	9766
0	35139	282.068787888115	9766
0	35145	282.086101318541	9765
0	35151	282.173160370594	9763
0	35158	282.261879238162	9760
0	35163	282.277847030512	9760
0	35168	282.328670462933	9758
0	35173	282.340701594081	9758
0	35178	282.382390247848	9757
0	35184	282.5	9753
0	35189	282.556973537816	9752
0	35195	282.591035711171	9751
0	35200	282.609416014192	9750
0	35205	282.647412876388	9749
0	35212	282.758244808593	9746
0	35215	282.765427242412	9746
0	35223	282.795427855316	9745
0	35229	282.825738299137	9744
0	35235	282.890778144875	9742
0	35240	282.927687282872	9741
0	35246	282.962315599614	9740
0	35252	282.997578753859	9739
0	35253	283	9739
0	35336	283.5	9389
0	35425	284	8613
0	35488	284.5	8314
0	35537	285	8353
0	35634	285.5	8392
0	35679	286	8595
0	35730	286.5	8940
0	35785	287	9264
0	35865	287.5	8695
0	35930	288	8773
0	35974	288.5	9170
0	36009	289	9190
0	36070	289.5	9436
0	36074	289.501075964802	9436
0	36081	289.515805910829	9444
0	36087	289.548884542518	9460
0	36092	289.588470278845	9479
0	36097	289.604792408124	9487
0	36102	289.639413666176	9504
0	36111	289.701681357174	9535
0	36117	289.815516409875	9591
0	36124	289.877180515769	9621
0	36130	289.916816747315	9641
0	36136	289.944266396554	9617
0	36142	289.973313758266	9450
0	36147	289.982632368963	9397
0	36151	290	9297
0	36231	290.5	9328
0	36317	291	8534
0	36379	291.5	9891
0	36387	291.579490538191	9867
0	36395	291.604432065942	9859
0	36401	291.686418537763	9833
0	36406	291.703399580644	9828
0	36413	291.722936928262	9821
0	36422	291.811901490738	9794
0	36429	291.829980881239	9788
0	36436	291.874123701789	9774
0	36442	291.917786971804	9760
0	36450	291.953610404152	9749
0	36456	292	9735
0	36513	292.5	9768
0	36517	292.56488746751	9777
0	36527	292.765094432954	9804
0	36532	292.792150042871	9808
0	36538	292.804622298569	9810
0	36543	292.833043991607	9814
0	36550	292.94055019034	9828
0	36555	292.979897280869	9834
0	36560	292.995926966388	9836
0	36561	293	9836
0	36568	293.054956021269	9844
0	36574	293.085122496748	9848
0	36582	293.165387025073	9859
0	36592	293.282076629838	9444
0	36599	293.365760450285	9163
0	36604	293.421152588401	8977
0	36609	293.5	8713
0	36649	294	9773
0	36699	294.5	9201
0	36745	295	8786
0	36817	295.5	9579
0	36857	296	9701
0	36861	296.04996098524	9675
0	36867	296.158433424279	9618
0	36871	296.165711444657	9615
0	36879	296.22946948361	9581
0	36887	296.312774421067	9538
0	36890	296.32011348586	9534
0	36897	296.32998041905	9529
0	36902	296.365852855312	9510
0	36908	296.389954788771	9498
0	36911	296.397324761397	9494
0	36918	296.5	9440
0	36963	297	9179
0	37002	297.5	8919
0	37067	298	8658
0	37118	298.5	8741
0	37185	299	9572
0	37251	299.5	9485
0	37312	300	8450
0	37357	300.5	8979
0	37423	301	8382
0	37499	301.5	8245
0	37567	302	8187
0	37659	302.5	8464
0	37721	303	8809
0	37754	303.5	9155
0	37805	304	9500
0	37881	304.5	9206
0	37943	305	9162
0	38012	305.5	9092
0	38081	306	8892
0	38154	306.5	8898
0	38232	307	9066
0	38277	307.5	9233
0	38338	308	8845
0	38388	308.5	8800
0	38468	309	9274
0	38542	309.5	8762
0	38594	310	8151
0	38656	310.5	8186
0	38694	311	9003
0	38746	311.5	8987
0	38812	312	8717
0	38898	312.5	9455
0	38955	313	8866
0	39029	313.5	8600
0	39103	314	8523
0	39160	314.5	8445
0	39225	315	9354
0	39306	315.5	9131
0	39400	316	8908
0	39488	316.5	8685
0	39537	317	9623
0	39596	317.5	9405
0	39649	318	9188
0	39692	318.5	9414
0	39761	319	8993
0	39820	319.5	8571
0	39882	320	9025
0	39960	320.5	9230
0	40049	321	9310
0	40118	321.5	9596
0	40197	322	8253
0	40291	322.5	8466
0	40350	323	8805
0	40435	323.5	9144
0	40491	324	9483
0	40555	324.5	9822
0	40626	325	8853
0	40702	325.5	8350
0	40747	326	8488
0	40828	326.5	8626
0	40886	327	8128
0	40945	327.5	8564
0	40994	328	8943
0	41036	328.5	8798
0	41120	329	8796
0	41172	329.5	8993
0	41260	330	8933
0	41339	330.5	8301
0	41384	331	8566
0	41426	331.5	8737
0	41482	332	9482
0	41544	332.5	9323
0	41585	333	9164
0	41648	333.5	9319
0	41685	334	9784
0	41688	334.04649789632	9760
0	41694	334.078368415166	9742
0	41700	334.112291681647	9724
0	41703	334.119490365316	9720
0	41712	334.236186193437	9658
0	41718	334.400301660946	9570
0	41724	334.412630347398	9564
0	41729	334.473040795572	9532
0	41733	334.5	9517
0	41736	334.586500557744	9471
0	41741	334.618789212587	9454
0	41746	334.62619348591	9450
0	41749	334.633600893317	9446
0	41756	334.654157108261	9435
0	41761	334.761376527876	9377
0	41766	334.794914937827	9359
0	41772	334.861853932281	9324
0	41780	334.949552540287	9277
0	41788	334.998524206363	9251
0	41790	335	9250
0	41844	335.5	8733
0	41929	336	9353
0	41987	336.5	8941
0	42084	337	9157
0	42171	337.5	9372
0	42245	338	9587
0	42291	338.5	9532
0	42296	338.617793741767	9397
0	42301	338.630754714739	9383
0	42307	338.687595890753	9318
0	42312	338.726768951761	9273
0	42319	338.791620006309	9199
0	42324	338.942531034757	9026
0	42330	338.986356580049	8976
0	42336	339	8959
0	42399	339.5	8315
0	42449	340	8661
0	42520	340.5	8522
0	42586	341	8259
0	42644	341.5	8343
0	42736	342	8604
0	42806	342.5	8816
0	42873	343	8596
0	42947	343.5	8640
0	43014	344	9157
0	43084	344.5	8305
0	43131	345	8545
0	43211	345.5	8784
0	43277	346	9024
0	43333	346.5	9264
0	43417	347	9406
0	43494	347.5	9111
0	43548	348	8857
0	43593	348.5	8603
0	43685	349	8349
0	43735	349.5	8095
0	43782	350	8037
0	43825	350.5	8056
0	43886	351	8075
0	43939	351.5	8220
0	44038	352	8801
0	44091	352.5	9381
0	44149	353	8146
0	44214	353.5	8541
0	44255	354	8551
0	44297	354.5	8672
0	44360	355	8332
0	44445	355.5	8234
0	44496	356	9801
0	44499	356.02968294222	9894
0	44507	356.121377206547	9898
0	44510	356.128449342332	9898
0	44517	356.177195999644	9897
0	44520	356.184268850003	9897
0	44527	356.195232339237	9897
0	44532	356.215069007799	9896
0	44540	356.316138196757	9894
0	44547	356.375324979301	9865
0	44554	356.435013300108	9761
0	44559	356.453408230451	9729
0	44564	356.462648675618	9713
0	44567	356.469855511817	9701
0	44573	356.5	9649
0	44576	356.594704346246	9484
0	44583	356.653121774207	9383
0	44590	356.860099759494	9024
0	44598	357	8781
0	44667	357.5	8762
0	44731	358	9184
0	44798	358.5	9607
0	44856	359	9553
0	44932	359.5	9198
0	45016	360	8843
0	45053	360.5	8444
0	45113	361	8501
0	45182	361.5	8653
0	45240	362	8802
0	45344	362.5	8876
0	45397	363	8842
0	45452	363.5	9032
0	45566	364	9362
0	45630	364.5	9290
0	45663	365	8365
0	45730	365.5	8599
0	45792	366	8813
0	45853	366.5	8931
0	45926	367	8652
0	45956	367.5	8372
0	46006	368	9354
0	46069	368.5	9076
0	46148	369	8799
0	46207	369.5	8521
0	46291	370	9082
0	46356	370.5	9888
0	46360	370.513282565424	9877
0	46366	370.530092716764	9762
0	46373	370.723808873541	8246
0	46378	370.744618731491	8294
0	46385	370.791151586986	8402
0	46390	370.841293927565	8518
0	46393	370.849511819089	8538
0	46401	371	8887
0	46474	371.5	9914
0	46477	371.539676823474	9837
0	46482	371.576152218791	9766
0	46485	371.58331994355	9753
0	46490	371.590497222336	9739
0	46498	371.632279646629	9658
0	46504	371.667232366644	9590
0	46507	371.674531636717	9576
0	46516	371.686885680797	9516
0	46522	371.703816659573	9419
0	46525	371.711248446387	9377
0	46532	371.730316286162	9269
0	46535	371.7378683414	9226
0	46544	371.824476451906	8734
0	46555	371.972072197311	8096
0	46560	371.980914786811	8096
0	46563	371.98956103187	8095
0	46570	372	8095
0	46627	372.5	8072
0	46682	373	8177
0	46752	373.5	8405
0	46788	374	8632
0	46842	374.5	8728
0	46897	375	8736
0	46922	375.5	8613
0	46982	376	8479
0	47065	376.5	8345
0	47118	377	8211
0	47205	377.5	8553
0	47266	378	8390
0	47310	378.5	8227
0	47375	379	8799
0	47452	379.5	8986
0	47529	380	8842
0	47570	380.5	8960
0	47632	381	9380
0	47699	381.5	9425
0	47750	382	9405
0	47814	382.5	9364
0	47889	383	9324
0	47970	383.5	8757
0	48019	384	8541
0	48074	384.5	9117
0	48160	385	9188
0	48195	385.5	9863
0	48198	385.511701311213	9857
0	48203	385.551696387999	9835
0	48211	385.608085623368	9804
0	48216	385.62196565573	9796
0	48221	385.640650136574	9786
0	48226	385.664688407623	9773
0	48229	385.671850998434	9769
0	48236	385.799493027798	9698
0	48239	385.806711010887	9694
0	48244	385.813931972306	9691
0	48251	385.872309124311	9658
0	48257	385.964321077831	9608
0	48263	386	9588
0	48317	386.5	8315
0	48392	387	8277
0	48430	387.5	8944
0	48472	388	8519
0	48527	388.5	8099
0	48601	389	8164
0	48641	389.5	8294
0	48693	390	8424
0	48733	390.5	8555
0	48799	391	9500
0	48838	391.5	9238
0	48895	392	8530
0	48954	392.5	8756
0	49007	393	8982
0	49040	393.5	8516
0	49112	394	8148
0	49174	394.5	8120
0	49223	395	9229
0	49297	395.5	8370
0	49341	396	8223
0	49396	396.5	8328
0	49447	397	9184
0	49523	397.5	9792
0	49526	397.581647889901	9854
0	49532	397.614365343219	9879
0	49538	397.712175057729	9954
0	49545	397.735911088241	9948
0	49552	397.754528711757	9907
0	49561	397.863555111422	9662
0	49564	397.870799988259	9646
0	49571	397.878056882308	9629
0	49574	397.885326588404	9613
0	49581	397.922110928034	9530
0	49587	397.962613305364	9457
0	49591	398	9409
0	49652	398.5	8772
0	49712	399	8614
0	49800	399.5	8425
0	49888	400	9127
1	1238	10	9548
1	1310	10.5	9021
1	1372	11	9070
1	1427	11.5	9511
1	1496	12	8764
1	1562	12.5	9024
1	1649	13	9695
1	1654	13.023002333717	9927
1	1660	13.040946598621	9991
1	1665	13.057369804325	9981
1	1670	13.067311722728	9975
1	1676	13.152697372206	9923
1	1681	13.159751690457	9919
1	1684	13.166808853477	9915
1	1694	13.233263715145	9875
1	1703	13.319765223441	9823
1	1710	13.345368916404	9807
1	1717	13.407330120442	9770
1	1722	13.421435989344	9761
1	1727	13.5	9714
1	1796	14	9412
1	1844	14.5	9756
1	1850	14.540678783533	9761
1	1857	14.694249639141	9780
1	1865	14.894241519317	9805
1	1870	14.942127390125	9811
1	1874	15	9819
1	1882	15.115280091247	8653
1	1890	15.149006612419	8078
1	1899	15.2100632287	8162
1	1904	15.224874670841	8188
1	1907	15.233423767079	8202
1	1912	15.241958270859	8217
1	1920	15.286814544775	8294
1	1926	15.323681611052	8357
1	1931	15.338036334617	8382
1	1938	15.39348355654	8477
1	1941	15.401380734003	8491
1	1949	15.440307251873	8557
1	1955	15.46311316639	8596
1	1960	15.48712684171	8638
1	1966	15.498289863547	8657
1	1967	15.5	8660
1	2012	16	9451
1	2015	16.017059863214	9431
1	2020	16.031849850475	9413
1	2025	16.042612864285	9400
1	2032	16.058088669435	9381
1	2040	16.144952634413	9277
1	2045	16.152629294711	9268
1	2050	16.172207285362	9245
1	2062	16.32351614385	9900
1	2068	16.38258167043	9745
1	2073	16.396806823479	9708
1	2080	16.457385002103	9548
1	2085	16.479402285641	9490
1	2089	16.5	9436
1	2132	17	8263
1	2224	17.5	8359
1	2276	18	8464
1	2357	18.5	8747
1	2456	19	9031
1	2539	19.5	9850
1	2601	20	9467
1	2655	20.5	9162
1	2715	21	8959
1	2790	21.5	9545
1	2859	22	9320
1	2915	22.5	9094
1	2963	23	8869
1	3041	23.5	8644
1	3119	24	8942
1	3204	24.5	9343
1	3262	25	8517
1	3334	25.5	9566
1	3376	26	8381
1	3459	26.5	8846
1	3523	27	9311
1	3571	27.5	9835
1	3575	27.655119529609	9800
1	3580	27.675217101414	9685
1	3586	27.771668292406	9134
1	3596	27.852374283068	8672
1	3601	27.869588518568	8574
1	3606	27.898909048528	8406
1	3611	27.931972839622	8217
1	3614	27.940491763804	8169
1	3623	27.961962161285	8149
1	3628	27.981117271932	8167
1	3632	28	8185
1	3710	28.5	9344
1	3763	29	9094
1	3832	29.5	8844
1	3891	30	8594
1	3943	30.5	8344
1	4030	31	8095
1	4094	31.5	8571
1	4126	32	8685
1	4191	32.5	8953
1	4241	33	9693
1	4249	33.163941337569	9724
1	4256	33.236128098389	9738
1	4262	33.284280057939	9747
1	4269	33.333067511663	9757
1	4274	33.344055846678	9759
1	4281	33.5	9788
1	4284	33.517556821661	9792
1	4291	33.60044529234	9808
1	4297	33.642995760142	9816
1	4303	33.70530505523	8683
1	4308	33.717295357226	8399
1	4313	33.725629682741	8202
1	4317	33.734164186521	8059
1	4325	33.788650450506	8146
1	4332	33.860795679733	8262
1	4337	33.919375664122	8356
1	4343	33.956842317349	8416
1	4348	34	8485
1	4408	34.5	9285
1	4471	35	9211
1	4520	35.5	9781
1	4523	35.510870779617	9776
1	4526	35.518031172416	9772
1	4536	35.638911212219	9678
1	4545	35.778129765294	9558
1	4551	35.823441734114	9518
1	4556	35.842348113847	9502
1	4559	35.84971498398	9495
1	4567	35.874775428084	9474
1	4573	35.914210941287	9440
1	4578	35.972023829858	9389
1	4583	36	9365
1	4655	36.5	8932
1	4710	37	8503
1	4792	37.5	9915
1	4797	37.587568981178	9900
1	4800	37.594639688249	9899
1	4808	37.609709791539	9897
1	4813	37.658090276669	9888
1	4818	37.670850084957	9886
1	4826	37.730716907512	9845
1	4832	37.740844517765	9828
1	4837	37.766338067026	9788
1	4840	37.773489681247	9777
1	4850	37.947188598262	9502
1	4855	38	9419
1	4914	38.5	8803
1	4972	39	8578
1	5045	39.5	8673
1	5109	40	8992
1	5175	40.5	9828
1	5178	40.518809214747	9824
1	5183	40.557882369112	9816
1	5191	40.648785648041	9797
1	5198	40.699022876982	9701
1	5207	40.76074230942	9546
1	5212	40.780114879286	9498
1	5217	40.915290353505	9159
1	5222	40.933406340285	9114
1	5227	41	8947
1	5267	41.5	9051
1	5334	42	9203
1	5429	42.5	8763
1	5493	43	8380
1	5542	43.5	9680
1	5620	44	9029
1	5691	44.5	9367
1	5783	45	9072
1	5844	45.5	8724
1	5908	46	8275
1	5947	46.5	8162
1	6005	47	8194
1	6067	47.5	8348
1	6135	48	9129
1	6187	48.5	9239
1	6267	49	8965
1	6309	49.5	8687
1	6387	50	8962
1	6444	50.5	8310
1	6524	51	8482
1	6580	51.5	8655
1	6647	52	8827
1	6680	52.5	8999
1	6749	53	9171
1	6795	53.5	8546
1	6844	54	9174
1	6879	54.5	9576
1	6956	55	8854
1	7031	55.5	8838
1	7102	56	9373
1	7170	56.5	9120
1	7239	57	9182
1	7289	57.5	9553
1	7383	58	9290
1	7434	58.5	8868
1	7460	59	9393
1	7464	59.042601121817	9438
1	7469	59.12286141301	9522
1	7472	59.130212809775	9530
1	7482	59.24675572155	8322
1	7487	59.270884045294	8416
1	7493	59.301790588199	8537
1	7498	59.317867130727	8600
1	7504	59.383644923098	8857
1	7511	59.478072737972	9242
1	7516	59.5	9548
1	7564	60	9077
1	7618	60.5	8383
1	7686	61	9937
1	7689	61.006246049413	9935
1	7694	61.018889977611	9932
1	7699	61.032935938413	9929
1	7706	61.081935270449	9917
1	7713	61.150864561258	9890
1	7723	61.282749628344	9739
1	7728	61.32996394683	9686
1	7735	61.374683828203	9635
1	7740	61.395830956327	9611
1	7745	61.41825145365	9585
1	7751	61.468130628511	9528
1	7756	61.498618373459	9494
1	7759	61.5	9492
1	7834	62	8923
1	7915	62.5	8358
1	7995	63	8521
1	8075	63.5	8210
1	8157	64	8322
1	8208	64.5	8496
1	8263	65	8261
1	8359	65.5	9051
1	8439	66	8439
1	8481	66.5	8693
1	8569	67	8687
1	8636	67.5	9347
1	8696	68	9620
1	8735	68.5	9479
1	8781	69	9337
1	8822	69.5	8744
1	8880	70	9494
1	8939	70.5	9624
1	9023	71	8618
1	9087	71.5	8541
1	9125	72	8766
1	9202	72.5	9001
1	9251	73	8848
1	9305	73.5	9189
1	9388	74	8519
1	9413	74.5	8692
1	9483	75	9523
1	9545	75.5	8675
1	9594	76	8909
1	9660	76.5	8867
1	9727	77	8958
1	9773	77.5	9066
1	9813	78	9173
1	9875	78.5	8993
1	9952	79	8627
1	10064	79.5	8617
1	10118	80	8132
1	10189	80.5	8587
1	10246	81	9282
1	10301	81.5	9605
1	10305	81.535256111366	9593
1	10310	81.553322078886	9586
1	10318	81.606823508219	9568
1	10323	81.616280994729	9564
1	10329	81.712147598528	9531
1	10334	81.732334757399	9524
1	10337	81.739684610402	9521
1	10345	81.767879197967	9512
1	10350	81.805897887035	9498
1	10355	81.83478458628	9488
1	10362	81.896687534091	9467
1	10370	82	9431
1	10444	82.5	9211
1	10503	83	9157
1	10557	83.5	9104
1	10620	84	9141
1	10686	84.5	9217
1	10747	85	9292
1	10791	85.5	9368
1	10853	86	9444
1	10856	86.022641486119	9447
1	10864	86.160409915156	9468
1	10869	86.20453475797	9474
1	10874	86.252450998247	9482
1	10877	86.259833407022	9483
1	10887	86.375923767958	8866
1	10894	86.425708451001	8821
1	10897	86.433644059209	8831
1	10904	86.451572806127	8853
1	10908	86.5	8912
1	11007	87	9187
1	11056	87.5	9471
1	11060	87.532101686791	9489
1	11066	87.586628827562	9520
1	11079	87.779735654881	9630
1	11084	87.800182782532	9641
1	11089	87.80988501139	9647
1	11095	87.834403104526	9654
1	11102	87.861243655151	9635
1	11110	87.939787566864	9580
1	11117	87.974040063271	9555
1	11122	87.981880532829	9550
1	11128	87.993246608758	9542
1	11129	88	9537
1	11135	88.004339240256	9534
1	11140	88.028487175009	9517
1	11149	88.163302718445	9422
1	11158	88.305969850669	9322
1	11164	88.344330525366	9295
1	11169	88.387992099719	9264
1	11175	88.420704804645	9241
1	11181	88.499196410959	9186
1	11182	88.5	9186
1	11261	89	8834
1	11355	89.5	8708
1	11423	90	8869
1	11500	90.5	9029
1	11566	91	9154
1	11622	91.5	9141
1	11670	92	9155
1	11701	92.5	8731
1	11763	93	8671
1	11801	93.5	8496
1	11881	94	8951
1	11941	94.5	9722
1	11944	94.517428208166	9717
1	11950	94.562302667062	9705
1	11955	94.616914847549	9690
1	11960	94.627662256508	9687
1	11967	94.765521120566	9650
1	11972	94.795675781801	9642
1	11978	94.825447980783	9633
1	11983	94.850158778771	9627
1	11991	94.956291080968	9598
1	11997	94.992785424877	9588
1	11998	95	9586
1	12062	95.5	9322
1	12130	96	8839
1	12197	96.5	8356
1	12259	97	8657
1	12333	97.5	9393
1	12382	98	9891
1	12385	98.012400083091	9871
1	12392	98.054300058371	9806
1	12398	98.086120653656	9756
1	12406	98.200403741651	9577
1	12411	98.207967126458	9565
1	12421	98.293658994233	9430
1	12426	98.368561754618	9313
1	12431	98.386655172038	9285
1	12436	98.405452110039	9255
1	12442	98.439716631187	9201
1	12448	98.490376721805	9122
1	12453	98.5	9109
1	12515	99	8662
1	12561	99.5	8216
1	12619	100	8236
1	12694	100.5	8403
1	12778	101	8561
1	12859	101.5	8298
1	12915	102	8188
1	12990	102.5	8127
1	13030	103	8859
1	13084	103.5	8508
1	13141	104	8760
1	13196	104.5	9732
1	13272	105	9394
1	13350	105.5	9055
1	13424	106	9138
1	13448	106.5	9801
1	13455	106.574127322357	8307
1	13461	106.599942172149	8646
1	13468	106.639834360258	9170
1	13473	106.658868884627	9420
1	13478	106.671703763588	9589
1	13484	106.733142826355	9808
1	13490	106.787688571316	9721
1	13495	106.836554780917	9643
1	13503	106.95704358628	9451
1	13508	107	9383
1	13569	107.5	9117
1	13628	108	9159
1	13718	108.5	9177
1	13769	109	9195
1	13810	109.5	8393
1	13899	110	8319
1	13946	110.5	8273
1	13986	111	8433
1	14055	111.5	8704
1	14106	112	8975
1	14127	112.5	9246
1	14178	113	9522
1	14223	113.5	9489
1	14282	114	9009
1	14372	114.5	8844
1	14414	115	8320
1	14466	115.5	9354
1	14539	116	8599
1	14620	116.5	8516
1	14668	117	8433
1	14733	117.5	9615
1	14762	118	9441
1	14835	118.5	8651
1	14880	119	8182
1	14928	119.5	9368
1	15029	120	8724
1	15094	120.5	9149
1	15159	121	9045
1	15235	121.5	8959
1	15277	122	8751
1	15347	122.5	9422
1	15396	123	9082
1	15477	123.5	9818
1	15486	123.529875804345	9812
1	15493	123.586311854087	9802
1	15499	123.616896368428	9796
1	15502	123.624042142213	9794
1	15509	123.653115916301	9789
1	15514	123.667695058027	9786
1	15517	123.67484813385	9785
1	15522	123.682001940697	9783
1	15529	123.695532765151	9781
1	15534	123.763608778121	9768
1	15541	123.84967865253	9762
1	15547	123.906570261834	9765
1	15552	123.932644283542	9766
1	15557	123.965798716829	9767
1	15563	124	9768
1	15569	124.082510763432	9771
1	15576	124.114286556521	9773
1	15581	124.122770859621	9773
1	15588	124.158746734627	9774
1	15598	124.250288150136	9778
1	15603	124.266199943168	9778
1	15611	124.358184743816	9782
1	15616	124.368720592069	9782
1	15621	124.409803477916	9784
1	15624	124.413738720615	9784
1	15633	124.429341206378	9785
1	15636	124.436495013225	9785
1	15644	124.448796857686	9785
1	15650	124.5	9787
1	15656	124.695943309567	9795
1	15661	124.716211908844	9796
1	15668	124.80675239487	9799
1	15673	124.83112483253	9800
1	15680	124.8827798099	9802
1	15686	124.937094466282	9804
1	15692	124.95712427096	9805
1	15699	124.975628074923	9806
1	15704	125	9806
1	15710	125.149897674378	9812
1	15718	125.231588017684	9833
1	15723	125.244551760685	9836
1	15727	125.251668474796	9838
1	15739	125.39063195516	9875
1	15749	125.5	9729
1	15752	125.513156364536	9701
1	15757	125.559772718494	9599
1	15762	125.578500248926	9558
1	15765	125.585823956815	9542
1	15775	125.646176325091	9411
1	15780	125.682726443417	9331
1	15785	125.717740395395	9255
1	15790	125.746949663878	9191
1	15793	125.754565810108	9175
1	15803	125.832972934496	9004
1	15808	125.850186562485	8967
1	15813	125.893901898468	8871
1	15818	125.944960592688	8760
1	15822	126	8640
1	15857	126.5	9717
1	15865	126.762391270094	9648
1	15871	126.792657629742	9499
1	15878	126.820229529151	9522
1	15886	126.911046582257	9761
1	15894	126.958479498578	9704
1	15899	126.971097246194	9689
1	15905	126.989376592756	9667
1	15909	127	9655
1	15913	127.070921278569	9570
1	15918	127.085444030186	9552
1	15923	127.098023303338	9537
1	15926	127.105363137667	9529
1	15931	127.112709134099	9520
1	15936	127.120062075275	9511
1	15943	127.144240261494	9482
1	15951	127.175621741548	9445
1	15959	127.238797692598	9369
1	15964	127.250052587079	9356
1	15973	127.352834378586	9233
1	15980	127.48913877257	9070
1	15985	127.5	9057
1	16031	128	8898
1	16119	128.5	9615
1	16122	128.501427847262	9611
1	16128	128.584080969199	9380
1	16133	128.599044650801	9338
1	16140	128.635327621598	9236
1	16143	128.642906660143	9215
1	16150	128.652463705239	9188
1	16155	128.690535452654	9082
1	16162	128.78274013803	8824
1	16165	128.790673048275	8801
1	16172	128.798626689907	8779
1	16175	128.806600263207	8757
1	16181	128.814593868323	8734
1	16190	128.859361306729	8653
1	16200	129	8682
1	16260	129.5	8789
1	16338	130	8895
1	16382	130.5	9001
1	16444	131	9640
1	16448	131.043062854099	9470
1	16454	131.073833624793	9348
1	16460	131.160702271842	9005
1	16468	131.237706692653	8701
1	16473	131.278199193697	8541
1	16480	131.431628097005	8339
1	16483	131.440022388887	8349
1	16490	131.459923781237	8372
1	16495	131.5	8419
1	16540	132	8884
1	16606	132.5	8941
1	16664	133	9958
1	16667	133.017128791143	9932
1	16673	133.127864483039	9760
1	16678	133.158235381745	9713
1	16684	133.225302017423	9609
1	16689	133.287070983598	9514
1	16694	133.314768396444	9471
1	16699	133.32834234367	9450
1	16704	133.35507609276	9408
1	16711	133.5	9184
1	16794	134	8745
1	16841	134.5	8923
1	16902	135	9506
1	16982	135.5	9577
1	16985	135.586611252874	9484
1	16990	135.656569352728	9408
1	16996	135.71388932916	9347
1	17004	135.769776140226	9287
1	17009	135.786911357111	9268
1	17014	135.797043906654	9257
1	17019	135.832135274716	9220
1	17026	135.960563876496	9081
1	17031	135.997053279217	9042
1	17032	136	9039
1	17104	136.5	9399
1	17211	137	9472
1	17258	137.5	9607
1	17320	138	9654
1	17419	138.5	9409
1	17422	138.509311325751	9398
1	17427	138.537105641991	9364
1	17436	138.675865067895	9194
1	17441	138.683478728978	9185
1	17444	138.691099850372	9175
1	17452	138.716550929915	9144
1	17458	138.735328575461	9121
1	17465	138.799179071809	8860
1	17472	138.857879431869	8472
1	17478	139	8236
1	17544	139.5	8640
1	17620	140	9136
1	17682	140.5	9799
1	17688	140.542050310227	9817
1	17702	140.759394183584	9911
1	17707	140.769063677246	9915
1	17710	140.776123687332	9918
1	17718	140.79600058541	9926
1	17722	140.803052771588	9929
1	17732	140.842825762281	9946
1	17743	141	9789
1	17746	141.007472398312	9763
1	17751	141.052887747144	9600
1	17754	141.060179413811	9574
1	17763	141.15989843416	9221
1	17769	141.17531334858	9168
1	17774	141.191055179073	9114
1	17777	141.198735670624	9087
1	17785	141.272964911465	8831
1	17793	141.401274610537	9044
1	17799	141.435676990255	9109
1	17806	141.472299921229	9178
1	17810	141.5	9230
1	17862	142	9693
1	17947	142.5	9198
1	18004	143	9244
1	18045	143.5	8726
1	18108	144	8058
1	18184	144.5	9065
1	18264	145	9607
1	18309	145.5	9423
1	18336	146	9239
1	18392	146.5	9901
1	18395	146.500625639455	9902
1	18401	146.531587005149	9896
1	18409	146.550968115622	9886
1	18414	146.561548097676	9880
1	18417	146.568633117919	9877
1	18425	146.669426196918	9824
1	18432	146.710460067196	9802
1	18437	146.727886509609	9793
1	18442	146.787026814219	9763
1	18447	146.794196741495	9759
1	18455	146.839181964669	9735
1	18465	146.90326086619	9702
1	18470	146.921344444559	9692
1	18473	146.928566896065	9689
1	18479	147	9651
1	18530	147.5	9546
1	18587	148	9020
1	18649	148.5	8743
1	18711	149	8542
1	18756	149.5	8215
1	18809	150	8972
1	18875	150.5	9130
1	18994	151	9110
1	19038	151.5	8261
1	19091	152	8255
1	19124	152.5	8720
1	19200	153	8150
1	19266	153.5	8382
1	19356	154	8656
1	19426	154.5	8931
1	19500	155	9205
1	19571	155.5	9479
1	19628	156	9536
1	19715	156.5	9219
1	19773	157	8903
1	19821	157.5	8474
1	19875	158	8963
1	19914	158.5	8910
1	19962	159	8278
1	20022	159.5	8598
1	20072	160	8615
1	20139	160.5	8513
1	20204	161	9120
1	20273	161.5	9187
1	20348	162	8547
1	20426	162.5	8989
1	20472	163	8681
1	20553	163.5	9713
1	20604	164	8716
1	20668	164.5	9408
1	20748	165	9379
1	20798	165.5	9173
1	20852	166	8721
1	20882	166.5	8270
1	20945	167	8320
1	20997	167.5	8389
1	21033	168	8458
1	21079	168.5	8527
1	21146	169	9556
1	21222	169.5	9554
1	21281	170	9275
1	21333	170.5	8497
1	21378	171	8331
1	21403	171.5	9129
1	21466	172	9903
1	21469	172.023484248131	9837
1	21475	172.081738291495	9672
1	21481	172.1308884703	9533
1	21487	172.226715474783	9262
1	21496	172.360145296165	8884
1	21504	172.5	8717
1	21545	173	8223
1	21609	173.5	8303
1	21696	174	8271
1	21770	174.5	8274
1	21839	175	8277
1	21887	175.5	8488
1	21950	176	8860
1	22007	176.5	9152
1	22091	177	9517
1	22125	177.5	9873
1	22129	177.513602926358	9839
1	22134	177.537662031997	9779
1	22139	177.577222315288	9681
1	22145	177.639574232874	9525
1	22151	177.746891528036	9258
1	22156	177.790813471507	9148
1	22162	177.876839442612	8953
1	22167	177.921487802658	8920
1	22174	177.977833132064	8879
1	22179	178	8863
1	22224	178.5	8497
1	22277	179	8132
1	22327	179.5	9714
1	22360	180	8666
1	22422	180.5	9410
1	22472	181	9583
1	22475	181.01001366692	9586
1	22480	181.044740623438	9595
1	22486	181.068744301744	9601
1	22492	181.114664103955	9613
1	22501	181.27022419512	9652
1	22508	181.336537023848	9669
1	22514	181.412995689314	9251
1	22522	181.463155951168	9069
1	22526	181.5	9121
1	22591	182	9759
1	22596	182.092010248155	9842
1	22601	182.106364948125	9793
1	22609	182.152324406362	9635
1	22615	182.220111863946	9398
1	22622	182.343808634406	8953
1	22628	182.368914060266	8863
1	22631	182.3768120632	8834
1	22639	182.5	8655
1	22684	183	9041
1	22697	183.5	9428
1	22745	184	9814
1	22750	184.031017595487	9838
1	22755	184.067655072597	9866
1	22761	184.105109902395	9895
1	22767	184.112184182334	9901
1	22770	184.119254175264	9906
1	22778	184.145904621822	9901
1	22783	184.164359861292	9874
1	22788	184.187384430803	9841
1	22793	184.220042626575	9794
1	22798	184.233404027237	9775
1	22804	184.349062844251	9609
1	22812	184.440483193376	9477
1	22819	184.5	9392
1	22893	185	8674
1	22953	185.5	8195
1	23033	186	9458
1	23063	186.5	8941
1	23141	187	8642
1	23215	187.5	8518
1	23286	188	8781
1	23350	188.5	8537
1	23391	189	8194
1	23444	189.5	8157
1	23486	190	8120
1	23542	190.5	8444
1	23627	191	9370
1	23630	191.008601991415	9400
1	23636	191.047344238408	9528
1	23639	191.05469100583	9532
1	23647	191.073532169677	9543
1	23653	191.130756382823	9574
1	23659	191.209676404923	9618
1	23664	191.237669479563	9633
1	23667	191.244936166992	9637
1	23672	191.252199838259	9641
1	23680	191.263599724485	9647
1	23685	191.278413967167	9656
1	23690	191.309410564997	9673
1	23696	191.387068206905	9716
1	23701	191.429868909083	9739
1	23704	191.437056505345	9743
1	23711	191.446264137719	9748
1	23714	191.453445097916	9752
1	23722	191.46847752597	9760
1	23728	191.479013400107	9766
1	23731	191.486181124866	9770
1	23738	191.5	9778
1	23743	191.539339984399	9799
1	23746	191.546483570479	9803
1	23757	191.767392037324	9925
1	23763	191.786740511255	9936
1	23768	191.803004902961	9945
1	23773	191.826200570173	9958
1	23780	191.87855812178	9947
1	23785	191.928834905548	9902
1	23791	191.964611127368	9870
1	23796	192	9839
1	23867	192.5	9392
1	23928	193	8945
1	24005	193.5	8499
1	24074	194	8481
1	24114	194.5	8534
1	24172	195	9750
1	24218	195.5	9729
1	24222	195.55837884193	9729
1	24227	195.589588191205	9737
1	24234	195.639401791345	9751
1	24239	195.659105104709	9756
1	24245	195.710236562447	9770
1	24252	195.763073215094	9785
1	24255	195.770227021941	9787
1	24262	195.80588688094	9796
1	24268	195.949292813447	9836
1	24272	196	9850
1	24275	196.011501434719	9853
1	24281	196.020895567848	9855
1	24291	196.166776035764	9895
1	24297	196.211663616134	9908
1	24303	196.22358221381	9911
1	24310	196.299371668245	9932
1	24316	196.339683284846	9943
1	24325	196.400903673493	9914
1	24328	196.407964395704	9909
1	24335	196.41812997554	9901
1	24340	196.43425281566	9889
1	24345	196.477686085068	9856
1	24350	196.488411100217	9847
1	24354	196.5	9839
1	24357	196.509046701257	9832
1	24362	196.579883183398	9778
1	24370	196.721390449531	9670
1	24375	196.771371039831	9632
1	24382	196.86643411172	9559
1	24388	196.882054705596	9547
1	24391	196.88938685182	9542
1	24399	196.952295679976	9494
1	24403	197	9458
1	24456	197.5	9077
1	24510	198	9655
1	24578	198.5	8654
1	24669	199	8594
1	24731	199.5	8942
1	24782	200	8200
1	24823	200.5	8863
1	24880	201	9935
1	24887	201.022970147137	9933
1	24892	201.031697756241	9932
1	24897	201.097771196433	9926
1	24904	201.163750906936	9919
1	24907	201.170808069956	9918
1	24916	201.205735680291	9915
1	24921	201.263646069826	9909
1	24926	201.334182613163	9902
1	24932	201.405341495902	9895
1	24938	201.427541666424	9893
1	24943	201.449771597437	9891
1	24950	201.5	9659
1	24955	201.544427566891	9307
1	24960	201.591400581864	8934
1	24967	201.639082946991	8556
1	24972	201.65533453672	8427
1	24984	201.7615531836	8557
1	24991	201.802239377591	8938
1	24997	201.843429970476	9325
1	25004	201.904770492232	9330
1	25008	201.91227317176	9325
1	25018	201.957532670499	9296
1	25023	202	9268
1	25080	202.5	8473
1	25140	203	9925
1	25144	203.046083248995	9920
1	25153	203.141126967571	9909
1	25156	203.148191252564	9908
1	25163	203.161642003415	9907
1	25166	203.168707714528	9906
1	25173	203.182047719423	9904
1	25178	203.274585723822	9894
1	25184	203.321039387669	9809
1	25192	203.459574906017	9114
1	25197	203.467255397568	9075
1	25201	203.474968896191	9036
1	25208	203.496421442995	8929
1	25209	203.5	8911
1	25295	204	9015
1	25376	204.5	8542
1	25433	205	8771
1	25512	205.5	8802
1	25587	206	8715
1	25666	206.5	8829
1	25728	207	9126
1	25812	207.5	9438
1	25854	208	9910
1	25858	208.044717654365	9896
1	25865	208.092458883751	9882
1	25871	208.113802001753	9876
1	25874	208.120889891587	9874
1	25884	208.192522518537	9852
1	25887	208.19962767485	9850
1	25894	208.253189890628	9834
1	25897	208.260308052109	9832
1	25904	208.297617644606	9821
1	25911	208.344026137101	9807
1	25916	208.355480018794	9804
1	25924	208.460179540604	9773
1	25929	208.5	9761
1	25932	208.501501531027	9761
1	25937	208.509691257683	9758
1	25940	208.516864858831	9756
1	25954	208.689819979204	9705
1	25957	208.697032756123	9702
1	25964	208.736412467291	9691
1	25969	208.753380354233	9686
1	25975	208.825403115379	9664
1	25979	208.832646492862	9662
1	25986	208.87555074015	9649
1	25992	208.900803493744	9642
1	25998	208.957437407006	9625
1	26006	208.997925231376	9613
1	26007	209	9612
1	26014	209.096115141187	9584
1	26019	209.110946082612	9579
1	26026	209.126757800165	9575
1	26029	209.134068505126	9572
1	26037	209.150367000634	9568
1	26043	209.233220180704	9543
1	26053	209.302763622333	9172
1	26058	209.311665285135	9093
1	26061	209.319363514542	9025
1	26073	209.407004096026	8788
1	26078	209.452561782181	8868
1	26083	209.474223768517	8906
1	26088	209.5	8951
1	26165	210	8897
1	26217	210.5	8349
1	26297	211	9716
1	26385	211.5	8599
1	26447	212	9124
1	26490	212.5	8572
1	26544	213	9272
1	26623	213.5	9428
1	26685	214	8810
1	26767	214.5	8398
1	26840	215	8386
1	26911	215.5	8373
1	26944	216	8361
1	26987	216.5	8855
1	27025	217	8726
1	27075	217.5	8843
1	27165	218	9049
1	27242	218.5	9413
1	27316	219	9555
1	27388	219.5	9169
1	27415	220	8652
1	27489	220.5	8069
1	27540	221	8848
1	27597	221.5	9625
1	27685	222	9555
1	27745	222.5	8706
1	27828	223	8786
1	27904	223.5	9749
1	27963	224	9040
1	28025	224.5	8610
1	28086	225	9300
1	28150	225.5	9679
1	28154	225.528499521949	9651
1	28159	225.550028093693	9630
1	28164	225.576854746715	9603
1	28170	225.601151610108	9579
1	28173	225.608459262264	9572
1	28183	225.679117334796	9502
1	28189	225.726482949764	9455
1	28199	225.923199605999	9396
1	28206	225.98953750053	9376
1	28210	226	9373
1	28275	226.5	8870
1	28356	227	8809
1	28415	227.5	9420
1	28419	227.601934046349	9227
1	28424	227.627308246472	9179
1	28430	227.744662272568	8956
1	28441	227.87055546174	9205
1	28449	228	9092
1	28520	228.5	8542
1	28583	229	9523
1	28668	229.5	9137
1	28721	230	9194
1	28768	230.5	9262
1	28819	231	9328
1	28894	231.5	8962
1	28974	232	9551
1	29048	232.5	8826
1	29105	233	9751
1	29108	233.025614964491	9749
1	29113	233.041206226983	9747
1	29118	233.06604180322	9744
1	29123	233.075361177107	9743
1	29126	233.082545822493	9742
1	29133	233.116750016739	9739
1	29138	233.124825493242	9738
1	29141	233.132013827602	9737
1	29149	233.164291879386	9734
1	29156	233.273103210744	9722
1	29162	233.28149501193	9721
1	29167	233.29381114773	9720
1	29172	233.330310846735	9716
1	29177	233.338400772545	9715
1	29183	233.414580627084	9707
1	29188	233.5	9698
1	29191	233.554119855204	9692
1	29197	233.561601586756	9691
1	29205	233.586913668489	9509
1	29210	233.595740789499	9412
1	29215	233.60599739068	9299
1	29220	233.626069473053	9078
1	29226	233.655002141135	8885
1	29231	233.669660928481	8874
1	29238	233.730699172312	8828
1	29243	233.74829198816	8815
1	29248	233.761001518485	8805
1	29251	233.768951546878	8799
1	29256	233.776906996361	8793
1	29265	233.957114862798	8656
1	29270	233.988619015263	8633
1	29274	234	8624
1	29348	234.5	8246
1	29437	235	9156
1	29492	235.5	9297
1	29577	236	9438
1	29652	236.5	9402
1	29720	237	8680
1	29766	237.5	9049
1	29823	238	9088
1	29885	238.5	8635
1	29943	239	8143
1	29977	239.5	8271
1	30056	240	8399
1	30111	240.5	8571
1	30166	241	8668
1	30221	241.5	8668
1	30292	242	8456
1	30328	242.5	8451
1	30386	243	8654
1	30437	243.5	8721
1	30474	244	9175
1	30515	244.5	8709
1	30561	245	8244
1	30619	245.5	8539
1	30693	246	9227
1	30753	246.5	9740
1	30802	247	9684
1	30807	247.03367335137	9680
1	30812	247.041859893382	9679
1	30817	247.075033232565	9675
1	30822	247.137856323961	9668
1	30825	247.145096704598	9668
1	30834	247.219642766214	9659
1	30839	247.238204276532	9657
1	30850	247.431975823558	9635
1	30855	247.441393561652	9634
1	30860	247.5	9627
1	30928	248	9864
1	30934	248.059510900679	9813
1	30939	248.067041928609	9797
1	30945	248.132486762488	9655
1	30950	248.158377151754	9599
1	30955	248.189904455817	9531
1	30960	248.259451262465	9380
1	30966	248.277342874975	9342
1	30972	248.299271999123	9294
1	30977	248.306803740031	9278
1	30982	248.314348469499	9262
1	30985	248.321906232401	9245
1	30992	248.354193034341	9175
1	30997	248.397489713971	9081
1	31005	248.466821453773	8950
1	31008	248.474642682823	8955
1	31014	248.5	8971
1	31068	249	9290
1	31113	249.5	9608
1	31168	250	8392
1	31239	250.5	8664
1	31307	251	9780
1	31314	251.151817859533	9600
1	31319	251.176710836292	9571
1	31324	251.208884993683	9533
1	31329	251.216777805383	9523
1	31335	251.259277871312	9473
1	31343	251.308610645676	9451
1	31348	251.319799848186	9460
1	31359	251.5	9617
1	31365	251.590597111807	9534
1	31370	251.600804371566	9520
1	31375	251.640014370205	9465
1	31378	251.647410038456	9454
1	31386	251.731585270663	9336
1	31391	251.744017971459	9319
1	31400	251.993078302903	8969
1	31401	252	8960
1	31459	252.5	8551
1	31498	253	9319
1	31602	253.5	9028
1	31666	254	9254
1	31730	254.5	9605
1	31796	255	9473
1	31866	255.5	8608
1	31904	256	9040
1	31950	256.5	8981
1	32041	257	8595
1	32116	257.5	8227
1	32206	258	9508
1	32238	258.5	9766
1	32280	259	9293
1	32352	259.5	8470
1	32403	260	8239
1	32489	260.5	8265
1	32532	261	9649
1	32602	261.5	9740
1	32606	261.528533468113	9741
1	32612	261.614251787648	9744
1	32617	261.624692685448	9745
1	32622	261.7333163353	9750
1	32627	261.796134183118	9752
1	32630	261.803312197884	9753
1	32637	261.824726783716	9753
1	32642	261.850098511946	9754
1	32645	261.857275054903	9755
1	32652	261.906378430957	9757
1	32659	261.951770064805	9759
1	32664	262	9761
1	32719	262.5	9782
1	32722	262.511208852383	9783
1	32728	262.562373211057	9785
1	32733	262.570527027533	9785
1	32738	262.61976278654	9787
1	32744	262.678191107008	9790
1	32750	262.723215256422	9792
1	32757	262.77854601415	9794
1	32762	262.801518671653	9795
1	32768	262.842699585106	9797
1	32772	262.849844629507	9797
1	32780	262.881604378565	9798
1	32785	262.913691795716	9800
1	32789	263	9803
1	32792	263.018333847265	9804
1	32801	263.096671342137	9807
1	32808	263.125759029273	9809
1	32813	263.166174465052	9810
1	32817	263.173310040995	9805
1	32822	263.180449255681	9794
1	32829	263.219538823549	9735
1	32832	263.226729373112	9724
1	32839	263.241244827918	9702
1	32844	263.30060274966	9612
1	32850	263.31477205299	9608
1	32855	263.337362185292	9604
1	32860	263.356000343427	9599
1	32867	263.486203012069	9571
1	32871	263.5	9568
1	32876	263.539460886087	9559
1	32882	263.54775558473	9557
1	32887	263.555494985193	9556
1	32892	263.567583106538	9553
1	32898	263.604758034182	9545
1	32904	263.660101232763	9533
1	32910	263.678384954723	9529
1	32915	263.711449415727	9522
1	32920	263.763143749499	9510
1	32926	263.820546915928	9498
1	32932	263.828243833001	9496
1	32939	263.874569090907	9486
1	32945	263.894061240915	9482
1	32953	263.983683171122	9462
1	32957	264	9459
1	33029	264.5	9349
1	33114	265	8797
1	33151	265.5	8342
1	33204	266	8798
1	33262	266.5	9496
1	33307	267	9277
1	33394	267.5	9059
1	33444	268	8840
1	33507	268.5	9412
1	33578	269	8329
1	33619	269.5	9357
1	33659	270	9134
1	33720	270.5	9646
1	33728	270.644997664382	9609
1	33733	270.657649445617	9604
1	33742	270.826637236637	9532
1	33749	270.981929943268	9467
1	33753	271	9459
1	33797	271.5	9248
1	33857	272	9805
1	33918	272.5	9503
1	33976	273	9174
1	34048	273.5	8846
1	34082	274	8566
1	34150	274.5	9539
1	34191	275	9242
1	34231	275.5	8944
1	34289	276	8432
1	34378	276.5	9554
1	34384	276.550429741294	9467
1	34393	276.596103454051	8946
1	34405	276.690133715218	9234
1	34411	276.771660646903	9185
1	34416	276.818489234165	9157
1	34421	276.826297602356	9152
1	34428	276.846390485825	9140
1	34431	276.854049129151	9135
1	34439	276.872338269281	9125
1	34445	276.895247601368	9111
1	34450	276.926985734136	9092
1	34457	276.962964108758	9070
1	34461	276.970681859585	9065
1	34468	277	9048
1	34543	277.5	9362
1	34600	278	9085
1	34696	278.5	8348
1	34764	279	9457
1	34839	279.5	9473
1	34896	280	8693
1	34971	280.5	8965
1	35027	281	9324
1	35085	281.5	9701
1	35124	282	8633
1	35184	282.5	9205
1	35253	283	8674
1	35336	283.5	9124
1	35425	284	8359
1	35488	284.5	8619
1	35537	285	9059
1	35634	285.5	9425
1	35679	286	8613
1	35730	286.5	8826
1	35785	287	8590
1	35865	287.5	9360
1	35869	287.506031895188	9362
1	35874	287.539592876834	9373
1	35880	287.556208494144	9379
1	35889	287.721484582546	9446
1	35895	287.735281484087	9452
1	35901	287.753227435593	9459
1	35907	287.808168445691	9481
1	35912	287.890954171465	9515
1	35915	287.89831097651	9518
1	35922	287.941762497332	9536
1	35930	288	9559
1	35974	288.5	9762
1	35978	288.6029239793	9804
1	35985	288.684790506075	9837
1	35992	288.803871459483	9777
1	35997	288.877912644636	9632
1	36003	288.917728306023	9554
1	36009	289	9392
1	36070	289.5	9002
1	36151	290	9393
1	36231	290.5	9640
1	36317	291	9474
1	36379	291.5	9102
1	36456	292	8032
1	36513	292.5	8201
1	36561	293	8369
1	36609	293.5	8538
1	36649	294	8549
1	36699	294.5	8270
1	36745	295	9091
1	36817	295.5	9732
1	36820	295.525083132022	9355
1	36827	295.601096492828	8212
1	36834	295.659539447985	8091
1	36839	295.683232517043	8110
1	36844	295.733678455254	8152
1	36849	295.785161841799	8194
1	36857	296	8420
1	36918	296.5	8559
1	36963	297	8382
1	37002	297.5	8293
1	37067	298	8703
1	37118	298.5	9188
1	37185	299	9273
1	37251	299.5	9107
1	37312	300	8758
1	37357	300.5	8132
1	37423	301	8786
1	37499	301.5	9453
1	37567	302	9498
1	37573	302.012481565645	9438
1	37576	302.019898391244	9402
1	37581	302.027343615664	9366
1	37588	302.051269521183	9251
1	37594	302.061087986114	9204
1	37597	302.068693375075	9168
1	37606	302.145633624704	8798
1	37612	302.207135354918	8503
1	37621	302.249400772644	8300
1	37627	302.26349542573	8232
1	37637	302.324121844051	8209
1	37644	302.372643220682	8243
1	37654	302.460646313205	8303
1	37659	302.5	8330
1	37721	303	8732
1	37754	303.5	8963
1	37805	304	8668
1	37881	304.5	8989
1	37943	305	9481
1	37950	305.160841242273	9631
1	37956	305.183544045057	9634
1	37959	305.19080997821	9634
1	37967	305.209854901244	9636
1	37970	305.217119326317	9637
1	37979	305.271318151477	9643
1	37982	305.278577303193	9643
1	37990	305.331872210832	9649
1	37995	305.363205950771	9652
1	38001	305.390323115419	9655
1	38008	305.490415584431	9665
1	38012	305.5	9666
1	38016	305.574986840888	9674
1	38021	305.60256433184	9677
1	38027	305.610824133214	9678
1	38037	305.752574554543	9547
1	38042	305.794262067209	9270
1	38047	305.817468104272	9116
1	38053	305.859786420415	8835
1	38057	305.867709453805	8783
1	38065	305.87927950381	8706
1	38075	305.937899554661	8335
1	38081	306	8492
1	38154	306.5	9719
1	38232	307	9770
1	38277	307.5	9696
1	38338	308	9836
1	38342	308.019658179986	9753
1	38347	308.057231431453	9595
1	38350	308.064526897842	9564
1	38358	308.21203704398	8945
1	38364	308.249467362944	8787
1	38370	308.330105104023	8448
1	38376	308.352471511545	8387
1	38383	308.480930468627	8428
1	38388	308.5	8434
1	38468	309	8596
1	38542	309.5	8790
1	38594	310	9399
1	38598	310.033039437091	9439
1	38607	310.115333001965	9540
1	38613	310.133541126415	9562
1	38618	310.153599679955	9586
1	38624	310.165705482181	9601
1	38629	310.188841552813	9629
1	38635	310.301773242138	9767
1	38640	310.312720711735	9780
1	38648	310.427761233617	9920
1	38656	310.5	9968
1	38661	310.564609475133	9920
1	38668	310.610406708722	9885
1	38675	310.651362042846	9855
1	38687	310.888522632895	9677
1	38694	311	9594
1	38746	311.5	9071
1	38812	312	8542
1	38898	312.5	8250
1	38955	313	8692
1	39029	313.5	8914
1	39103	314	9554
1	39160	314.5	9351
1	39225	315	9233
1	39306	315.5	9208
1	39400	316	9183
1	39488	316.5	9158
1	39537	317	9134
1	39596	317.5	9348
1	39649	318	9662
1	39692	318.5	8898
1	39761	319	9020
1	39820	319.5	9154
1	39882	320	9838
1	39888	320.040833001937	9847
1	39896	320.143958258611	9869
1	39901	320.22512312839	9887
1	39907	320.284140396017	9900
1	39910	320.291211103088	9901
1	39917	320.331468840065	9910
1	39920	320.338532412214	9912
1	39929	320.391435223985	9923
1	39934	320.404185022436	9926
1	39940	320.442082041638	9934
1	39945	320.449371065289	9936
1	39948	320.456416153856	9937
1	39956	320.486984380465	9944
1	39960	320.5	9947
1	39963	320.504326766992	9948
1	39966	320.511363357261	9949
1	39975	320.602787707532	9969
1	39980	320.645790386179	9979
1	39986	320.663082295637	9982
1	39991	320.670094918358	9984
1	39994	320.677106136307	9985
1	40003	320.750095706168	9618
1	40013	320.80737173602	9350
1	40020	320.844577749749	9348
1	40026	320.868428845292	9347
1	40031	320.879840949758	9346
1	40036	320.889625758094	9346
1	40049	321	9339
1	40118	321.5	9472
1	40197	322	9206
1	40291	322.5	9069
1	40350	323	9028
1	40435	323.5	8488
1	40491	324	8406
1	40555	324.5	8579
1	40626	325	8753
1	40702	325.5	8328
1	40747	326	8197
1	40828	326.5	8246
1	40886	327	8294
1	40945	327.5	8485
1	40994	328	9280
1	41036	328.5	8590
1	41120	329	9263
1	41172	329.5	9936
1	41176	329.532330327352	9980
1	41183	329.5692656584	9814
1	41190	329.628657031238	9452
1	41195	329.64883454952	9329
1	41200	329.656869903612	9279
1	41206	329.688479864234	9086
1	41211	329.712479466425	8940
1	41218	329.771508892616	8579
1	41224	329.802301615716	8391
1	41230	329.814927433146	8358
1	41235	329.823302642526	8368
1	41238	329.831667843291	8378
1	41247	329.884186238964	8443
1	41255	329.957970106355	8517
1	41260	330	8496
1	41339	330.5	8376
1	41384	331	8290
1	41426	331.5	8317
1	41482	332	8396
1	41544	332.5	9503
1	41585	333	8334
1	41648	333.5	9730
1	41652	333.53829577571	9824
1	41655	333.545421182876	9820
1	41669	333.847193105687	9679
1	41675	333.878870304546	9664
1	41680	333.894636100125	9656
1	41685	334	9607
1	41733	334.5	9372
1	41790	335	9137
1	41844	335.5	8899
1	41929	336	8658
1	41987	336.5	8416
1	42084	337	8922
1	42171	337.5	9351
1	42245	338	9228
1	42291	338.5	9105
1	42336	339	8982
1	42399	339.5	8859
1	42449	340	8736
1	42520	340.5	8695
1	42586	341	8748
1	42644	341.5	8904
1	42736	342	9045
1	42806	342.5	8536
1	42873	343	9321
1	42947	343.5	8906
1	43014	344	8825
1	43084	344.5	9680
1	43091	344.54323983203	9637
1	43099	344.733309649742	8635
1	43108	344.858368029549	9144
1	43111	344.866023322637	9263
1	43117	344.87358026963	9336
1	43124	344.933426665147	9351
1	43129	344.996219958689	9367
1	43131	345	9368
1	43211	345.5	9492
1	43277	346	9412
1	43333	346.5	8580
1	43417	347	8337
1	43494	347.5	8396
1	43548	348	8397
1	43593	348.5	8356
1	43685	349	8316
1	43735	349.5	8402
1	43782	350	9002
1	43825	350.5	9020
1	43886	351	8991
1	43939	351.5	8962
1	44038	352	8932
1	44091	352.5	8903
1	44149	353	8837
1	44214	353.5	8539
1	44255	354	8536
1	44297	354.5	8641
1	44360	355	9908
1	44363	355.014392860275	9908
1	44368	355.035680976836	9909
1	44374	355.051355153317	9909
1	44379	355.081544262491	9910
1	44386	355.122900787134	9911
1	44392	355.147627173681	9912
1	44396	355.154689320574	9912
1	44405	355.218023498816	9914
1	44411	355.24239573215	9915
1	44419	355.307901812933	9917
1	44423	355.314960399199	9917
1	44435	355.485021620497	9922
1	44438	355.492076649725	9922
1	44445	355.5	9923
1	44448	355.514002314348	9923
1	44458	355.599541850202	8933
1	44464	355.680880467854	8994
1	44469	355.731381652604	9031
1	44475	355.802954932076	9084
1	44481	355.841388413475	9112
1	44487	355.930310958666	9178
1	44492	355.971508221129	9208
1	44496	356	9229
1	44573	356.5	9562
1	44598	357	8891
1	44667	357.5	9259
1	44731	358	9028
1	44798	358.5	8796
1	44856	359	8725
1	44932	359.5	9041
1	45016	360	9356
1	45053	360.5	9534
1	45113	361	9358
1	45182	361.5	9182
1	45240	362	9207
1	45344	362.5	8333
1	45397	363	8058
1	45452	363.5	9506
1	45566	364	8519
1	45630	364.5	8826
1	45663	365	9394
1	45668	365.078850706159	9504
1	45675	365.149075889229	9116
1	45680	365.18166132234	8937
1	45685	365.195931063359	8858
1	45691	365.261165830367	8498
1	45698	365.301169470466	8277
1	45704	365.31545605144	8218
1	45710	365.358799919897	8239
1	45715	365.369516836	8245
1	45721	365.411535242766	8265
1	45726	365.478022942977	8298
1	45730	365.5	8309
1	45792	366	8618
1	45853	366.5	9091
1	45926	367	9145
1	45956	367.5	8843
1	46006	368	8378
1	46069	368.5	8667
1	46148	369	8957
1	46207	369.5	9246
1	46291	370	9536
1	46356	370.5	9825
1	46401	371	9286
1	46474	371.5	8301
1	46570	372	8136
1	46627	372.5	8149
1	46682	373	8161
1	46752	373.5	9443
1	46756	373.524057248628	9520
1	46763	373.682855838532	9117
1	46771	373.840273709868	8953
1	46776	373.859590123922	8949
1	46782	373.898592536744	8941
1	46788	374	8920
1	46842	374.5	9289
1	46897	375	8802
1	46922	375.5	9034
1	46982	376	8976
1	47065	376.5	8731
1	47118	377	8565
1	47205	377.5	9751
1	47210	377.604516350072	9596
1	47216	377.707856823095	9443
1	47221	377.723807576751	9420
1	47226	377.735586020299	9402
1	47231	377.757204037105	9370
1	47237	377.807744811759	9330
1	47244	377.903989426206	9342
1	47250	377.916298402291	9343
1	47256	377.962585871545	9348
1	47261	377.977144109355	9350
1	47266	378	9353
1	47310	378.5	9412
1	47375	379	9472
1	47452	379.5	8996
1	47529	380	9435
1	47570	380.5	9142
1	47632	381	9315
1	47699	381.5	9056
1	47750	382	8585
1	47814	382.5	8496
1	47889	383	8734
1	47970	383.5	8923
1	48019	384	8208
1	48074	384.5	8150
1	48160	385	8527
1	48195	385.5	9078
1	48263	386	9659
1	48317	386.5	8286
1	48392	387	8732
1	48430	387.5	8565
1	48472	388	8355
1	48527	388.5	8076
1	48601	389	9363
1	48641	389.5	9138
1	48693	390	8658
1	48733	390.5	8177
1	48799	391	8612
1	48838	391.5	8828
1	48895	392	8794
1	48954	392.5	8760
1	49007	393	8833
1	49040	393.5	8733
1	49112	394	9273
1	49174	394.5	9030
1	49223	395	8980
1	49297	395.5	9236
1	49341	396	9070
1	49396	396.5	8397
1	49447	397	8946
1	49523	397.5	9570
1	49591	398	9638
1	49595	398.021562134143	9656
1	49603	398.072143139601	9699
1	49608	398.183611448643	9792
1	49614	398.236060141028	9836
1	49619	398.266472791243	9862
1	49628	398.379553831741	8226
1	49633	398.424087487742	8210
1	49636	398.432613675318	8207
1	49643	398.462829157956	8196
1	49646	398.471369909542	8193
1	49652	398.5	8183
1	49712	399	9144
1	49800	399.5	9373
1	49888	400	9602
2	1238	10	8375
2	1310	10.5	8694
2	1372	11	9114
2	1427	11.5	9534
2	1496	12	8543
2	1562	12.5	9161
2	1649	13	9049
2	1727	13.5	8533
2	1796	14	9659
2	1844	14.5	9601
2	1874	15	9542
2	1967	15.5	9791
2	1974	15.549929266483	9574
2	1979	15.622653946857	9258
2	1988	15.736683685996	9016
2	1996	15.872726150382	8962
2	2001	15.909196877581	8947
2	2004	15.917020729151	8944
2	2012	16	8911
2	2089	16.5	8712
2	2132	17	8552
2	2224	17.5	8335
2	2276	18	8765
2	2357	18.5	9345
2	2456	19	8871
2	2539	19.5	9332
2	2601	20	8182
2	2655	20.5	8182
2	2715	21	8985
2	2790	21.5	9006
2	2859	22	9210
2	2915	22.5	9415
2	2963	23	9619
2	3041	23.5	9740
2	3051	23.580849387297	9757
2	3058	23.608173139888	9762
2	3066	23.665662850424	9774
2	3070	23.671263965389	9776
2	3083	23.789523044746	9761
2	3088	23.826490054903	9740
2	3091	23.833676913219	9736
2	3099	23.857286625395	9723
2	3107	23.948832373162	9672
2	3113	23.962178954823	9664
2	3119	24	9643
2	3125	24.110264682619	9581
2	3131	24.151728170028	9558
2	3139	24.194349494973	9534
2	3144	24.206426290556	9527
2	3147	24.213773829131	9523
2	3154	24.221124453934	9519
2	3157	24.228478167559	9515
2	3164	24.267253782708	9493
2	3170	24.293844841879	9478
2	3176	24.311824425615	9468
2	3185	24.342474472083	9451
2	3192	24.455186600008	9388
2	3200	24.487657644977	9370
2	3204	24.5	9363
2	3262	25	8768
2	3334	25.5	9375
2	3376	26	9214
2	3459	26.5	8923
2	3523	27	9784
2	3526	27.035493321834	9758
2	3531	27.0777486998	9726
2	3544	27.368316628154	9509
2	3549	27.375678075204	9503
2	3552	27.383044170121	9498
2	3560	27.412051565064	9476
2	3565	27.425610543066	9466
2	3571	27.5	9345
2	3632	28	8499
2	3710	28.5	9120
2	3763	29	9767
2	3832	29.5	9464
2	3891	30	9195
2	3943	30.5	8997
2	4030	31	8800
2	4094	31.5	8602
2	4126	32	8750
2	4191	32.5	8908
2	4241	33	9248
2	4281	33.5	8988
2	4348	34	8549
2	4408	34.5	9015
2	4471	35	8851
2	4520	35.5	8688
2	4583	36	9446
2	4655	36.5	9902
2	4660	36.540909059836	9918
2	4667	36.576159465838	9732
2	4674	36.631294304969	9441
2	4677	36.638708773775	9402
2	4684	36.653111704512	9326
2	4690	36.683034413216	9168
2	4699	36.791641578022	8877
2	4704	36.835527834296	8861
2	4710	37	8801
2	4792	37.5	8617
2	4855	38	8622
2	4914	38.5	8796
2	4972	39	8970
2	5045	39.5	9266
2	5109	40	8197
2	5175	40.5	8158
2	5227	41	8120
2	5267	41.5	8081
2	5334	42	8702
2	5429	42.5	9510
2	5493	43	8658
2	5542	43.5	8445
2	5620	44	9505
2	5691	44.5	9105
2	5783	45	9227
2	5844	45.5	9809
2	5847	45.560713698283	9710
2	5850	45.567922761105	9699
2	5857	45.584669296678	9672
2	5860	45.591906682948	9660
2	5867	45.645382778154	9573
2	5876	45.755681210036	9393
2	5880	45.763133568175	9381
2	5888	45.807750596026	9309
2	5893	45.83661361084	9262
2	5898	45.872949092381	9203
2	5904	45.936095861421	9100
2	5908	46	8996
2	5947	46.5	9059
2	6005	47	9901
2	6008	47.011214315366	9893
2	6013	47.026333734401	9882
2	6016	47.03341732072	9877
2	6027	47.112293216229	9819
2	6032	47.119647495758	9814
2	6040	47.209589921116	9748
2	6047	47.289482552893	9689
2	6054	47.319637368414	9667
2	6067	47.5	9535
2	6135	48	9169
2	6187	48.5	9943
2	6191	48.511567478855	9941
2	6200	48.642224065877	9910
2	6206	48.662436400839	9906
2	6211	48.709119433623	9895
2	6216	48.71630984655	9893
2	6222	48.739425137296	9888
2	6225	48.745160694884	9886
2	6235	48.782647927114	9878
2	6240	48.801993914189	9873
2	6246	48.827304231578	9867
2	6252	48.839083294821	9865
2	6263	48.981628828731	9831
2	6267	49	9827
2	6271	49.02433221541	9778
2	6276	49.134858803082	9533
2	6281	49.293825992644	9180
2	6286	49.380684575248	8987
2	6291	49.392902792762	8960
2	6299	49.4535094728	8825
2	6304	49.473467933405	8781
2	6309	49.5	8771
2	6387	50	8594
2	6444	50.5	9573
2	6524	51	9077
2	6580	51.5	8615
2	6647	52	8919
2	6680	52.5	9023
2	6749	53	8916
2	6795	53.5	8779
2	6844	54	8641
2	6879	54.5	8839
2	6956	55	9094
2	7031	55.5	8959
2	7102	56	8535
2	7170	56.5	8182
2	7239	57	9422
2	7289	57.5	9490
2	7383	58	8969
2	7434	58.5	9289
2	7437	58.523211197361	9280
2	7442	58.539619252216	9273
2	7448	58.656311235729	9224
2	7455	58.83548176032	9149
2	7460	59	9081
2	7516	59.5	8873
2	7564	60	9210
2	7618	60.5	8748
2	7686	61	9152
2	7759	61.5	9557
2	7834	62	8586
2	7915	62.5	8963
2	7995	63	9404
2	8075	63.5	8081
2	8157	64	9088
2	8208	64.5	8873
2	8263	65	8657
2	8359	65.5	8442
2	8439	66	8998
2	8481	66.5	9357
2	8569	67	9335
2	8636	67.5	9459
2	8696	68	8884
2	8735	68.5	8589
2	8781	69	8972
2	8822	69.5	8895
2	8880	70	8818
2	8939	70.5	8508
2	9023	71	9194
2	9087	71.5	9314
2	9125	72	9816
2	9129	72.039161926716	9848
2	9134	72.048843256255	9856
2	9139	72.064400310895	9868
2	9144	72.074064462548	9876
2	9151	72.090820718509	9862
2	9157	72.106023416746	9816
[...]
24	21542	172.993388976894	0.77091157965712
24	21671	173.764300556551	0.35507037740995
24	21712	174.119370933961	0.084873665927266
24	21718	174.204244599888	0.0046550715228311
24	21719	174.208899671411	0.49441934450001
24	21800	174.703319015911	0.5121861448665
24	21870	175.215505160777	0.063084997244468
24	21875	175.278590158021	0.2687814011645
24	21890	175.547371559185	0.039810268028552
24	21893	175.587181827214	0.08001225258482
24	21899	175.667194079799	0.049721517522667
24	21905	175.716915597322	0.081633965769283
24	21912	175.798549563091	0.90361841462306
24	22051	176.702167977714	0.31764772302643
24	22093	177.01981570074	1.0433264721573
24	22188	178.063142172897	2.2317346131437
24	22384	180.294876786041	0.52072735775118
24	22450	180.815604143792	0.35467682983908
24	22497	181.170280973631	0.57090406167697
24	22557	181.741185035308	0.39737464014505
24	22607	182.138559675453	0.34492883609515
24	22638	182.483488511548	0.57448783974555
24	22686	183.057976351294	0.44631728155153
24	22703	183.504293632846	0.034450073237639
24	22710	183.538743706084	0.31811845473521
24	22728	183.856862160819	0.94234989991728
24	22861	184.799212060736	0.76481631468015
24	22967	185.564028375416	0.46890561881763
24	23035	186.032933994234	0.36539986861508
24	23060	186.398333862849	0.075213159664519
24	23062	186.473547022514	0.35106000764584
24	23111	186.82460703016	0.65209751938334
24	23213	187.476704549543	0.12760320387917
24	23231	187.604307753422	0.14398081670268
24	23258	187.748288570125	0.15981765642246
24	23263	187.908106226547	0.45904884966115
24	23337	188.367155076208	0.47421914657891
24	23376	188.841374222787	1.3052904992846
24	23510	190.146664722072	0.53320265831601
24	23577	190.679867380388	0.27751732683968
24	23616	190.957384707228	0.50913071405989
24	23720	191.466515421288	0.14773723574322
24	23752	191.614252657031	0.052549047866939
24	23754	191.666801704898	0.10744298756216
24	23758	191.77424469246	0.55801145421869
24	23841	192.332256146679	0.024588551617684
24	23851	192.356844698297	0.0017489821733949
24	23852	192.35859368047	0.022742159486953
24	23853	192.381335839957	0.29327663599977
24	23887	192.674612475957	0.0016177441527793
24	23888	192.67623022011	0.047052292905868
24	23894	192.723282513016	0.18667571970263
24	23917	192.909958232719	0.29517346698339
24	23964	193.205131699702	0.29317920124039
24	24004	193.498310900942	1.4107444744517
24	24163	194.909055375394	0.4366711673941
24	24203	195.345726542788	0.87110100823617
24	24298	196.216827551024	0.12111730293842
24	24314	196.337944853962	0.32181473987376
24	24367	196.659759593836	0.41855603244107
24	24411	197.078315626277	0.21425532777691
24	24420	197.292570954054	0.023579589072091
24	24421	197.316150543126	0.86469817522136
24	24538	198.180848718347	0.67241904547724
24	24632	198.853267763824	0.033164653901151
24	24639	198.886432417725	0.38542252335835
24	24702	199.271854941083	0.18192931604372
24	24726	199.453784257127	0.68721864598074
24	24791	200.141002903108	0.31398262785019
24	24822	200.454985530958	0.56424565327061
24	24885	201.019231184229	0.15522024799065
24	24910	201.17445143222	0.42496513654634
24	24964	201.599416568766	0.66759043782567
24	25047	202.267007006592	0.0904786610003
24	25064	202.357485667592	0.26387590733702
24	25094	202.621361574929	0.85118971685307
24	25200	203.472551291782	0.067340118261126
24	25230	203.539891410043	0.063648868175104
24	25241	203.603540278218	0.063179751851324
24	25254	203.666720030069	0.18202139419259
24	25274	203.848741424262	0.23633081847346
24	25311	204.085072242735	0.2166284115593
24	25346	204.301700654294	0.12439097265425
24	25360	204.426091626948	0.52759363820922
24	25431	204.953685265157	0.8974818834616
24	25570	205.851167148619	0.64731227050992
24	25665	206.498479419129	0.72492820312747
24	25756	207.223407622256	0.8301122726413
24	25862	208.053519894897	0.0068598200364742
24	25863	208.060379714933	0.3656648369731
24	25921	208.426044551906	0.069806340176523
24	25928	208.495850892083	0.050415583283099
24	25948	208.546266475366	0.34670816284691
24	25990	208.892974638213	0.090642244487986
24	26003	208.983616882701	0.099228205089715
24	26012	209.082845087791	1.2825278498323
24	26196	210.365372937623	0.23013758526662
24	26238	210.59551052289	0.63624359093771
24	26341	211.231754113828	0.31826037331347
24	26394	211.550014487141	0.26542531509607
24	26425	211.815439802237	0.034361940120751
24	26426	211.849801742358	0.12187269936731
24	26441	211.971674441725	0.028729433902882
24	26449	212.000403875628	0.32456716822482
24	26464	212.324971043853	0.46748858838759
24	26529	212.792459632241	0.54442286566012
24	26581	213.336882497901	0.02019503105369
24	26583	213.357077528955	0.54571983403531
24	26671	213.90279736299	0.080673193105829
24	26678	213.983470556096	1.1903970271242
24	26861	215.17386758322	1.0114861155507
24	26955	216.185353698771	0.38824363836894
24	26991	216.57359733714	0.40040206706113
24	27024	216.973999404201	2.2694835682868
24	27350	219.243482972488	0.04977310396354
24	27352	219.293256076452	0.31894039929634
24	27400	219.612196475748	1.3691907810205
24	27539	220.981387256769	0.13245200919087
24	27563	221.11383926596	0.15853734254335
24	27586	221.272376608503	0.28938849729747
24	27621	221.5617651058	0.17915261527732
24	27640	221.740917721077	0.081258429283608
24	27650	221.822176150361	0.38714098681922
24	27715	222.20931713718	1.5001436050186
24	27929	223.709460742199	0.29350141611935
24	27964	224.002962158318	0.91967488240254
24	28084	224.922637040721	0.2710121726133
24	28112	225.193649213334	0.33242171289684
24	28152	225.526070926231	0.096567731132438
24	28180	225.622638657363	0.098080783515282
24	28187	225.720719440878	0.014070579731852
24	28194	225.73479002061	0.69122707351149
24	28254	226.426017094121	0.11374978688671
24	28278	226.539766881008	0.25398808030553
24	28332	226.793754961314	1.0618200933627
24	28438	227.855575054677	0.0098949303852832
24	28439	227.865469985062	1.8167183769457
24	28692	229.682188362008	0.23709273401524
24	28709	229.919281096023	0.11050211255722
24	28725	230.02978320858	0.4800199990735
24	28770	230.509803207653	0.2850076516843
24	28805	230.794810859337	0.59650204025317
24	28890	231.39131289959	0.036103106195773
24	28893	231.427416005786	0.087420579757047
24	28898	231.514836585543	0.65637282513137
24	28987	232.171209410674	0.29125625584604
24	29032	232.46246566652	0.058144679059746
24	29052	232.52061034558	0.3193823292364
24	29087	232.839992674816	0.51109749755155
24	29181	233.351090172368	0.8197978112977
24	29295	234.170887983666	0.18267421941956
24	29325	234.353562203086	0.14958604996931
24	29350	234.503148253055	0.23550183982543
24	29382	234.73865009288	0.7629666353429
24	29494	235.501616728223	0.63944519669167
24	29600	236.141061924915	0.95053456824783
24	29727	237.091596493163	1.461192731164
24	29894	238.552789224327	0.98708917530709
24	29979	239.539878399634	0.32523680895236
24	30022	239.865115208586	0.28534558630218
24	30071	240.150460794888	0.40723488259491
24	30124	240.557695677483	0.20298876010975
24	30147	240.760684437593	0.37048617779308
24	30178	241.131170615386	0.29272540953896
24	30206	241.423896024925	0.32293712973962
24	30255	241.746833154665	0.40135675435577
24	30312	242.148189909021	0.35707556336752
24	30330	242.505265472389	0.0100422680683
24	30331	242.515307740457	2.3096156473619
24	30539	244.824923387819	1.4634911841582
24	30732	246.288414571977	0.12166062983189
24	30741	246.410075201809	0.071964663397568
24	30749	246.482039865207	0.073047797378865
24	30758	246.555087662586	0.1538006252386
24	30791	246.708888287825	0.43756906063834
24	30828	247.146457348463	0.69167996494545
24	30912	247.838137313408	1.0169581382904
24	31041	248.855095451698	0.37177665874411
24	31082	249.226872110442	0.0079974635380011
24	31084	249.23486957398	0.32749283684808
24	31125	249.562362410828	0.041382904376526
24	31131	249.603745315205	0.31477105179634
24	31160	249.918516367001	0.038768696026025
24	31167	249.957285063027	0.69085070058314
24	31258	250.64813576361	0.21999256706537
24	31300	250.868128330675	0.51658492927714
24	31354	251.384713259952	0.021356976276385
24	31355	251.406070236228	0.5459106969955
24	31397	251.951980933224	0.66951847489699
24	31464	252.621499408121	0.26062915793103
24	31484	252.882128566052	0.62829786290635
24	31604	253.510426428958	1.0907342257345
24	31751	254.601160654693	0.61741381631289
24	31815	255.218574471006	0.56540912175588
24	31884	255.783983592762	0.18109677206726
24	31902	255.965080364829	0.64604601547777
24	31963	256.611126380307	0.70213806776421
24	32078	257.313264448071	0.35916643008798
24	32141	257.672430878159	0.34432041977817
24	32208	258.016751297937	0.031841005588489
24	32210	258.048592303525	0.024946820126662
24	32211	258.073539123652	0.39539054733866
24	32237	258.468929670991	0.078571444487925
24	32241	258.547501115479	1.1009130867025
24	32381	259.648414202181	0.065264170537545
24	32382	259.713678372719	0.22608353049301
24	32400	259.939761903212	0.18008762726654
24	32424	260.119849530479	0.055248401373625
24	32437	260.175097931853	0.41264571115486
24	32498	260.587743643008	0.24067854840025
24	32523	260.828422191408	2.0477657384945
24	32778	262.876187929902	0.18797606154985
24	32799	263.064163991452	0.44602546639269
24	32873	263.510189457845	0.16766525542965
24	32908	263.677854713275	0.43493213235631
24	32975	264.112786845631	1.5917871697763
24	33178	265.704574015407	0.23349718356178
24	33199	265.938071198969	0.046797566944602
24	33203	265.984868765914	2.1470009073688
24	33458	268.131869673283	0.98779520089598
24	33593	269.119664874179	0.14183559818604
24	33605	269.261500472365	0.39211807390465
24	33634	269.65361854627	0.33062655736286
24	33658	269.984245103633	0.56248956489655
24	33723	270.54673466853	0.1332897395985
24	33737	270.680024408128	1.5498171121318
24	33879	272.22984152026	0.07237507385927
24	33887	272.302216594119	0.051539944876844
24	33897	272.353756538996	0.4736807127212
24	33956	272.827437251717	0.0036392190796904
24	33957	272.831076470797	0.86512942044849
24	34063	273.696205891245	1.2300228534756
24	34185	274.926228744721	0.064205739832016
24	34190	274.990434484553	0.63291897825359
24	34234	275.623353462807	0.16748074452581
24	34248	275.790834207333	0.080199763695101
24	34264	275.871033971028	0.19226136172316
24	34312	276.063295332751	0.50240506365498
24	34389	276.565700396406	0.55243036965231
24	34494	277.118130766058	0.44727958499423
24	34546	277.565410351052	0.12705968960486
24	34569	277.692470040657	0.024112191793954
24	34570	277.716582232451	0.69037768653214
24	34675	278.406959918983	0.50373677371768
24	34735	278.910696692701	5.6183095259853e-005
24	34736	278.910752875796	0.016724091869024
24	34741	278.927476967665	0.74089302537275
24	34850	279.668369993038	0.31836446441731
24	34893	279.986734457455	0.42028304750608
24	34953	280.407017504961	0.89686749130493
24	35071	281.303884996266	1.1901503007274
24	35183	282.494035296993	0.096030005608151
24	35193	282.590065302601	1.4666391129452
24	35439	284.056704415546	0.83504129313886
24	35525	284.891745708685	1.1616384404467
24	35686	286.053384149132	0.4525961098123
24	35732	286.505980258944	0.67679943586154
24	35824	287.182779694806	0.21335831244012
24	35843	287.396138007246	0.26422169921021
24	35887	287.660359706456	1.6431434944065
24	36037	289.303503200862	0.35052746019163
24	36106	289.654030661054	0.039941903704286
24	36108	289.693972564758	0.30905115163259
24	36153	290.003023716391	0.13438547086662
24	36166	290.137409187258	0.07964746058627
24	36187	290.217056647844	0.8634593983402
24	36339	291.080516046184	0.32476083939171
24	36370	291.405276885576	0.35459806175503
24	36419	291.759874947331	0.052803601803527
24	36423	291.812678549135	0.47920457190235
24	36491	292.291883121037	1.9175258221368
24	36661	294.209408943174	0.82181317403291
24	36753	295.031222117207	0.034848401446804
24	36755	295.066070518654	0.29728298239975
24	36798	295.363353501054	0.21228685777048
24	36825	295.575640358824	0.25667840667572
24	36854	295.8323187655	0.23207292766515
24	36865	296.064391693165	0.70857293063549
24	36948	296.7729646238	0.26859685433783
24	36968	297.041561478138	0.64204996223513
24	37021	297.683611440373	0.84099670443689
24	37124	298.52460814481	0.14293101431619
24	37153	298.667539159126	0.41356178647942
24	37199	299.081100945605	0.72657254962332
24	37287	299.807673495228	0.19078179284537
24	37311	299.998455288073	0.87614221627263
24	37403	300.874597504346	0.098237420956607
24	37422	300.972834925303	1.0818637242525
24	37589	302.054698649555	0.38754412532522
24	37651	302.44224277488	0.53527322828541
24	37718	302.977516003165	0.21650589883863
24	37737	303.194021902004	0.33713317660016
24	37758	303.531155078604	0.38030551403795
24	37797	303.911460592642	0.10764264877005
24	37808	304.019103241412	0.23398681526969
24	37848	304.253090056682	0.080064319320057
24	37855	304.333154376002	0.22291129711471
24	37885	304.556065673117	0.0040377536072892
24	37886	304.560103426724	0.68295304920104
24	37976	305.243056475925	0.0050185765158612
24	37977	305.248075052441	0.13214981289411
24	37999	305.380224865335	0.69096548361192
24	38086	306.071190348947	2.7465359419934
24	38449	308.81772629094	0.04761347272591
24	38452	308.865339763666	0.31987788076881
24	38509	309.185217644435	0.24222892483655
24	38526	309.427446569272	1.1410388972961
24	38662	310.568485466568	0.048986752140464
24	38669	310.617472218708	0.013527552191579
24	38673	310.6309997709	0.90061071927698
24	38751	311.531610490177	0.04822111253795
24	38767	311.579831602715	0.77611646630916
24	38870	312.355948069024	0.23739739455304
24	38902	312.593345463577	0.023320904732898
24	38903	312.61666636831	1.16567405545
24	39076	313.78234042376	0.96415783105016
24	39186	314.74649825481	0.0026893270310268
24	39187	314.749187581841	0.77837619535761
24	39311	315.527563777199	0.080342056206998
24	39320	315.607905833406	1.2028342528581
24	39518	316.810740086264	0.15011754374386
24	39531	316.960857630008	0.15340763138125
24	39541	317.114265261389	1.171845915002
24	39668	318.286111176391	1.2210991087434
24	39822	319.507210285134	1.5841589040078
24	40066	321.091369189142	0.010216523304567
24	40070	321.101585712447	0.22035169033593
24	40098	321.321937402783	0.19676358730396
24	40123	321.518700990087	0.23837851235725
24	40166	321.757079502444	0.025860860896297
24	40169	321.78294036334	0.12122794705081
24	40184	321.904168310391	0.42599595219481
24	40247	322.330164262586	0.2076844628398
24	40300	322.537848725426	1.0603452141135
24	40446	323.59819393954	0.21464585192944
24	40472	323.812839791469	0.020120378023654
24	40476	323.832960169493	0.8528741313007
24	40589	324.685834300794	0.092998468618923
24	40595	324.778832769413	0.087226109140612
24	40610	324.866058878554	0.60772006822627
24	40700	325.47377894678	0.36451554879618
24	40737	325.838294495576	0.11024930777276
24	40746	325.948543803349	0.13918940375857
24	40765	326.087733207108	1.186536129895
24	40935	327.274269337003	0.042025365108186
24	40937	327.316294702111	0.36336528453572
24	40963	327.679659986647	1.4095784654052
24	41139	329.089238452052	0.074477772252721
24	41148	329.163716224305	0.75409856062364
24	41252	329.917814784929	0.28062241843524
24	41276	330.198437203364	0.26921430569365
24	41332	330.467651509058	1.0366285444273
24	41428	331.504280053485	2.4470358763969
24	41684	333.951315929882	1.1709486287256
24	41806	335.122264558608	0.51797736498972
24	41861	335.640241923598	0.86826775814817
24	41993	336.508509681746	0.9470528557037
24	42166	337.45556253745	0.44663157626227
24	42226	337.902194113712	1.5501143010583
24	42398	339.45230841477	0.97297339036929
24	42507	340.425281805139	1.0550348158393
24	42640	341.480316620978	0.39747262873011
24	42727	341.877789249708	0.36056048033297
24	42783	342.238349730041	0.16105938286793
24	42802	342.399409112909	0.53443642663051
24	42870	342.93384553954	0.49143241666762
24	42927	343.425277956208	1.3907625123697
24	43106	344.816040468578	1.5578160604356
24	43314	346.373856529014	0.57656021921461
24	43413	346.950416748229	0.19340824854489
24	43442	347.143824996774	0.29216252596677
24	43488	347.435987522741	0.73863974968512
24	43565	348.174627272426	0.40036207518376
24	43610	348.57498934761	1.2078654295319
24	43760	349.782854777142	1.3370350410912
24	43899	351.119889818233	0.075286638794586
24	43902	351.195176457028	0.06855116734003
24	43903	351.263727624368	0.0024485821432459
24	43904	351.266176206511	0.23561912782949
24	43941	351.50179533434	1.0840945956059
24	44105	352.585889929946	0.0378308539793
24	44118	352.623720783925	0.085026293832572
24	44124	352.708747077758	0.17523744872464
24	44143	352.883984526483	0.017821069694754
24	44144	352.901805596178	0.13590619978367
24	44164	353.037711795962	0.092264721234244
24	44178	353.129976517196	0.38501549008513
24	44218	353.514992007281	0.11116144572111
24	44228	353.626153453002	0.24536219355938
24	44241	353.871515646561	1.4185352626029
24	44416	355.290050909164	0.0035532247234905
24	44417	355.293604133887	0.123595532421
24	44431	355.417199666308	0.41296707415453
24	44479	355.830166740463	0.20394152046965
24	44501	356.034108260933	1.0110624129403
24	44602	357.045170673873	0.36731221992826
24	44643	357.412482893801	0.19727972475832
24	44679	357.609762618559	0.13541092732596
24	44700	357.745173545885	0.02193286906458
24	44705	357.76710641495	1.1463487944796
24	44844	358.91345520943	0.32953104831154
24	44894	359.242986257742	1.0648854923116
24	45037	360.307871750054	0.71051923479393
24	45120	361.018390984848	0.32258965818171
24	45162	361.34098064303	0.015504793841218
24	45164	361.356485436871	0.12600193335655
24	45180	361.482487370228	0.43108790607207
24	45231	361.9135752763	0.04315650830884
24	45237	361.956731784609	0.53795844614212
24	45343	362.494690230751	1.1480419093798
24	45486	363.642732140131	0.094103198025389
24	45501	363.736835338156	0.037158968148255
24	45514	363.773994306304	0.044509714256847
24	45525	363.818504020561	0.047663291580192
24	45532	363.866167312141	0.83118256812267
24	45645	364.697349880264	0.33218944412703
24	45665	365.029539324391	3.7038598564159
24	46106	368.733399180807	0.71909322082134
24	46190	369.452492401628	0.32762071138667
24	46227	369.780113113015	0.14286064216486
24	46272	369.92297375518	0.37560109956159
24	46333	370.298574854742	0.17201329636286
24	46353	370.470588151105	0.56828776703813
24	46409	371.038875918143	1.7775461894221
24	46659	372.816422107565	0.32403516403927
24	46689	373.140457271604	0.15323575531675
24	46712	373.293693026921	0.26776044660488
24	46760	373.561453473526	0.42324584067622
24	46787	373.984699314202	0.33087417383087
24	46819	374.315573488033	0.56025576083974
24	46889	374.875829248873	1.4540494701924
24	47029	376.329878719065	2.3926199157039
24	47344	378.722498634769	0.42559386677972
24	47395	379.148092501549	0.40201290147133
24	47454	379.55010540302	0.16073188096938
24	47487	379.710837283989	1.5833131897035
24	47670	381.294150473693	0.15867166119711
24	47692	381.45282213489	0.66237525523226
24	47758	382.115197390122	0.069858293426741
24	47777	382.185055683549	1.8556554409565
24	48021	384.040711124506	1.9463696847322
24	48262	385.987080809238	1.5414286825303
24	48432	387.528509491768	0.29524914608307
24	48468	387.823758637851	1.1421194021732
24	48593	388.965878040024	1.6489313745637
24	48751	390.614809414588	0.25263740918159
24	48780	390.86744682377	0.5372758134456
24	48833	391.404722637216	0.00072606223793289
24	48834	391.405448699454	0.48806933174842
24	48888	391.893518031202	1.7183721210725
24	49048	393.611890152275	0.082234828637154
24	49057	393.694124980912	0.10450133177256
24	49076	393.798626312685	0.12685083625863
24	49097	393.925477148944	0.0072752855652131
24	49099	393.932752434509	0.13789974567392
24	49114	394.070652180183	1.6191618457797
24	49316	395.689814025963	0.42159079209589
24	49345	396.111404818059	0.65737221959568
24	49416	396.768777037655	1.8354933736684
24	49680	398.604270411323	0.21237240566715
24	49692	398.81664281699	0.14402839149256
24	49710	398.960671208483	0.06181664216932
24	49714	399.022487850652	0.38201254016014
24	49784	399.404500390812	0.11541719301933
24	49804	399.519917583831	0.37589434672765
24	49876	399.895811930559	0.16150167468631

