version 2
run Exponential-capacity-6-20210215-11:02:28-8188
attr configname Exponential-capacity
attr datetime 20210215-11:02:28
attr experiment Exponential-capacity
attr inifile aerocom.ini
attr iterationvars "$0=35, $1=1"
attr iterationvarsf 35,1-
attr measurement "$0=35, $1=1"
attr network Aerocom
attr processid 8188
attr repetition 0
attr replication #0
attr resultdir results
attr runnumber 6
attr seedset 0
param **.t 1s
param **.k 35ms
param **.X 0.4s
param **.m 1s
param **.tDistribution "\"exponential\""
param **.operationMode 0
param **.s "70 byte"
param **.dimPoolMax 10000
param **.dimPoolMin 8000
param **.nDL 1
param **.nA 1
param **.DLMaxCapacity 0
param **.trasmitting false

scalar Aerocom.aircraft[0].linkSelector responseTime:mean 0.095004514723547
attr "" ""
attr source computeResponseTime
scalar Aerocom.aircraft[0].linkSelector meanMalus:sum 977.99999999996
attr "" ""
attr source computeMeanMalus
scalar Aerocom.aircraft[0].linkSelector waitingTime:mean 0.087176782334237
attr "" ""
attr source computeWaitingTime
scalar Aerocom.aircraft[0].linkSelector serviceTime:mean 0.0078277323893116
attr "" ""
attr source computeServiceTime
scalar Aerocom.aircraft[0].linkSelector queueLength:mean 2.4488852637303
attr "" ""
attr source computeQueueLength
scalar Aerocom.aircraft[0].dataLink[0] sentPackets:count 11034
attr source computeSentPackets
scalar Aerocom.aircraft[0].dataLink[0] actualCapacity:mean 8966.8244201313
attr "" ""
attr source computeActualCapacity
scalar Aerocom.controlTower receivedPackets:count 11034
attr source computeReceivedPackets

