version 2
run Exponential-capacity-40-20210216-13:46:22-23204
attr configname Exponential-capacity
attr datetime 20210216-13:46:22
attr experiment Exponential-capacity
attr inifile aerocom.ini
attr iterationvars "$0=2, $1=50, $2=0.5, $3=4"
attr iterationvarsf 2,50,0.5,4-
attr measurement "$0=2, $1=50, $2=0.5, $3=4"
attr network Aerocom
attr processid 23204
attr repetition 1
attr replication #1
attr resultdir results
attr runnumber 40
attr seedset 1
param **.t 2s
param **.k 50ms
param **.X 0.5s
param **.m 4s
param **.tDistribution "\"exponential\""
param **.operationMode 0
param **.s "70 byte"
param **.dimPoolMax 10000
param **.dimPoolMin 8000
param **.nDL 10
param **.nA 1
param **.DLMaxCapacity 0
param **.trasmitting false

scalar Aerocom.aircraft[0].linkSelector responseTime:mean 0.039097579221433
attr "" ""
attr source computeResponseTime
scalar Aerocom.aircraft[0].linkSelector meanMalus:sum 465.5
attr "" ""
attr source computeMeanMalus
scalar Aerocom.aircraft[0].linkSelector waitingTime:mean 0.031582033856789
attr "" ""
attr source computeWaitingTime
scalar Aerocom.aircraft[0].linkSelector serviceTime:mean 0.0075195223633907
attr "" ""
attr source computeServiceTime
scalar Aerocom.aircraft[0].linkSelector queueLength:mean 0.59126063418407
attr "" ""
attr source computeQueueLength
scalar Aerocom.aircraft[0].dataLink[0] sentPackets:count 718
attr source computeSentPackets
scalar Aerocom.aircraft[0].dataLink[0] actualCapacity:mean 9133.2009803922
attr "" ""
attr source computeActualCapacity
scalar Aerocom.aircraft[0].dataLink[1] sentPackets:count 1117
attr source computeSentPackets
scalar Aerocom.aircraft[0].dataLink[1] actualCapacity:mean 9397.8085456039
attr "" ""
attr source computeActualCapacity
scalar Aerocom.aircraft[0].dataLink[2] sentPackets:count 628
attr source computeSentPackets
scalar Aerocom.aircraft[0].dataLink[2] actualCapacity:mean 9165.3842975207
attr "" ""
attr source computeActualCapacity
scalar Aerocom.aircraft[0].dataLink[3] sentPackets:count 1125
attr source computeSentPackets
scalar Aerocom.aircraft[0].dataLink[3] actualCapacity:mean 9362.7127659574
attr "" ""
attr source computeActualCapacity
scalar Aerocom.aircraft[0].dataLink[4] sentPackets:count 782
attr source computeSentPackets
scalar Aerocom.aircraft[0].dataLink[4] actualCapacity:mean 9276.4340909091
attr "" ""
attr source computeActualCapacity
scalar Aerocom.aircraft[0].dataLink[5] sentPackets:count 947
attr source computeSentPackets
scalar Aerocom.aircraft[0].dataLink[5] actualCapacity:mean 9362.5913875598
attr "" ""
attr source computeActualCapacity
scalar Aerocom.aircraft[0].dataLink[6] sentPackets:count 1036
attr source computeSentPackets
scalar Aerocom.aircraft[0].dataLink[6] actualCapacity:mean 9473.1552028219
attr "" ""
attr source computeActualCapacity
scalar Aerocom.aircraft[0].dataLink[7] sentPackets:count 413
attr source computeSentPackets
scalar Aerocom.aircraft[0].dataLink[7] actualCapacity:mean 9054.8803921569
attr "" ""
attr source computeActualCapacity
scalar Aerocom.aircraft[0].dataLink[8] sentPackets:count 464
attr source computeSentPackets
scalar Aerocom.aircraft[0].dataLink[8] actualCapacity:mean 9082.1476868327
attr "" ""
attr source computeActualCapacity
scalar Aerocom.aircraft[0].dataLink[9] sentPackets:count 529
attr source computeSentPackets
scalar Aerocom.aircraft[0].dataLink[9] actualCapacity:mean 9290.4792332268
attr "" ""
attr source computeActualCapacity
scalar Aerocom.controlTower receivedPackets:count 7759
attr source computeReceivedPackets

