file 31097244 1608737975                                        
version 2
run Exponential-selection-capacity-exponential-interarrival-time-24009-20201223-16:39:22-14596
attr configname Exponential-selection-capacity-exponential-interarrival-time
attr datetime 20201223-16:39:22
attr experiment Exponential-selection-capacity-exponential-interarrival-time
attr inifile aerocom.ini
attr iterationvars "$0=2s, $1=2s, $2=50, $3=10s"
attr iterationvarsf 2s,2s,50,10s-
attr measurement "$0=2s, $1=2s, $2=50, $3=10s"
attr network Aerocom
attr processid 14596
attr repetition 9
attr replication #9
attr resultdir results
attr runnumber 24009
attr seedset 9
param **.t 2s
param **.k 2s
param **.dataLink[*].s "1500 byte"
param **.dataLink[*].X 50
param **.nDL 4
param **.dataLink[*].dimPoolMax 400
param **.dataLink[*].dimPoolMin 100
param **.setCapacityDistribution "\"exponential\""
param **.aircraft[*].distribution "\"exponential\""
param **.aircraft[*].m 10s
param **.aircraft[*].linkSelector.DLMaxCapacity 0
param **.aircraft[*].linkSelector.trasmitting false
param **.operationMode 0

vector 0 Aerocom.aircraft[0].dataLink[1] waitingTime:vector ETV
attr "" ""
attr source computeWaitingTime
vector 1 Aerocom.aircraft[0].dataLink[1] responseTime:vector ETV
attr "" ""
attr source computeResponseTime
vector 2 Aerocom.aircraft[1].dataLink[3] waitingTime:vector ETV
attr "" ""
attr source computeWaitingTime
vector 3 Aerocom.aircraft[1].dataLink[3] responseTime:vector ETV
attr "" ""
attr source computeResponseTime
vector 4 Aerocom.aircraft[2].dataLink[2] waitingTime:vector ETV
attr "" ""
attr source computeWaitingTime
vector 5 Aerocom.aircraft[2].dataLink[2] responseTime:vector ETV
attr "" ""
attr source computeResponseTime
vector 6 Aerocom.aircraft[2].dataLink[3] queueLength:vector ETV
attr "" ""
attr source computeQueueLength
vector 7 Aerocom.aircraft[2].dataLink[3] waitingTime:vector ETV
attr "" ""
attr source computeWaitingTime
vector 8 Aerocom.aircraft[2].dataLink[3] responseTime:vector ETV
attr "" ""
attr source computeResponseTime
vector 9 Aerocom.aircraft[0].dataLink[0] queueLength:vector ETV
attr "" ""
attr source computeQueueLength
vector 10 Aerocom.aircraft[0].dataLink[0] waitingTime:vector ETV
attr "" ""
attr source computeWaitingTime
vector 11 Aerocom.aircraft[0].dataLink[0] responseTime:vector ETV
attr "" ""
attr source computeResponseTime
vector 12 Aerocom.aircraft[1].dataLink[2] queueLength:vector ETV
attr "" ""
attr source computeQueueLength
vector 13 Aerocom.aircraft[1].dataLink[2] waitingTime:vector ETV
attr "" ""
attr source computeWaitingTime
vector 14 Aerocom.aircraft[1].dataLink[2] responseTime:vector ETV
attr "" ""
attr source computeResponseTime
vector 15 Aerocom.aircraft[3].dataLink[1] waitingTime:vector ETV
attr "" ""
attr source computeWaitingTime
vector 16 Aerocom.aircraft[3].dataLink[1] responseTime:vector ETV
attr "" ""
attr source computeResponseTime
vector 17 Aerocom.aircraft[3].dataLink[3] queueLength:vector ETV
attr "" ""
attr source computeQueueLength
vector 18 Aerocom.aircraft[3].dataLink[3] waitingTime:vector ETV
attr "" ""
attr source computeWaitingTime
vector 19 Aerocom.aircraft[3].dataLink[3] responseTime:vector ETV
attr "" ""
attr source computeResponseTime
vector 20 Aerocom.aircraft[0].dataLink[2] queueLength:vector ETV
attr "" ""
attr source computeQueueLength
vector 21 Aerocom.aircraft[0].dataLink[2] waitingTime:vector ETV
attr "" ""
attr source computeWaitingTime
vector 22 Aerocom.aircraft[0].dataLink[2] responseTime:vector ETV
attr "" ""
attr source computeResponseTime
vector 23 Aerocom.aircraft[2].dataLink[2] queueLength:vector ETV
attr "" ""
attr source computeQueueLength
vector 24 Aerocom.aircraft[3].dataLink[0] queueLength:vector ETV
attr "" ""
attr source computeQueueLength
vector 25 Aerocom.aircraft[3].dataLink[0] waitingTime:vector ETV
attr "" ""
attr source computeWaitingTime
vector 26 Aerocom.aircraft[3].dataLink[0] responseTime:vector ETV
attr "" ""
attr source computeResponseTime
vector 27 Aerocom.aircraft[1].dataLink[0] queueLength:vector ETV
attr "" ""
attr source computeQueueLength
vector 28 Aerocom.aircraft[1].dataLink[0] waitingTime:vector ETV
attr "" ""
attr source computeWaitingTime
vector 29 Aerocom.aircraft[1].dataLink[0] responseTime:vector ETV
attr "" ""
attr source computeResponseTime
vector 30 Aerocom.aircraft[0].dataLink[3] queueLength:vector ETV
attr "" ""
attr source computeQueueLength
vector 31 Aerocom.aircraft[0].dataLink[3] waitingTime:vector ETV
attr "" ""
attr source computeWaitingTime
vector 32 Aerocom.aircraft[0].dataLink[3] responseTime:vector ETV
attr "" ""
attr source computeResponseTime
vector 33 Aerocom.aircraft[3].dataLink[1] queueLength:vector ETV
attr "" ""
attr source computeQueueLength
vector 34 Aerocom.aircraft[2].dataLink[0] queueLength:vector ETV
attr "" ""
attr source computeQueueLength
vector 35 Aerocom.aircraft[2].dataLink[0] waitingTime:vector ETV
attr "" ""
attr source computeWaitingTime
vector 36 Aerocom.aircraft[2].dataLink[0] responseTime:vector ETV
attr "" ""
attr source computeResponseTime
vector 37 Aerocom.aircraft[0].dataLink[1] queueLength:vector ETV
attr "" ""
attr source computeQueueLength
vector 38 Aerocom.aircraft[2].dataLink[1] queueLength:vector ETV
attr "" ""
attr source computeQueueLength
vector 39 Aerocom.aircraft[2].dataLink[1] waitingTime:vector ETV
attr "" ""
attr source computeWaitingTime
vector 40 Aerocom.aircraft[2].dataLink[1] responseTime:vector ETV
attr "" ""
attr source computeResponseTime
vector 41 Aerocom.aircraft[1].dataLink[3] queueLength:vector ETV
attr "" ""
attr source computeQueueLength
vector 42 Aerocom.aircraft[3].dataLink[2] queueLength:vector ETV
attr "" ""
attr source computeQueueLength
vector 43 Aerocom.aircraft[3].dataLink[2] waitingTime:vector ETV
attr "" ""
attr source computeWaitingTime
vector 44 Aerocom.aircraft[3].dataLink[2] responseTime:vector ETV
attr "" ""
attr source computeResponseTime
vector 45 Aerocom.aircraft[1].dataLink[1] queueLength:vector ETV
attr "" ""
attr source computeQueueLength
vector 46 Aerocom.aircraft[1].dataLink[1] waitingTime:vector ETV
attr "" ""
attr source computeWaitingTime
vector 47 Aerocom.aircraft[1].dataLink[1] responseTime:vector ETV
attr "" ""
attr source computeResponseTime
0	6351 409469 214283 2089242 10000 97360 10991 -1.2e-011 70.6965442058 105304.74765379 2089664.9692901
1	415820 423222 214283 2089242 10000 97360 10991 2.999999999992 77.6965442058 169805.74765379 3795646.0621882
2	839042 401924 214287 2091920 10000 97480 10804 -1.2e-011 74.073623479459 104794.93525852 1990706.7954167
3	1240966 415074 214287 2091920 10000 97480 10804 2.999999999992 78.073623479459 168399.93525852 3689859.167539
4	1656040 421040 214295 2091666 10000 97469.445905532201 11269 -1.2e-011 71.686300402575 113237.77631795 2284074.7799145
5	2077080 434346 214295 2091666 10000 97469.445905532201 11269 2.999999999993 77.595949449904 179511.77631795 4097368.8204759
6	2511426 340352 214319 2091664 10000.187046858543 97469.235737067341 10810 0 23 24056 123316
7	2851778 402291 214319 2091970 10000.187046858543 97481.308374024265 10808 -1.1e-011 78.311063874385 102367.54882671 1947505.8417678
8	3254069 415576 214319 2091970 10000.187046858543 97481.308374024265 10808 2.999999999993 84.311063874385 165841.54882671 3609488.8477275
9	3669645 349728 214323 2091390 10000.195748023884 97457.054944567545 11111 0 15 24762 120610
10	4019373 424471 214323 2091685 10000.195748023884 97470 11111 -1.1e-011 76.829549341794 104962.73964726 1905375.978758
11	4443844 437949 214323 2091685 10000.195748023884 97470 11111 2.999999999994 84.829549341794 170068.73964726 3596682.3113094
12	4881793 367203 214327 2091958 10000.202315446268 97480.431567630593 11301 0 20 26509 146585
13	5248996 434083 214327 2091958 10000.202315446268 97480.431567630593 11301 -1.2e-011 70.819083629296 107507.36467897 2032275.5167228
14	5683079 447677 214327 2091958 10000.202315446268 97480.431567630593 11301 2.999999999989 76.819083629296 173500.36467897 3759178.5094329
15	6130756 412086 214346 2091731 10001 97471 10755 -1.2e-011 69.58933323745 103275.17725757 1990505.9137977
16	6542842 425417 214346 2091731 10001 97471 10755 2.999999999992 76.58933323745 166388.17725757 3657088.335547
17	6968259 354160 214356 2091344 10001.453813163104 97454.870784980104 10897 0 19 24981 126653
18	7322419 415854 214356 2091923 10001.453813163104 97480 10897 -1.2e-011 70.068680327364 105806.60268669 2014973.3561579
19	7738273 428864 214356 2091923 10001.453813163104 97480 10897 2.999999999988 76.864331756496 169616.60268669 3706904.5708045
20	8167137 347282 214533 2091896 10010.278767852892 97478.434923060068 10687 0 16 23293 116871
21	8514419 408372 214533 2091811 10010.278767852892 97474.461355342697 10684 -1.2e-011 78.136312018432 101129.5127362 1925058.7715269
22	8922791 421712 214533 2091811 10010.278767852892 97474.461355342697 10684 2.999999999994 82.136312018432 163443.5127362 3552587.513156
23	9344503 365834 214539 2091425 10010.435941715439 97459.117663222896 11262 0 17 26376 139524
24	9710337 361105 214544 2090987 10010.455434606358 97439.256143439205 11115 0 16 24473 119113
25	10071442 425599 214544 2091448 10010.455434606358 97460 11115 -1.2e-011 70.533735880336 105954.78861769 2003182.5688226
26	10497041 439076 214544 2091448 10010.455434606358 97460 11115 2.999999999992 81.533735880336 170957.78861769 3709186.9051965
27	10936117 346185 215002 2091172 10030.903220408447 97447.717555622876 10660 0 19 22403 106953
28	11282302 407128 215002 2091774 10030.903220408447 97472.45097128721 10660 -1.2e-011 60.13200224814 98451.061190622 1783205.2208059
29	11689430 420367 215002 2091774 10030.903220408447 97472.45097128721 10660 2.999999999991 70.13200224814 161042.06119062 3387726.946305
30	12109797 352152 215237 2091670 10040.579407951698 97469.705587127079 10844 0 20 24727 131677
31	12461949 415830 215237 2091823 10040.579407951698 97475 10844 -1.2e-011 86.589159493656 104512.89121217 2039631.3389176
32	12877779 428986 215237 2091823 10040.579407951698 97475 10844 2.999999999992 95.589159493656 168212.89121217 3727237.8739272
33	13306765 349167 215241 2091651 10040.592851102759 97468.327019935346 10743 0 19 24424 135606
34	13655932 349133 215487 2090561 10052.155814404897 97419.702114601975 10754 0 24 24185 128067
35	14005065 410597 215487 2090926 10052.155814404897 97435.029456511518 10754 -1.2e-011 82.756522784306 103016.94908434 1970005.5939776
36	14415662 423635 215487 2090926 10052.155814404897 97435.029456511518 10754 2.999999999988 86.756522784306 166793.94908434 3646373.3861186
37	14839297 357180 215691 2089018 10061.419240193538 97349.968964050729 10989 0 21 23959 119523
38	15196477 353904 215696 2091885 10061.520695499097 97477.707072101806 10888 0 18 24352 122400
39	15550381 416927 215696 2091967 10061.520695499097 97481.106776881349 10887 -1.2e-011 73.726433127133 104801.27423021 2013545.2653545
40	15967308 430353 215696 2091967 10061.520695499097 97481.106776881349 10887 2.999999999988 84.726433127133 168684.27423021 3711245.0346319
41	16397661 351121 215710 2091432 10062.211516190172 97459.415388940537 10801 0 26 25405 138627
42	16748782 348875 215876 2091912 10070.104158199189 97479.685928861521 10741 0 16 23261 114501
43	17097657 410979 215876 2091954 10070.104158199189 97480.314232815738 10739 -1.2e-011 67.49179808292 99336.120406935 1802598.9971644
44	17508636 424120 215876 2091954 10070.104158199189 97480.314232815738 10739 2.999999999989 73.49179808292 162231.12040694 3403221.7209043
45	17932756 362354 216122 2091855 10080.494117145667 97476.320215758411 11151 0 19 25375 135835
46	18295110 426474 216122 2091919 10080.494117145667 97480 11148 -1.2e-011 67.740020433952 105159.71702819 1946693.7378355
47	18721584 440027 216122 2091919 10080.494117145667 97480 11148 2.999999999992 76.740020433952 170468.71702819 3632295.3508311
0	19161611 251320 2092197 3218554 97491.887973079715 149999.005851623502 6480 -2.4e-011 72.000970496512 63667.129153411 1231454.1148705
1	19412931 259145 2092197 3218554 97491.887973079715 149999.005851623502 6480 2.999999999986 81.000970496512 101597.12915341 2242276.1885332
2	19672076 245654 2092416 3218584 97503.0270102552 150000 6368 -2.4e-011 78.211525915029 62393.555166633 1218628.3545228
3	19917730 253816 2092416 3218584 97503.0270102552 150000 6368 2.999999999978 85.211525915029 99766.555166634 2219801.129952
4	20171546 258407 2092370 3218577 97501.180027620276 149999.853847118145 6650 -2.4e-011 68.354135572064 63257.916427947 1199058.6915012
5	20429953 266830 2092370 3218577 97501.180027620276 149999.853847118145 6650 2.999999999977 73.354135572064 102458.91642795 2219952.8630579
6	20696783 207713 2091995 3217487 97483.107073794736 149947.206784649494 6321 0 22 13749 70141
7	20904496 244998 2091975 3217853 97482.117152722971 149963.518863172148 6323 -2.4e-011 69.509264474652 58548.76150964 1072556.5526338
8	21149494 253185 2091975 3217853 97482.117152722971 149963.518863172148 6323 2.999999999985 75.509264474652 95587.76150964 2033778.6904676
9	21402679 219764 2093003 3218067 97533.091868601733 149975.516779053417 6690 0 20 14838 78700
10	21622443 266313 2093003 3218084 97533.091868601733 149976.331659058104 6690 -2.4e-011 78.134228974272 62027.623381217 1154858.5793242
11	21888756 274859 2093003 3218084 97533.091868601733 149976.331659058104 6690 2.999999999987 84.134228974272 100660.62338122 2135432.967939
12	22163615 228874 2092082 3217506 97487.13812999511 149948.845899673535 6760 0 17 16037 83453
13	22392489 269581 2092082 3218270 97487.13812999511 149984 6760 -2.3e-011 67.551658460624 66710.834609784 1284826.810085
14	22662070 277900 2092082 3218270 97487.13812999511 149984 6760 2.99999999998 72.551658460624 106200.83460978 2336871.9507267
15	22939970 255343 2092632 3218588 97513.88716213777 150000 6421 -2.2e-011 72.394394523581 62168.637235788 1212332.9879855
16	23195313 263650 2092632 3218588 97513.88716213777 150000 6421 2.999999999979 82.394394523581 100171.63723579 2224247.3368217
17	23458963 220500 2092488 3218572 97506.358434968626 149999.687249310953 6515 0 20 14396 72986
18	23679463 259139 2092488 3218589 97506.358434968626 150000 6510 -2.4e-011 66.518124613584 61295.391590819 1137915.9984733
19	23938602 267512 2092488 3218589 97506.358434968626 150000 6510 2.999999999978 70.518124613584 99647.391590819 2135751.427643
20	24206114 220700 2091980 3217746 97482.474165279957 149959.807002760024 6518 0 15 13770 63928
21	24426814 259353 2091980 3218106 97482.474165279957 149977.12482940287 6521 -2.3e-011 61.170097888541 59768.272264885 1070160.6957929
22	24686167 267840 2091980 3218106 97482.474165279957 149977.12482940287 6521 2.999999999984 70.408478627261 98185.272264885 2050120.5691381
23	24954007 225351 2092370 3218542 97501.180027620276 149998.521318320499 6654 0 17 14774 77102
24	25179358 228858 2093557 3217889 97560.870604737955 149965.729007315345 6758 0 25 16234 90896
25	25408216 268407 2093557 3217967 97560.870604737955 149970 6758 -2.4e-011 68.015686351424 67389.846992522 1294382.9621738
26	25676623 276906 2093557 3217967 97560.870604737955 149970 6758 2.999999999983 74.015686351424 107202.84699252 2371015.7273727
27	25953529 219555 2092999 3218334 97533.022436078873 149987.322631131531 6485 0 23 14687 76545
28	26173084 258920 2092999 3218582 97533.022436078873 150000 6479 -2.4e-011 71.174430098208 63795.849102115 1234044.0166142
29	26432004 267169 2092999 3218582 97533.022436078873 150000 6479 2.999999999979 78.174430098208 102094.84910212 2259638.7206411
30	26699173 223953 2095969 3217929 97670.934848706928 149967.977736510493 6612 0 20 14913 79565
31	26923126 262515 2095969 3217963 97670.934848706928 149970 6612 -2.4e-011 62.216180529568 62895.452522252 1174355.5144528
32	27185641 270809 2095969 3217963 97670.934848706928 149970 6612 2.999999999987 73.216180529568 102063.45252225 2204132.5038308
33	27456450 217427 2092632 3218325 97513.88716213777 149987.009160764524 6422 0 16 14161 70457
34	27673877 216309 2092977 3218321 97531.145795731304 149986.643520472393 6387 0 18 13260 66148
35	27890186 255146 2092977 3218479 97531.145795731304 149995 6387 -2.3e-011 66.857846931362 55605.194487933 979405.79917552
36	28145332 263883 2092977 3218479 97531.145795731304 149995 6387 2.999999999988 70.857846931362 92722.194487933 1881714.0585534
37	28409215 219664 2092197 3218569 97491.887973079715 149999.625228628227 6488 0 15 14879 74521
38	28628879 217177 2092597 3216842 97511.484855100082 149919.055917592342 6415 0 17 14666 73804
39	28846056 253953 2092040 3217193 97485.692561383364 149933 6416 -2.4e-011 65.146405398911 62136.045427839 1175767.3081997
40	29100009 262277 2092040 3217193 97485.692561383364 149933 6416 2.999999999979 69.146405398911 99659.045427839 2168620.5939319
41	29362286 215705 2092416 3218575 97503.0270102552 149999.730939997055 6370 0 17 14863 78715
42	29577991 224328 2091990 3218140 97483.014758743217 149979.151714500164 6623 0 17 14813 73627
43	29802319 265983 2091991 3218504 97483.031678205142 149996.48017630563 6625 -2.3e-011 60.256701346837 63393.295678708 1150030.4118602
44	30068302 274382 2091991 3218504 97483.031678205142 149996.48017630563 6625 2.99999999998 66.256701346837 102641.29567871 2185069.5122133
45	30342684 223127 2096658 3218125 97703.59914538497 149978.101906184147 6588 0 17 14906 77502
46	30565811 261527 2092029 3218326 97485 149987.021585003921 6591 -2.2e-011 81.077407046208 64827.112362987 1309156.5028474
47	30827338 269904 2092029 3218326 97485 149987.021585003921 6591 2.999999999984 88.077407046208 103434.11236299 2349483.1417274

