file 8856933 1613479567                                         
version 2
run Exponential-capacity-29-20210216-13:46:06-24392
attr configname Exponential-capacity
attr datetime 20210216-13:46:06
attr experiment Exponential-capacity
attr inifile aerocom.ini
attr iterationvars "$0=2, $1=10, $2=0.5, $3=4"
attr iterationvarsf 2,10,0.5,4-
attr measurement "$0=2, $1=10, $2=0.5, $3=4"
attr network Aerocom
attr processid 24392
attr repetition 2
attr replication #2
attr resultdir results
attr runnumber 29
attr seedset 2
param **.t 2s
param **.k 10ms
param **.X 0.5s
param **.m 4s
param **.tDistribution "\"exponential\""
param **.operationMode 0
param **.s "70 byte"
param **.dimPoolMax 10000
param **.dimPoolMin 8000
param **.nDL 10
param **.nA 1
param **.DLMaxCapacity 0
param **.trasmitting false

vector 0 Aerocom.aircraft[0].packetGenerator arrivalTime:vector ETV
attr "" ""
attr source computeArrivalTime
vector 1 Aerocom.aircraft[0].linkSelector responseTime:vector ETV
attr "" ""
attr source computeResponseTime
vector 2 Aerocom.aircraft[0].linkSelector waitingTime:vector ETV
attr "" ""
attr source computeWaitingTime
vector 3 Aerocom.aircraft[0].linkSelector queueLength:vector ETV
attr "" ""
attr source computeQueueLength
vector 4 Aerocom.aircraft[0].dataLink[3] actualCapacity:vector ETV
attr "" ""
attr source computeActualCapacity
vector 5 Aerocom.aircraft[0].linkSelector serviceTime:vector ETV
attr "" ""
attr source computeServiceTime
vector 6 Aerocom.aircraft[0].dataLink[0] tDistribution:vector ETV
attr "" ""
attr source computeTDistribution
vector 7 Aerocom.aircraft[0].dataLink[5] tDistribution:vector ETV
attr "" ""
attr source computeTDistribution
vector 8 Aerocom.aircraft[0].dataLink[2] tDistribution:vector ETV
attr "" ""
attr source computeTDistribution
vector 9 Aerocom.aircraft[0].dataLink[9] tDistribution:vector ETV
attr "" ""
attr source computeTDistribution
vector 10 Aerocom.aircraft[0].dataLink[8] tDistribution:vector ETV
attr "" ""
attr source computeTDistribution
vector 11 Aerocom.aircraft[0].dataLink[0] actualCapacity:vector ETV
attr "" ""
attr source computeActualCapacity
vector 12 Aerocom.aircraft[0].dataLink[1] actualCapacity:vector ETV
attr "" ""
attr source computeActualCapacity
vector 13 Aerocom.aircraft[0].dataLink[2] actualCapacity:vector ETV
attr "" ""
attr source computeActualCapacity
vector 14 Aerocom.aircraft[0].dataLink[4] actualCapacity:vector ETV
attr "" ""
attr source computeActualCapacity
vector 15 Aerocom.aircraft[0].dataLink[5] actualCapacity:vector ETV
attr "" ""
attr source computeActualCapacity
vector 16 Aerocom.aircraft[0].dataLink[6] actualCapacity:vector ETV
attr "" ""
attr source computeActualCapacity
vector 17 Aerocom.aircraft[0].dataLink[7] actualCapacity:vector ETV
attr "" ""
attr source computeActualCapacity
vector 18 Aerocom.aircraft[0].dataLink[8] actualCapacity:vector ETV
attr "" ""
attr source computeActualCapacity
vector 19 Aerocom.aircraft[0].dataLink[9] actualCapacity:vector ETV
attr "" ""
attr source computeActualCapacity
vector 20 Aerocom.aircraft[0].dataLink[1] tDistribution:vector ETV
attr "" ""
attr source computeTDistribution
vector 21 Aerocom.aircraft[0].dataLink[6] tDistribution:vector ETV
attr "" ""
attr source computeTDistribution
vector 22 Aerocom.aircraft[0].dataLink[3] tDistribution:vector ETV
attr "" ""
attr source computeTDistribution
vector 23 Aerocom.aircraft[0].dataLink[7] tDistribution:vector ETV
attr "" ""
attr source computeTDistribution
vector 24 Aerocom.aircraft[0].dataLink[4] tDistribution:vector ETV
attr "" ""
attr source computeTDistribution
0	3614 1342690 5486 192085 10.0000051843 338.006319040219 32768 3.43436e-007 0.111387644188 328.00732916894 6.5217265145529
2	1346304 1190244 5488 192090 10.00651214061 338.010168831611 32768 0 0.554401962713 1300.2898366519 439.54496500546
3	2536548 923589 5488 192090 10.00651214061 338.010168831611 32768 0 70 131907 4711957
5	3460137 1473376 5488 192090 10.00651214061 338.010168831611 32768 0.0070021006301891 0.0087336244541485 245.73154358519 1.8475955128264
1	4933513 1342858 5488 192093 10.00651214061 338.012264844164 32768 0.00700210063 0.561591773724 1546.0220558259 460.38347722461
0	6276371 261823 192088 227612 338.007334353241 399.998945131452 6266 1.40559e-006 0.112081417393 61.998930705349 1.2430033764839
1	6538194 261759 192097 227609 338.017697332364 399.997490836738 6266 0.007015433955 0.552586473884 359.94856849608 115.47267239644
2	6799953 234420 192093 227613 338.012264844164 399.998945131452 6266 0 0.545319032024 312.10758399344 110.43429812939
3	7034373 181783 192093 227613 338.012264844164 399.998945131452 6266 0 66 32478 1261232
4	7216156 168831 5488 227614 10.00651214061 400 5460 8107 9914 51104124 479415455682
5	7384987 286597 192093 227613 338.012264844164 399.998945131452 6266 0.0070154339547003 0.0086462450592885 47.83734957346 0.36640105807178
6	7671584 7149 5504 227561 10.03811018219 399.878397220879 168 0.0036094664976787 17.797918339339 389.98354667749 1937.7865044186
7	7678733 8483 5511 226986 10.07210134922 398.753699240805 200 0.011384425402896 10.683453574358 394.16238826281 1446.9060972634
8	7687216 8689 5574 227298 10.156399251049 399.320729344979 204 0.0064162123800635 8.0914965480683 392.4426179407 1374.3217599403
9	7695905 8476 5852 225850 10.819748911723 396.842962390983 199 0.0071136829881651 9.1989595010915 389.72029710402 1442.2024279013
10	7704381 8821 5878 227424 10.883653582273 399.55147264292 203 0.0018564521835412 10.292266746282 390.76148241442 1466.2212869651
11	7713202 142844 6425 227614 12 400 4468 8011 9857 41591754 387943182826
12	7856046 119014 6425 227614 12 400 3743 8057 9997 34591766 320421093616
13	7975060 94297 6425 227614 12 400 2968 8112 9901 27583988 256820879130
14	8069357 108341 6425 227614 12 400 3358 8064 9948 31080654 288442965058
15	8177698 121347 6425 227614 12 400 3781 8079 9978 35334402 331253121958
16	8299045 202380 6425 227614 12 400 6359 8015 9985 60143577 570103892521
17	8501425 90901 6425 227614 12 400 2866 8078 9880 26356697 243221741709
18	8592326 116527 6425 227614 12 400 3693 8036 9991 34920955 330791906293
19	8708853 106376 6425 227614 12 400 3318 8113 9976 30401543 279476766467
20	8815229 8774 6494 226827 12.301861684204 398.479601218204 202 0.023568902198615 11.397805116473 391.6546106686 1444.1664301061
21	8824003 7656 6882 226628 13.016051670226 398.145200931154 176 0.016686175152747 15.414290325557 387.40772536497 1777.326920931
22	8831659 9107 7303 227560 13.464600362358 399.878088104899 209 0.0043568394680401 11.699003843561 386.84841633071 1536.7232396436
23	8840766 7975 8121 226339 14.88013127667 397.630326923909 183 0.0014883428637058 11.688337911536 387.76154702311 1680.6119957314
24	8848741 8190 9625 227441 17.359049821192 399.590343441671 188 0.0023583069883165 11.802727022865 383.97632185082 1559.2537441288

