file 22800536 1608483768                                        
version 2
run Exponential-selection-capacity-exponential-interarrival-time-2400-20201220-18:01:58-3440
attr configname Exponential-selection-capacity-exponential-interarrival-time
attr datetime 20201220-18:01:58
attr experiment Exponential-selection-capacity-exponential-interarrival-time
attr inifile ../simulations/aerocom.ini
attr iterationvars "$0=2s, $1=2s, $2=50, $3=10s"
attr iterationvarsf 2s,2s,50,10s-
attr measurement "$0=2s, $1=2s, $2=50, $3=10s"
attr network Aerocom
attr processid 3440
attr repetition 0
attr replication #0
attr resultdir results
attr runnumber 2400
attr seedset 2400
param **.t 2s
param **.k 2s
param **.dataLink[*].s "1500 byte"
param **.dataLink[*].X 50
param **.dataLink[*].dimPoolMax 400
param **.dataLink[*].dimPoolMin 100
param **.nDL 5
param **.setCapacityDistribution "\"exponential\""
param **.aircraft[*].distribution "\"exponential\""
param **.aircraft[*].m 10s
param **.aircraft[*].linkSelector.DLMaxCapacity 0
param **.aircraft[*].linkSelector.trasmitting false
param **.aircraft[*].linkSelector.operationMode 0

vector 0 Aerocom.dataLink[4] queueLength:vector ETV
attr "" ""
attr source computeQueueLength
vector 1 Aerocom.dataLink[3] responseTime:vector ETV
attr "" ""
attr source computeResponseTime
vector 2 Aerocom.dataLink[3] waitingTime:vector ETV
attr "" ""
attr source computeWaitingTime
vector 3 Aerocom.dataLink[4] responseTime:vector ETV
attr "" ""
attr source computeResponseTime
vector 4 Aerocom.dataLink[4] waitingTime:vector ETV
attr "" ""
attr source computeWaitingTime
vector 5 Aerocom.dataLink[0] responseTime:vector ETV
attr "" ""
attr source computeResponseTime
vector 6 Aerocom.dataLink[0] waitingTime:vector ETV
attr "" ""
attr source computeWaitingTime
vector 7 Aerocom.dataLink[2] responseTime:vector ETV
attr "" ""
attr source computeResponseTime
vector 8 Aerocom.dataLink[2] waitingTime:vector ETV
attr "" ""
attr source computeWaitingTime
vector 9 Aerocom.dataLink[1] responseTime:vector ETV
attr "" ""
attr source computeResponseTime
vector 10 Aerocom.dataLink[1] waitingTime:vector ETV
attr "" ""
attr source computeWaitingTime
vector 11 Aerocom.dataLink[1] queueLength:vector ETV
attr "" ""
attr source computeQueueLength
vector 12 Aerocom.dataLink[2] queueLength:vector ETV
attr "" ""
attr source computeQueueLength
vector 13 Aerocom.dataLink[0] queueLength:vector ETV
attr "" ""
attr source computeQueueLength
vector 14 Aerocom.dataLink[3] queueLength:vector ETV
attr "" ""
attr source computeQueueLength
12	2558 1166904 122220 904097 10030.589152729226 74314.5298751264 32768 3746 25792 485981453 8521429096361
13	1169462 1165310 122356 912488 10040.095786809473 75001.271623006914 32768 3006 25017 454093460 7617077724282
11	2334772 1166209 122087 913138 10020.10402419963 75051.181481709382 32768 3430 25401 473166315 8122482055647
0	3500981 1133400 121813 929662 10000.493364041373 76423.008571262881 32768 3500 25233 470653936 8088345486674
14	4634381 1165709 123090 940559 10100.5107231773 77316.150063148294 32768 3103 24695 458977900 7702636127272
12	5800090 1225415 904101 1689895 74315.152523062424 138891.871625162116 32768 25790 47843 1203157758 45516191158054
11	7025505 1224954 913143 1697751 75051.368773720989 139552.130474493777 32768 25397 47481 1195688169 44959694120573
13	8250459 1224988 912498 1705814 75001.993109388842 140216.128785961993 32768 25014 47043 1179829861 43797870331451
14	9475447 1227456 940562 1740694 77316.352404144202 143056.549800875693 32768 24683 46458 1167585739 42887754073493
0	10702903 1194025 929668 1741575 76423.668147884503 143129.270958386883 32768 25234 46916 1182912106 43972140057252
0	11896928 133207 1741578 1825204 143129.300945346431 149959.81334471277 3610 46917 49377 173844698 8373520703042
1	12030135 763856 121819 1825656 10001 149997 23340 6434.2057584543 99475.387414685 1238095458.2498 82611963115278
2	12793991 763857 121819 1825656 10001 149997 23340 6424.2057584543 99470.025226327 1237908497.8577 82592122141148
3	13557848 1064391 121847 1825684 10002.892258926423 149998.892258926423 23276 7097.0692641067 100868.16796009 1239869376.1102 83183856184214
4	14622239 1064391 121847 1825684 10002.892258926423 149998.892258926423 23276 7089.0692641067 100856.16796009 1239683062.9335 83164154436068
5	15686630 1058251 121856 1825658 10003.521540042093 149997.521540042093 23141 6622.3707355519 98741.686068943 1204017407.7736 79070649681901
6	16744881 1058251 121856 1825658 10003.521540042093 149997.521540042093 23141 6615.3350418326 98737.631476741 1203829535.0343 79051201841275
7	17803132 1065142 121894 1825681 10006.600447409105 149998.600447409105 23292 6506.5450002585 101495.88465645 1272793792.1679 86725870662859
8	18868274 1065142 121894 1825681 10006.600447409105 149998.600447409105 23292 6492.5450002585 101487.57303137 1272608709.9902 86705489804381
9	19933416 1062571 121920 1825673 10008.336046170809 149998.336046170809 23237 6564.1078297535 100751.06062695 1258599753.1198 85349077449385
10	20995987 1085808 121920 1825673 10008.336046170809 149998.336046170809 23237 6554.5436684518 100740.98964796 1258413885.3602 85328810466567
11	22081795 198759 1697754 1824824 139552.749694551253 149927.255385397033 5246 47479 50988 258341994 12727423367418
12	22280554 214574 1689898 1825092 138892.042735441572 149949.213971332589 5662 47841 51665 281398465 13992406252571
13	22495128 183188 1705818 1825689 140216.351138146822 149999.18928134363 4834 47043 50251 235103989 11438530683913
14	22678316 122218 1740698 1825432 143056.737865624953 149979.681000882325 3226 46454 48544 153270474 7283188440846

