file 2206466 1613479551                                         
version 2
run Exponential-capacity-18-20210216-13:45:50-20560
attr configname Exponential-capacity
attr datetime 20210216-13:45:50
attr experiment Exponential-capacity
attr inifile aerocom.ini
attr iterationvars "$0=0.5, $1=50, $2=4, $3=0.5"
attr iterationvarsf 0.5,50,4,0.5-
attr measurement "$0=0.5, $1=50, $2=4, $3=0.5"
attr network Aerocom
attr processid 20560
attr repetition 0
attr replication #0
attr resultdir results
attr runnumber 18
attr seedset 0
param **.t 0.5s
param **.k 50ms
param **.X 4s
param **.m 0.5s
param **.tDistribution "\"exponential\""
param **.operationMode 0
param **.s "70 byte"
param **.dimPoolMax 10000
param **.dimPoolMin 8000
param **.nDL 10
param **.nA 1
param **.DLMaxCapacity 0
param **.trasmitting false

vector 0 Aerocom.aircraft[0].dataLink[0] actualCapacity:vector ETV
attr "" ""
attr source computeActualCapacity
vector 1 Aerocom.aircraft[0].dataLink[1] actualCapacity:vector ETV
attr "" ""
attr source computeActualCapacity
vector 2 Aerocom.aircraft[0].dataLink[2] actualCapacity:vector ETV
attr "" ""
attr source computeActualCapacity
vector 3 Aerocom.aircraft[0].dataLink[3] actualCapacity:vector ETV
attr "" ""
attr source computeActualCapacity
vector 4 Aerocom.aircraft[0].dataLink[4] actualCapacity:vector ETV
attr "" ""
attr source computeActualCapacity
vector 5 Aerocom.aircraft[0].dataLink[5] actualCapacity:vector ETV
attr "" ""
attr source computeActualCapacity
vector 6 Aerocom.aircraft[0].dataLink[6] actualCapacity:vector ETV
attr "" ""
attr source computeActualCapacity
vector 7 Aerocom.aircraft[0].dataLink[7] actualCapacity:vector ETV
attr "" ""
attr source computeActualCapacity
vector 8 Aerocom.aircraft[0].dataLink[8] actualCapacity:vector ETV
attr "" ""
attr source computeActualCapacity
vector 9 Aerocom.aircraft[0].dataLink[9] actualCapacity:vector ETV
attr "" ""
attr source computeActualCapacity
vector 10 Aerocom.aircraft[0].packetGenerator arrivalTime:vector ETV
attr "" ""
attr source computeArrivalTime
vector 11 Aerocom.aircraft[0].linkSelector waitingTime:vector ETV
attr "" ""
attr source computeWaitingTime
vector 12 Aerocom.aircraft[0].linkSelector queueLength:vector ETV
attr "" ""
attr source computeQueueLength
vector 13 Aerocom.aircraft[0].linkSelector serviceTime:vector ETV
attr "" ""
attr source computeServiceTime
vector 14 Aerocom.aircraft[0].linkSelector responseTime:vector ETV
attr "" ""
attr source computeResponseTime
vector 15 Aerocom.aircraft[0].dataLink[0] tDistribution:vector ETV
attr "" ""
attr source computeTDistribution
vector 16 Aerocom.aircraft[0].dataLink[3] tDistribution:vector ETV
attr "" ""
attr source computeTDistribution
vector 17 Aerocom.aircraft[0].dataLink[7] tDistribution:vector ETV
attr "" ""
attr source computeTDistribution
vector 18 Aerocom.aircraft[0].dataLink[2] tDistribution:vector ETV
attr "" ""
attr source computeTDistribution
vector 19 Aerocom.aircraft[0].dataLink[9] tDistribution:vector ETV
attr "" ""
attr source computeTDistribution
vector 20 Aerocom.aircraft[0].dataLink[5] tDistribution:vector ETV
attr "" ""
attr source computeTDistribution
vector 21 Aerocom.aircraft[0].dataLink[6] tDistribution:vector ETV
attr "" ""
attr source computeTDistribution
vector 22 Aerocom.aircraft[0].dataLink[1] tDistribution:vector ETV
attr "" ""
attr source computeTDistribution
vector 23 Aerocom.aircraft[0].dataLink[8] tDistribution:vector ETV
attr "" ""
attr source computeTDistribution
vector 24 Aerocom.aircraft[0].dataLink[4] tDistribution:vector ETV
attr "" ""
attr source computeTDistribution
0	3622 45747 1228 49723 10 400 1821 8013 9965 16948285 158194336773
1	49369 39971 1228 49723 10 400 1635 8029 9974 15176410 141225090510
2	89340 35692 1228 49723 10 400 1486 8009 9981 13670771 126145491913
3	125032 40217 1228 49723 10 400 1636 8045 9986 15162729 140894998109
4	165249 33406 1228 49723 10 400 1404 8026 9959 12885790 118596368114
5	198655 37198 1228 49723 10 400 1539 8018 9988 14313349 133475882353
6	235853 34454 1228 49723 10 400 1444 8028 9977 13333599 123480867755
7	270307 34950 1228 49723 10 400 1463 8031 9986 13526453 125428776827
8	305257 35021 1228 49723 10 400 1465 8036 9995 13582759 126317358439
9	340278 39393 1228 49723 10 400 1604 8012 9972 14795614 136893956442
10	379671 318048 1229 49718 10.005245567619 399.990973989844 7687 2.767595e-006 0.511624106208 390.00681941603 39.585679544771
11	697719 284464 1231 49719 10.007417611529 399.990973989844 7687 0 4.295208434238 5146.9917361904 9365.3358269571
12	982183 218791 1231 49719 10.007417611529 399.990973989844 7687 0 84 99861 3500881
13	1200974 345239 1231 49719 10.007417611529 399.990973989844 7687 0.0070035017508754 0.008736894658013 56.623005641198 0.41775489972235
14	1546213 318018 1232 49720 10.014676763245 399.998086365377 7687 0.007003501751 4.302635489941 5203.6147418314 9441.5328500542
15	1864231 34208 1235 49714 10.042820177235 399.967497856534 788 0.00062020026830132 2.9799121312984 390.37915609227 381.96671869248
16	1898439 35891 1241 49638 10.062091937059 399.519600555502 827 0.00036199919213032 3.6981388542622 390.50754970754 370.17857299301
17	1934330 36329 1247 49601 10.100728150422 399.263459716624 836 0.00019418306873277 2.7142132760003 391.25474958391 368.06052080671
18	1970659 33069 1253 49701 10.171203108278 399.905483447295 762 0.00045111153041332 3.1786045526238 390.53559259343 392.23059181944
19	2003728 32989 1256 49593 10.192621587094 399.068006015217 760 0.00027665290109629 3.2522337397256 390.66987786196 387.16390925616
20	2036717 30307 1260 49700 10.199131011911 399.90237018197 700 0.0011978778005887 3.7747751881069 390.40676740378 417.98564983781
21	2067024 32523 1266 49682 10.241083994123 399.706936420127 749 0.00040164675543452 3.6444460937736 390.19670470527 429.01833469629
22	2099547 35012 1274 49622 10.398736202718 399.465438120764 805 0.00056323607031456 3.3069891392411 390.05446963084 378.77187713309
23	2134559 35399 1300 49556 10.548171519696 398.804411642983 813 6.1795907249355e-005 3.8756011976659 390.15883067755 392.65495195696
24	2169958 36506 1376 49587 11.369278336466 398.993347524372 841 0.00023429031071929 3.194958277539 389.73593214821 360.44654827189

