version 2
run Exponential-capacity-37-20210216-13:46:19-10140
attr configname Exponential-capacity
attr datetime 20210216-13:46:19
attr experiment Exponential-capacity
attr inifile aerocom.ini
attr iterationvars "$0=2, $1=50, $2=0.5, $3=0.5"
attr iterationvarsf 2,50,0.5,0.5-
attr measurement "$0=2, $1=50, $2=0.5, $3=0.5"
attr network Aerocom
attr processid 10140
attr repetition 1
attr replication #1
attr resultdir results
attr runnumber 37
attr seedset 1
param **.t 2s
param **.k 50ms
param **.X 0.5s
param **.m 0.5s
param **.tDistribution "\"exponential\""
param **.operationMode 0
param **.s "70 byte"
param **.dimPoolMax 10000
param **.dimPoolMin 8000
param **.nDL 10
param **.nA 1
param **.DLMaxCapacity 0
param **.trasmitting false

vector 0 Aerocom.aircraft[0].dataLink[0] actualCapacity:vector ETV
attr "" ""
attr source computeActualCapacity
vector 1 Aerocom.aircraft[0].dataLink[1] actualCapacity:vector ETV
attr "" ""
attr source computeActualCapacity
vector 2 Aerocom.aircraft[0].dataLink[2] actualCapacity:vector ETV
attr "" ""
attr source computeActualCapacity
vector 3 Aerocom.aircraft[0].dataLink[3] actualCapacity:vector ETV
attr "" ""
attr source computeActualCapacity
vector 4 Aerocom.aircraft[0].dataLink[4] actualCapacity:vector ETV
attr "" ""
attr source computeActualCapacity
vector 5 Aerocom.aircraft[0].dataLink[5] actualCapacity:vector ETV
attr "" ""
attr source computeActualCapacity
vector 6 Aerocom.aircraft[0].dataLink[6] actualCapacity:vector ETV
attr "" ""
attr source computeActualCapacity
vector 7 Aerocom.aircraft[0].dataLink[7] actualCapacity:vector ETV
attr "" ""
attr source computeActualCapacity
vector 8 Aerocom.aircraft[0].dataLink[8] actualCapacity:vector ETV
attr "" ""
attr source computeActualCapacity
vector 9 Aerocom.aircraft[0].dataLink[9] actualCapacity:vector ETV
attr "" ""
attr source computeActualCapacity
vector 10 Aerocom.aircraft[0].linkSelector responseTime:vector ETV
attr "" ""
attr source computeResponseTime
vector 11 Aerocom.aircraft[0].dataLink[4] tDistribution:vector ETV
attr "" ""
attr source computeTDistribution
vector 12 Aerocom.aircraft[0].packetGenerator arrivalTime:vector ETV
attr "" ""
attr source computeArrivalTime
vector 13 Aerocom.aircraft[0].linkSelector waitingTime:vector ETV
attr "" ""
attr source computeWaitingTime
vector 14 Aerocom.aircraft[0].linkSelector queueLength:vector ETV
attr "" ""
attr source computeQueueLength
vector 15 Aerocom.aircraft[0].linkSelector serviceTime:vector ETV
attr "" ""
attr source computeServiceTime
vector 16 Aerocom.aircraft[0].dataLink[5] tDistribution:vector ETV
attr "" ""
attr source computeTDistribution
vector 17 Aerocom.aircraft[0].dataLink[0] tDistribution:vector ETV
attr "" ""
attr source computeTDistribution
vector 18 Aerocom.aircraft[0].dataLink[3] tDistribution:vector ETV
attr "" ""
attr source computeTDistribution
vector 19 Aerocom.aircraft[0].dataLink[7] tDistribution:vector ETV
attr "" ""
attr source computeTDistribution
vector 20 Aerocom.aircraft[0].dataLink[8] tDistribution:vector ETV
attr "" ""
attr source computeTDistribution
vector 21 Aerocom.aircraft[0].dataLink[6] tDistribution:vector ETV
attr "" ""
attr source computeTDistribution
vector 22 Aerocom.aircraft[0].dataLink[1] tDistribution:vector ETV
attr "" ""
attr source computeTDistribution
vector 23 Aerocom.aircraft[0].dataLink[2] tDistribution:vector ETV
attr "" ""
attr source computeTDistribution
vector 24 Aerocom.aircraft[0].dataLink[9] tDistribution:vector ETV
attr "" ""
attr source computeTDistribution
0	1231	10	9281
0	1238	10.070387184435	9282
0	1243	10.086041098526	9282
0	1248	10.119229666182	9282
0	1254	10.228202983124	9283
0	1259	10.25857709306	9283
0	1264	10.293561045423	9283
0	1269	10.30585516246	9284
0	1274	10.348314533672	9284
0	1279	10.358067453106	9284
0	1284	10.379026864157	9284
0	1287	10.386566717668	9284
0	1294	10.429885626445	9284
0	1298	10.5	9285
0	1301	10.541349194667	9285
0	1304	10.548888236132	9285
0	1314	10.598883052641	9285
0	1317	10.606422094106	9285
0	1322	10.613961135571	9286
0	1339	11	9311
0	1343	11.139371227809	9326
0	1348	11.166103832907	9328
0	1353	11.181699002626	9330
0	1356	11.189201682154	9331
0	1363	11.199083642446	9332
0	1368	11.210830113424	9333
0	1373	11.22702263311	9335
0	1378	11.292620605857	9341
0	1384	11.307120945188	9343
0	1390	11.359772704285	9348
0	1395	11.473783086221	9360
0	1399	11.5	9363
0	1402	11.506381265436	9363
0	1407	11.596546451023	9373
0	1412	11.612610497391	9374
0	1417	11.62052021927	9375
0	1422	11.673329927683	9380
0	1427	11.942886384514	9408
0	1431	12	9414
0	1434	12.099578102674	9424
0	1439	12.12155990145	9426
0	1444	12.150152466634	9429
0	1449	12.189760058425	9433
0	1452	12.197180815342	9434
0	1459	12.227241257813	9437
0	1462	12.234658869342	9438
0	1469	12.242075694941	9439
0	1472	12.249491734776	9440
0	1479	12.33980808013	9449
0	1484	12.5	9465
0	1487	12.500387192663	9465
0	1493	12.512707667355	9467
0	1498	12.551616874798	9471
0	1503	12.638574673877	9479
0	1508	12.729416978466	9489
0	1513	13	9517
0	1516	13.0477794398	9521
0	1521	13.057097939253	9522
0	1529	13.29429496553	9449
0	1534	13.30937354141	9439
0	1539	13.317952697767	9434
0	1544	13.376831821575	9395
0	1549	13.408638603128	9375
0	1553	13.5	9315
0	1556	13.521600675262	9301
0	1561	13.583053498974	9261
0	1566	13.603881456258	9247
0	1571	13.624657677334	9234
0	1574	13.632238357429	9229
0	1581	13.687660526119	9193
0	1586	13.787459561346	9127
0	1591	13.85645683319	9082
0	1596	13.873642826245	9071
0	1601	13.95856594495	9016
0	1605	14	8989
0	1655	14.5	8811
0	1721	15	8664
0	1761	15.5	8516
0	1800	16	8594
0	1849	16.5	8688
0	1901	17	8782
0	1958	17.5	8876
0	2019	18	8970
0	2047	18.5	9064
0	2112	19	9158
0	2169	19.5	9252
0	2222	20	9299
0	2297	20.5	9331
0	2357	21	9363
0	2361	21.0373849357	9366
0	2367	21.06277120004	9368
0	2372	21.071325129062	9368
0	2379	21.149022719918	9373
0	2384	21.165136980606	9374
0	2392	21.213182322986	9377
0	2397	21.293334808953	9382
0	2402	21.338101160269	9385
0	2407	21.346409161449	9386
0	2410	21.353867077494	9386
0	2417	21.365700655862	9387
0	2420	21.373157777413	9388
0	2428	21.381189696215	9388
0	2433	21.394394379478	9389
0	2439	21.427043351359	9391
0	2444	21.434497296626	9391
0	2447	21.441951241893	9392
0	2455	21.449404393511	9392
0	2459	21.456857545129	9393
0	2468	21.5	9395
0	2513	22	9380
0	2588	22.5	9365
0	2642	23	9350
0	2722	23.5	9334
0	2784	24	9319
0	2835	24.5	9304
0	2864	25	9288
0	2911	25.5	9273
0	2959	26	9258
0	3029	26.5	9242
0	3082	27	9227
0	3137	27.5	9212
0	3174	28	9197
0	3211	28.5	8172
0	3259	29	8113
0	3320	29.5	8190
0	3364	30	8266
0	3408	30.5	8343
0	3470	31	8419
0	3556	31.5	8496
0	3616	32	8572
0	3658	32.5	8641
0	3728	33	8701
0	3780	33.5	8761
0	3835	34	8820
0	3898	34.5	8880
0	3936	35	8940
0	4015	35.5	9000
0	4035	36	9059
0	4077	36.5	9119
0	4129	37	9179
0	4189	37.5	9238
0	4247	38	9298
0	4325	38.5	9358
0	4360	39	9418
0	4428	39.5	9477
0	4496	40	9537
0	4548	40.5	9597
0	4580	41	9657
0	4586	41.017409596536	9659
0	4592	41.146795375056	9674
0	4595	41.15403126507	9675
0	4602	41.190463013123	9679
0	4607	41.228101086447	9684
0	4612	41.24630127215	9686
0	4615	41.253528197609	9687
0	4622	41.302135509639	9693
0	4625	41.309357216025	9693
0	4632	41.364477065213	9700
0	4637	41.374192932541	9701
0	4642	41.411621937502	9706
0	4647	41.457015972942	9711
0	4652	41.477903736602	9714
0	4657	41.5	9716
0	4660	41.518298438131	9718
0	4666	41.548686062621	9722
0	4671	41.60503718956	9729
0	4674	41.612232173628	9730
0	4683	41.669324210561	9736
0	4689	41.686539103761	9739
0	4697	41.758268446162	9747
0	4703	41.766095099486	9748
0	4708	41.780391941436	9750
0	4716	41.835294672874	9756
0	4721	41.864881927088	9760
0	4730	42	9776
0	4733	42.024877450567	9779
0	4736	42.032035646702	9780
0	4741	42.039193110915	9781
0	4748	42.167312804833	9796
0	4753	42.174458578618	9797
0	4756	42.181603623019	9798
0	4763	42.238393647233	9804
0	4768	42.348179079394	9818
0	4773	42.370039601507	9820
0	4778	42.378454613654	9821
0	4783	42.413712188634	9825
0	4786	42.420836870568	9826
0	4791	42.427960827417	9827
0	4797	42.5	9836
0	4800	42.570853329774	9844
0	4805	42.580639778631	9845
0	4810	42.596322656671	9847
0	4817	42.655777899163	9852
0	4822	42.674621849353	9847
0	4827	42.721091993485	9836
0	4832	42.740854880779	9831
0	4837	42.83686108294	9808
0	4842	42.856348105209	9803
0	4848	43	9768
0	4851	43.021086306234	9763
0	4856	43.181489653571	9724
0	4861	43.203773947126	9718
0	4866	43.244415558025	9708
0	4871	43.292827468754	9697
0	4876	43.315095704794	9691
0	4881	43.34477685498	9684
0	4886	43.352561777368	9682
0	4891	43.387781988823	9674
0	4897	43.435799495894	9662
0	4902	43.460637558715	9656
0	4906	43.5	9646
0	4944	44	9524
0	4986	44.5	9371
0	5031	45	9213
0	5111	45.5	9055
0	5181	46	8897
0	5229	46.5	8739
0	5272	47	8581
0	5306	47.5	8423
0	5368	48	8333
0	5452	48.5	8262
0	5491	49	8190
0	5556	49.5	8118
0	5611	50	8078
0	5655	50.5	8075
0	5709	51	8072
0	5775	51.5	8070
0	5840	52	8067
0	5883	52.5	8064
0	5940	53	8061
0	6010	53.5	8058
0	6035	54	8055
0	6104	54.5	8052
0	6155	55	8050
0	6194	55.5	8047
0	6258	56	8044
0	6329	56.5	8041
0	6380	57	8038
0	6429	57.5	8035
0	6481	58	8034
0	6550	58.5	8092
0	6599	59	8149
0	6663	59.5	8207
0	6725	60	8265
0	6757	60.5	8323
0	6798	61	8381
0	6861	61.5	8439
0	6914	62	8497
0	6989	62.5	8555
0	7043	63	8613
0	7120	63.5	8662
0	7177	64	8707
0	7257	64.5	8752
0	7301	65	8796
0	7341	65.5	8841
0	7380	66	8886
0	7443	66.5	8931
0	7506	67	8976
0	7566	67.5	9021
0	7615	68	9066
0	7685	68.5	9110
0	7759	69	9155
0	7802	69.5	9200
0	7874	70	9245
0	7944	70.5	9290
0	8007	71	9335
0	8080	71.5	9526
0	8123	72	9719
0	8177	72.5	9730
0	8216	73	9679
0	8301	73.5	9629
0	8373	74	9578
0	8409	74.5	9527
0	8442	75	9477
0	8481	75.5	9426
0	8534	76	9376
0	8591	76.5	9325
0	8661	77	9275
0	8706	77.5	9224
0	8766	78	9174
0	8844	78.5	9123
0	8901	79	9073
0	8950	79.5	9022
0	8997	80	8972
0	9066	80.5	8921
0	9083	81	8871
0	9131	81.5	8820
0	9181	82	8770
0	9245	82.5	8816
0	9291	83	8898
0	9331	83.5	8782
0	9371	84	8665
0	9441	84.5	8549
0	9526	85	8433
0	9593	85.5	8317
0	9640	86	8200
0	9688	86.5	8084
0	9744	87	8275
0	9819	87.5	8596
0	9857	88	8917
0	9913	88.5	9238
0	9961	89	9461
0	10004	89.5	9644
0	10007	89.53708443519	9631
0	10012	89.579494588202	9617
0	10017	89.593688680452	9612
0	10022	89.620041780815	9604
0	10028	89.751682565618	9559
0	10033	89.795552350844	9545
0	10038	89.924217207878	9501
0	10043	89.972514772643	9485
0	10048	90	9476
0	10102	90.5	9308
0	10115	91	9140
0	10179	91.5	9187
0	10237	92	9302
0	10296	92.5	9417
0	10328	93	9532
0	10386	93.5	9647
0	10389	93.580173339747	9666
0	10396	93.616755383212	9667
0	10399	93.623996512828	9666
0	10406	93.67349420815	9656
0	10411	93.682136382451	9654
0	10416	93.706859753978	9649
0	10421	93.755110412421	9639
0	10426	93.781394109891	9634
0	10432	93.796492830891	9631
0	10437	93.808622372976	9628
0	10442	93.857783684959	9618
0	10447	93.866888409463	9616
0	10452	93.895697371018	9611
0	10458	93.944440664175	9601
0	10463	93.971742161911	9595
0	10467	94	9589
0	10470	94.155638511858	9558
0	10475	94.162962219747	9556
0	10478	94.170287460433	9555
0	10486	94.359782878523	9516
0	10491	94.413275649378	9505
0	10494	94.420640194354	9504
0	10501	94.459663376312	9496
0	10506	94.475677387911	9492
0	10510	94.5	9488
0	10513	94.544523619809	9478
0	10518	94.554471810028	9476
0	10524	94.573691777219	9473
0	10529	94.610309201379	9465
0	10534	94.62547427007	9462
0	10537	94.632872283175	9460
0	10544	94.642415939878	9459
0	10549	94.654551163812	9456
0	10554	94.745502222244	9438
0	10559	94.77440501442	9432
0	10565	94.86887066283	9412
0	10573	95	9386
0	10576	95.016498900132	9382
0	10581	95.100268645177	9365
0	10586	95.156277130764	9354
0	10591	95.172605592594	9351
0	10594	95.180091422986	9349
0	10601	95.20257063335	9344
0	10606	95.288819289057	9327
0	10611	95.305961556108	9323
0	10618	95.375277645369	9309
0	10624	95.433254603167	9298
0	10629	95.47906568486	9288
0	10634	95.492466947949	9285
0	10635	95.5	9284
0	10695	96	9182
0	10758	96.5	9080
0	10807	97	8979
0	10875	97.5	8877
0	10904	98	8775
0	10975	98.5	8673
0	11023	99	8571
0	11072	99.5	8470
0	11145	100	8368
0	11213	100.5	8266
0	11254	101	8164
0	11326	101.5	8442
0	11397	102	8141
0	11453	102.5	8221
0	11490	103	8376
0	11519	103.5	8532
0	11592	104	8687
0	11631	104.5	8843
0	11679	105	8998
0	11715	105.5	9153
0	11788	106	9198
0	11893	106.5	9160
0	11961	107	9123
0	12015	107.5	9085
0	12068	108	9048
0	12118	108.5	9010
0	12182	109	8973
0	12242	109.5	8935
0	12320	110	8898
0	12355	110.5	8966
0	12428	111	9063
0	12471	111.5	9160
0	12506	112	9257
0	12535	112.5	9354
0	12576	113	9451
0	12637	113.5	9549
0	12685	114	9646
0	12729	114.5	9743
0	12735	114.547440836753	9752
0	12740	114.580388263204	9759
0	12746	114.621375979186	9743
0	12751	114.665664379761	9712
0	12754	114.672871958015	9707
0	12759	114.680083248836	9702
0	12766	114.734669433158	9663
0	12769	114.741913560241	9658
0	12777	114.782748147116	9629
0	12782	114.790112589385	9624
0	12787	114.818649604142	9604
0	12792	114.883526156943	9558
0	12796	115	9475
0	12799	115.036240833683	9450
0	12805	115.06563730654	9429
0	12808	115.073061211514	9424
0	12816	115.118682318943	9391
0	12822	115.16850856713	9356
0	12830	115.23764800564	9307
0	12837	115.254886424245	9295
0	12843	115.292927798336	9268
0	12851	115.327290977277	9244
0	12856	115.347645413277	9229
0	12862	115.37057643642	9213
0	12868	115.442429732441	9162
0	12872	115.5	9121
0	12942	116	9005
0	12998	116.5	9609
0	13056	117	9530
0	13111	117.5	8784
0	13143	118	9305
0	13199	118.5	9002
0	13255	119	8699
0	13308	119.5	8396
0	13360	120	8846
0	13377	120.5	9063
0	13442	121	9181
0	13513	121.5	9299
0	13582	122	9418
0	13586	122.163462521709	9456
0	13592	122.466121396328	9528
0	13596	122.5	9536
0	13638	123	9654
0	13641	123.023716260696	9660
0	13646	123.139563523557	9687
0	13651	123.320969673946	9730
0	13656	123.353635524728	9738
0	13659	123.360823859088	9740
0	13666	123.436976145049	9758
0	13672	123.451494315478	9761
0	13677	123.460289816646	9763
0	13680	123.467459743922	9765
0	13687	123.477379808187	9767
0	13692	123.494789675694	9771
0	13693	123.5	9773
0	13731	124	9891
0	13734	124.003755961645	9892
0	13741	124.031130455437	9894
0	13746	124.054597850009	9890
0	13752	124.122552441318	9879
0	13757	124.13455156773	9877
0	13764	124.233817982957	9861
0	13769	124.326142700675	9846
0	13775	124.361923684521	9840
0	13781	124.415309996165	9832
0	13786	124.448974972953	9826
0	13793	124.5	9789
0	13796	124.542044348239	9705
0	13801	124.567980611571	9653
0	13807	124.581563394328	9626
0	13812	124.610572153289	9568
0	13815	124.617888206801	9553
0	13822	124.640970971377	9507
0	13827	124.682335031199	9424
0	13830	124.689762875002	9409
0	13837	124.698383031281	9392
0	13843	124.834689005588	9119
0	13848	124.918456075321	8952
0	13853	124.955193490902	8878
0	13859	124.980759491341	8827
0	13863	125	8789
0	13905	125.5	8062
0	13963	126	8066
0	14015	126.5	8069
0	14086	127	8072
0	14157	127.5	8075
0	14197	128	8078
0	14238	128.5	8081
0	14278	129	8084
0	14319	129.5	8088
0	14413	130	8091
0	14493	130.5	8094
0	14541	131	8097
0	14622	131.5	8100
0	14687	132	8103
0	14739	132.5	8106
0	14793	133	8110
0	14835	133.5	8113
0	14889	134	8116
0	14925	134.5	8119
0	14980	135	8122
0	15047	135.5	8125
0	15137	136	8128
0	15219	136.5	8132
0	15268	137	8135
0	15319	137.5	8138
0	15384	138	8141
0	15429	138.5	8143
0	15470	139	8141
0	15521	139.5	8138
0	15568	140	8136
0	15614	140.5	8133
0	15661	141	8131
0	15709	141.5	8128
0	15788	142	8126
0	15866	142.5	8124
0	15936	143	9326
0	15998	143.5	9450
0	16063	144	9613
0	16066	144.184583030529	9686
0	16071	144.218252427375	9700
0	16077	144.344799546176	9619
0	16082	144.374722221629	9596
0	16088	144.413461910394	9566
0	16091	144.420779493501	9561
0	16097	144.5	9499
0	16100	144.526074915195	9479
0	16105	144.568786711409	9446
0	16110	144.577615491208	9439
0	16115	144.590094565401	9430
0	16120	144.639804485558	9391
0	16125	144.669733852033	9368
0	16130	144.753966042685	9303
0	16135	144.779239809482	9283
0	16140	144.794469210701	9272
0	16145	144.8427466601	9234
0	16150	144.883806310202	9203
0	16155	144.960699106372	9143
0	16160	144.997190431364	9115
0	16161	145	9113
0	16208	145.5	9020
0	16281	146	9055
0	16351	146.5	9090
0	16426	147	9126
0	16500	147.5	9172
0	16604	148	9230
0	16658	148.5	9288
0	16714	149	9322
0	16774	149.5	9342
0	16826	150	9363
0	16879	150.5	9383
0	16917	151	9403
0	16982	151.5	9424
0	17074	152	9405
0	17154	152.5	9108
0	17210	153	9111
0	17241	153.5	9719
0	17244	153.544021634608	9707
0	17249	153.580886795385	9698
0	17254	153.615911412936	9688
0	17259	153.696251348556	9667
0	17264	153.714447067112	9663
0	17269	153.740868075662	9656
0	17274	153.815639143773	9636
0	17281	153.873886926057	9621
0	17284	153.881162677018	9619
0	17291	153.888564136314	9617
0	17296	153.901153121156	9614
0	17301	153.925857185016	9607
0	17306	153.9356965498	9605
0	17310	154	9588
0	17368	154.5	9457
0	17456	155	9325
0	17505	155.5	9194
0	17549	156	9063
0	17606	156.5	8932
0	17626	157	8801
0	17674	157.5	8670
0	17737	158	8685
0	17815	158.5	9064
0	17920	159	9443
0	17952	159.5	9822
0	17955	159.519601123106	9837
0	17960	159.556843829349	9865
0	17965	159.630790711269	9921
0	17971	159.640470255344	9921
0	17976	159.721464712356	9913
0	17982	159.739889353463	9912
0	17988	159.751144901878	9911
0	17993	159.779848739974	9908
0	18000	159.930594928688	9895
0	18005	159.969781118778	9891
0	18009	160	9888
0	18012	160.007645888541	9888
0	18017	160.035014294144	9885
0	18022	160.155779267865	9874
0	18027	160.180795724581	9872
0	18032	160.198422136562	9871
0	18038	160.319631785517	9860
0	18043	160.376863263721	9855
0	18049	160.432007667912	9850
0	18054	160.46118448042	9847
0	18058	160.5	9844
0	18062	160.592079068457	9835
0	18067	160.619131378298	9833
0	18072	160.628595159582	9832
0	18077	160.644084411078	9831
0	18082	160.699557838263	9826
0	18087	160.710555558089	9825
0	18092	160.743041899931	9822
0	18097	160.773604799987	9819
0	18102	160.792900773621	9817
0	18107	160.811733148599	9816
0	18110	160.818864362943	9815
0	18118	160.868924161141	9810
0	18124	160.978643398532	9801
0	18129	160.993595246487	9799
0	18132	161	9799
0	18133	161	9799
0	18142	161.183133336701	9782
0	18147	161.270613855426	9774
0	18153	161.420565262418	9761
0	18158	161.443647448707	9759
0	18163	161.462148942255	9757
0	18167	161.5	9754
0	18256	162	9709
0	18259	162.010466926986	9708
0	18266	162.142346606824	9696
0	18271	162.151748934884	9695
0	18277	162.226613425955	9689
0	18280	162.233838113745	9688
0	18287	162.298468525213	9682
0	18292	162.31258152734	9681
0	18299	162.363799343674	9676
0	18305	162.475325982565	9666
0	18310	162.497106867299	9664
0	18311	162.5	9664
0	18317	162.513465030347	9663
0	18323	162.65586426742	9650
0	18328	162.696181208094	9647
0	18333	162.850595314061	9633
0	18338	162.858024139044	9632
0	18346	162.959645054781	9623
0	18350	163	9619
0	18355	163.168121266882	9604
0	18358	163.17540989662	9604
0	18368	163.282930237068	9591
0	18373	163.326433827222	9586
0	18379	163.33564357704	9585
0	18384	163.354445300298	9583
0	18391	163.366714577266	9581
0	18396	163.440338127458	9572
0	18401	163.5	9565
0	18480	164	9505
0	18483	164.00405157287	9505
0	18488	164.014516750406	9504
0	18493	164.052669573151	9499
0	18498	164.149202141195	9488
0	18503	164.290507995774	9471
0	18508	164.340218037563	9465
0	18511	164.347613705814	9464
0	18519	164.442974411003	9453
0	18525	164.49004145556	9447
0	18529	164.5	9446
0	18532	164.51017982749	9444
0	18537	164.641919267174	9429
0	18542	164.663377945484	9426
0	18547	164.672839104842	9425
0	18553	164.715136896715	9420
0	18558	164.783843721594	9412
0	18563	164.796469392284	9410
0	18568	164.956632578094	9391
0	18573	164.974765689039	9389
0	18577	165	9386
0	18580	165.052043911207	9380
0	18584	165.059506597774	9379
0	18591	165.074595565021	9377
0	18596	165.16755065342	9366
0	18601	165.209810860521	9361
0	18606	165.241873568858	9357
0	18611	165.284189379304	9352
0	18616	165.291933061825	9351
0	18619	165.299418892217	9350
0	18627	165.415158015019	9336
0	18632	165.432521078342	9334
0	18637	165.444788976786	9333
0	18641	165.5	9326
0	18709	166	9266
0	18749	166.5	9207
0	18817	167	9147
0	18877	167.5	8186
0	18938	168	8115
0	18975	168.5	9224
0	19054	169	9335
0	19150	169.5	9374
0	19216	170	9413
0	19254	170.5	9451
0	19323	171	9490
0	19398	171.5	9529
0	19455	172	9568
0	19491	172.5	9606
0	19553	173	9645
0	19556	173.050977767784	9649
0	19561	173.062770311218	9650
0	19566	173.134968907837	9656
0	19571	173.234954271408	9663
0	19576	173.275228072996	9667
0	19581	173.296310772746	9668
0	19584	173.303551153383	9669
0	19591	173.311974707017	9669
0	19596	173.339180610074	9671
0	19599	173.346418744703	9672
0	19606	173.365967163359	9674
0	19609	173.373203053373	9674
0	19616	173.435679028745	9679
0	19620	173.5	9684
0	19623	173.50614247166	9684
0	19630	173.661865976868	9634
0	19635	173.69957495179	9619
0	19641	173.733816466965	9605
0	19646	173.82196221802	9569
0	19651	173.851477942029	9557
0	19656	173.876871391364	9546
0	19662	173.921182015438	9528
0	19666	174	9496
0	19669	174.03018783669	9484
0	19674	174.073736813267	9466
0	19679	174.104890916413	9454
0	19684	174.159358115725	9431
0	19689	174.223709105232	9405
0	19694	174.235932012192	9400
0	19699	174.267953563621	9387
0	19704	174.295455589808	9376
0	19710	174.363453843668	9348
0	19715	174.448971690038	9314
0	19720	174.464825437608	9307
0	19724	174.5	9293
0	19793	175	9089
0	19837	175.5	8886
0	19896	176	8682
0	19974	176.5	8479
0	20059	177	8275
0	20107	177.5	8281
0	20172	178	8430
0	20238	178.5	8579
0	20297	179	8727
0	20360	179.5	8876
0	20408	180	9025
0	20461	180.5	9174
0	20500	181	9323
0	20538	181.5	9392
0	20577	182	9337
0	20663	182.5	9281
0	20720	183	9226
0	20776	183.5	9170
0	20855	184	9115
0	20885	184.5	9060
0	20934	185	9004
0	21015	185.5	8949
0	21084	186	8894
0	21121	186.5	8838
0	21188	187	8783
0	21236	187.5	8728
0	21279	188	8672
0	21324	188.5	8617
0	21381	189	9341
0	21417	189.5	8934
0	21456	190	9195
0	21508	190.5	9456
0	21586	191	9717
0	21658	191.5	8893
0	21722	192	8597
0	21766	192.5	9537
0	21840	193	9255
0	21880	193.5	8980
0	21917	194	8739
0	21992	194.5	8498
0	22026	195	8257
0	22099	195.5	8049
0	22150	196	8172
0	22212	196.5	8296
0	22263	197	8420
0	22333	197.5	8544
0	22379	198	9070
0	22433	198.5	9704
0	22518	199	9978
0	22521	199.023577516897	9976
0	22526	199.078802639121	9972
0	22531	199.163410070453	9967
0	22536	199.226781611506	9962
0	22541	199.241352934549	9961
0	22547	199.264621961609	9960
0	22552	199.317646285869	9956
0	22557	199.329297380512	9955
0	22562	199.424563222715	9948
0	22567	199.459843906081	9946
0	22573	199.471366741144	9945
0	22578	199.478405454065	9945
0	22581	199.485444166986	9944
0	22587	199.5	9943
0	22591	199.582646047207	9937
0	22596	199.640457221033	9933
0	22599	199.647504437383	9933
0	22606	199.655795463366	9932
0	22611	199.707052660026	9929
0	22616	199.714407168713	9928
0	22621	199.728916921918	9927
0	22626	199.745520085325	9926
0	22629	199.752572271503	9926
0	22637	199.800539131875	9922
0	22642	199.814428720251	9921
0	22647	199.849465327857	9919
0	22652	199.984074507243	9910
0	22656	200	9909
0	22728	200.5	9874
0	22731	200.560411445067	9870
0	22734	200.567503643649	9869
0	22741	200.596208693645	9867
0	22746	200.608088842666	9866
0	22751	200.666345446021	9862
0	22756	200.792248593437	9854
0	22761	200.900721041443	9846
0	22767	200.979489420775	9841
0	22771	201	9839
0	22775	201.043509341466	9836
0	22780	201.050837331388	9836
0	22785	201.250134934235	9822
0	22790	201.265839724437	9821
0	22795	201.287117240168	9819
0	22800	201.303214134551	9818
0	22805	201.340540449379	9816
0	22810	201.376330832695	9813
0	22815	201.418915934989	9810
0	22819	201.5	9805
0	22823	201.52303594255	9803
0	22828	201.558359687448	9801
0	22834	201.596545916005	9798
0	22837	201.603690231171	9797
0	22842	201.610835275572	9797
0	22849	201.705750910649	9790
0	22854	201.844821715031	9781
0	22857	201.851978447471	9780
0	22862	201.859135911684	9780
0	22869	201.870849803052	9779
0	22874	201.900731375706	9777
0	22879	201.988226329425	9771
0	22883	202	9770
0	22886	202.04567706916	9767
0	22892	202.265580613668	9752
0	22897	202.315854526503	9748
0	22902	202.407689052787	9742
0	22907	202.426091510685	9740
0	22912	202.480360304655	9737
0	22917	202.5	9735
0	22950	203	9701
0	23013	203.5	9666
0	23070	204	9631
0	23118	204.5	9599
0	23173	205	9670
0	23227	205.5	9353
0	23262	206	8974
0	23327	206.5	8596
0	23368	207	8465
0	23437	207.5	8379
0	23519	208	8293
0	23565	208.5	8207
0	23615	209	8120
0	23670	209.5	8068
0	23732	210	8432
0	23806	210.5	8797
0	23850	211	9161
0	23913	211.5	9525
0	23991	212	9755
0	24065	212.5	8637
0	24116	213	9265
0	24169	213.5	8997
0	24197	214	9022
0	24238	214.5	9046
0	24301	215	9071
0	24376	215.5	9096
0	24425	216	9120
0	24477	216.5	9145
0	24554	217	9170
0	24644	217.5	9194
0	24716	218	9219
0	24792	218.5	9244
0	24847	219	9269
0	24907	219.5	9293
0	24980	220	9318
0	25066	220.5	9343
0	25100	221	9367
0	25149	221.5	9510
0	25200	222	9683
0	25203	222.010905286494	9687
0	25208	222.136250098616	9731
0	25213	222.207559720331	9755
0	25218	222.334639495075	9799
0	25223	222.342891484632	9802
0	25228	222.468221079556	9846
0	25232	222.5	9857
0	25235	222.603807223454	9893
0	25240	222.654853142294	9910
0	25245	222.668974299835	9915
0	25248	222.676034309921	9918
0	25256	222.755573676434	9945
0	25262	222.822916668614	9945
0	25267	222.836164179975	9942
0	25273	222.981616804174	9904
0	25277	223	9899
0	25281	223.169855924341	9854
0	25286	223.181135905997	9851
0	25291	223.320350057688	9815
0	25296	223.334787713599	9811
0	25301	223.360421405371	9804
0	25306	223.376289081393	9800
0	25311	223.40905831192	9791
0	25316	223.483180806569	9772
0	25321	223.495428648746	9769
0	25322	223.5	9768
0	25328	223.542619148677	9756
0	25333	223.640824952382	9731
0	25336	223.648018457674	9729
0	25343	223.662756815753	9725
0	25348	223.701032603958	9715
0	25353	223.77686967588	9695
0	25358	223.796781327917	9690
0	25363	223.832345682343	9680
0	25368	223.905095666124	9661
0	25372	224	9636
0	25375	224.035702904953	9627
0	25382	224.082539994922	9614
0	25387	224.091552930688	9612
0	25392	224.112371977155	9607
0	25397	224.138859368616	9600
0	25403	224.14806962298	9597
0	25410	224.188429407843	9587
0	25413	224.195730962031	9585
0	25420	224.205184309916	9582
0	25426	224.267999559151	9566
0	25436	224.423434361046	9525
0	25441	224.472433519972	9512
0	25445	224.5	9505
0	25448	224.631125754799	9470
0	25454	224.648652233108	9466
0	25459	224.692064323579	9454
0	25464	224.789540941957	9429
0	25469	224.844010014643	9414
0	25472	224.851445748656	9412
0	25479	224.90528649832	9398
0	25483	225	9373
0	25486	225.003902112011	9372
0	25491	225.013125374615	9370
0	25496	225.023686137008	9367
0	25499	225.031159180672	9365
0	25506	225.087136941316	9351
0	25511	225.096952381641	9348
0	25517	225.113112132095	9344
0	25522	225.124565509303	9341
0	25525	225.132059353645	9339
0	25532	225.141046377089	9336
0	25537	225.159812490481	9331
0	25542	225.17169212054	9328
0	25547	225.24263900493	9310
0	25552	225.294916926985	9296
0	25557	225.352463410486	9281
0	25563	225.451167656713	9255
0	25567	225.5	9242
0	25620	226	9111
0	25667	226.5	8979
0	25719	227	8848
0	25743	227.5	8709
0	25777	228	8454
0	25820	228.5	8200
0	25875	229	8531
0	25935	229.5	9263
0	26017	230	9496
0	26063	230.5	9595
0	26138	231	9522
0	26224	231.5	9448
0	26265	232	9375
0	26294	232.5	9301
0	26349	233	9622
0	26414	233.5	9946
0	26417	233.566193047827	9945
0	26423	233.751458868036	9942
0	26428	233.778944468544	9941
0	26433	233.817673932222	9940
0	26439	233.88187063799	9939
0	26444	233.89332683397	9939
0	26449	233.949023916132	9938
0	26455	233.99210353772	9937
0	26459	234	9937
0	26463	234.011018276437	9936
0	26468	234.229929754074	9932
0	26473	234.468569587249	9927
0	26478	234.488532117662	9927
0	26482	234.5	9927
0	26485	234.576740263608	9925
0	26490	234.608726811444	9925
0	26495	234.625117571315	9924
0	26500	234.636610658734	9924
0	26505	234.661304475326	9924
0	26510	234.729482085842	9922
0	26515	234.738618489783	9922
0	26520	234.754070966036	9922
0	26526	234.884980858199	9919
0	26531	234.96100555571	9918
0	26536	234.971245973854	9918
0	26539	234.978303848425	9917
0	26545	235	9917
0	26549	235.174307795047	9914
0	26554	235.230573931328	9912
0	26559	235.251144344098	9912
0	26565	235.291528619874	9911
0	26571	235.341242319221	9910
0	26576	235.379688541805	9910
0	26581	235.400948279645	9909
0	26586	235.409939848708	9909
0	26591	235.471525606022	9908
0	26594	235.478590604003	9908
0	26600	235.5	9907
0	26603	235.53698436357	9906
0	26608	235.564943814535	9906
0	26613	235.690793887153	9903
0	26619	235.773727808258	9902
0	26624	235.808063611763	9901
0	26629	235.96010304287	9898
0	26634	235.976719259803	9898
0	26638	236	9897
0	26641	236.082184813528	9896
0	26646	236.140169928841	9895
0	26651	236.246931002936	9893
0	26655	236.254006713034	9891
0	26660	236.261083853869	9889
0	26667	236.303642884591	9877
0	26672	236.365702263913	9860
0	26675	236.372801655394	9858
0	26682	236.452082321131	9837
0	26686	236.5	9823
0	26691	236.556001726335	9808
0	26696	236.713701032707	9765
0	26702	236.815439898506	9737
0	26707	236.849578596291	9728
0	26712	236.917049902739	9710
0	26719	236.9654455288	9696
0	26723	237	9687
0	26726	237.008792738596	9685
0	26731	237.104968471031	9658
0	26734	237.112216348438	9656
0	26741	237.136464107793	9650
0	26747	237.146281806001	9647
0	26753	237.214678338262	9628
0	26758	237.327616289974	9597
0	26763	237.395871743899	9579
0	26768	237.403179396055	9577
0	26771	237.410488574295	9575
0	26776	237.417799279256	9573
0	26783	237.4489444374	9564
0	26786	237.456263550742	9562
0	26792	237.5	9550
0	26873	238	9374
0	26900	238.5	9176
0	26945	239	8979
0	26993	239.5	8781
0	27040	240	8583
0	27096	240.5	9428
0	27185	241	8503
0	27251	241.5	8136
0	27311	242	8237
0	27385	242.5	8665
0	27448	243	9492
0	27509	243.5	9457
0	27547	244	9090
0	27632	244.5	8786
0	27682	245	8682
0	27761	245.5	8785
0	27807	246	8573
0	27868	246.5	8090
0	27917	247	8047
0	28005	247.5	8265
0	28050	248	8483
0	28116	248.5	8701
0	28163	249	8920
0	28191	249.5	9138
0	28239	250	9356
0	28282	250.5	9575
0	28363	251	9537
0	28366	251.003829646822	9536
0	28371	251.080784533939	9519
0	28376	251.1018372367	9514
0	28381	251.188437292514	9494
0	28386	251.216363363506	9488
0	28389	251.22374110381	9486
0	28396	251.273805025475	9475
0	28401	251.302302357857	9468
0	28406	251.334492605896	9461
0	28411	251.39896758084	9446
0	28416	251.466061411059	9431
0	28420	251.5	9424
0	28423	251.559074644561	9410
0	28429	251.595792925281	9402
0	28434	251.606233172829	9399
0	28439	251.623743354311	9395
0	28445	251.69461759477	9379
0	28450	251.788194568535	9358
0	28455	251.825891632211	9350
0	28460	251.856283349453	9343
0	28464	252	9310
0	28504	252.5	9197
0	28556	253	9083
0	28633	253.5	8970
0	28698	254	8856
0	28757	254.5	8743
0	28813	255	8868
0	28875	255.5	9009
0	28925	256	9151
0	28968	256.5	9292
0	29006	257	9433
0	29063	257.5	9575
0	29100	258	9716
0	29159	258.5	8041
0	29204	259	8088
0	29264	259.5	8178
0	29308	260	8319
0	29348	260.5	9125
0	29411	261	8809
0	29476	261.5	8894
0	29560	262	8991
0	29611	262.5	9100
0	29666	263	9208
0	29724	263.5	9316
0	29777	264	9189
0	29805	264.5	9066
0	29840	265	9018
0	29879	265.5	8970
0	29952	266	8922
0	30007	266.5	8874
0	30044	267	8826
0	30084	267.5	8778
0	30129	268	8730
0	30170	268.5	8682
0	30236	269	8634
0	30308	269.5	8642
0	30367	270	9590
0	30452	270.5	9661
0	30521	271	9613
0	30527	271.128601430237	9597
0	30532	271.186658489592	9590
0	30535	271.193957759665	9589
0	30543	271.251000827498	9582
0	30549	271.299546654678	9576
0	30554	271.308831173922	9575
0	30560	271.398095326973	9564
0	30564	271.5	9551
0	30567	271.532106749189	9547
0	30572	271.604197331512	9538
0	30578	271.643401895876	9533
0	30581	271.650744809964	9532
0	30590	271.755091372285	9519
0	30600	271.85809978637	9506
0	30605	271.888774392595	9503
0	30611	271.973957758237	9492
0	30615	272	9489
0	30618	272.010222217264	9487
0	30623	272.105382178079	9476
0	30628	272.125069998633	9473
0	30634	272.173397218354	9467
0	30640	272.233219619159	9460
0	30645	272.332126033541	9447
0	30650	272.395773058477	9439
0	30655	272.476331298778	9429
0	30659	272.5	9426
0	30710	273	9364
0	30713	273.054044312209	9357
0	30718	273.064971030973	9356
0	30723	273.091856283575	9353
0	30729	273.108171653312	9351
0	30734	273.149366255766	9346
0	30739	273.171393965957	9343
0	30742	273.178886206137	9342
0	30749	273.359155362295	9319
0	30752	273.366666897867	9319
0	30759	273.375560581327	9317
0	30764	273.407684539787	9313
0	30770	273.464945225373	9306
0	30775	273.5	9302
0	30778	273.514756481299	9300
0	30783	273.522287611356	9299
0	30788	273.605018171189	9289
0	30793	273.621191742672	9287
0	30798	273.705090556895	9276
0	30804	273.823525094014	9262
0	30809	273.862013978479	9257
0	30814	273.993731376138	9240
0	30815	274	9240
0	30859	274.5	9167
0	30913	275	8996
0	30956	275.5	8825
0	31019	276	8654
0	31059	276.5	8483
0	31120	277	8312
0	31197	277.5	8327
0	31251	278	8910
0	31294	278.5	9070
0	31351	279	8804
0	31391	279.5	8538
0	31419	280	8272
0	31470	280.5	8209
0	31522	281	8264
0	31561	281.5	8318
0	31599	282	8373
0	31653	282.5	8427
0	31709	283	8482
0	31759	283.5	8536
0	31794	284	8592
0	31835	284.5	9513
0	31901	285	8648
0	31976	285.5	8830
0	32048	286	9012
0	32117	286.5	9194
0	32183	287	9376
0	32228	287.5	9558
0	32231	287.528129019164	9568
0	32236	287.63400072231	9607
0	32239	287.64128707601	9609
0	32249	287.716851430535	9637
0	32256	287.78251749412	9788
0	32262	287.801659149994	9811
0	32270	287.97153503002	9735
0	32275	287.980690514339	9731
0	32278	287.987884019631	9727
0	32284	288	9722
0	32287	288.014208953534	9716
0	32290	288.021413564485	9712
0	32297	288.128855393053	9665
0	32303	288.219913350241	9624
0	32308	288.23456995147	9617
0	32313	288.286997157283	9594
0	32318	288.294293384091	9591
0	32321	288.30159189311	9587
0	32328	288.359170329051	9562
0	32333	288.466244120864	9514
0	32338	288.488062060964	9504
0	32342	288.5	9499
0	32345	288.50514958898	9497
0	32351	288.597463531263	9455
0	32357	288.677583776903	9424
0	32362	288.780698657411	9416
0	32367	288.972058418297	9400
0	32370	288.979505226808	9399
0	32375	288.986952827617	9399
0	32381	289	9397
0	32384	289.031626950902	9395
0	32390	289.125171386808	9387
0	32395	289.216089934559	9379
0	32400	289.287135803305	9373
0	32405	289.304562562687	9372
0	32410	289.339955911247	9369
0	32415	289.390631713577	9365
0	32420	289.437831946207	9361
0	32425	289.458115112146	9359
0	32429	289.5	9356
0	32488	290	9314
0	32552	290.5	9272
0	32576	291	9230
0	32658	291.5	9189
0	32718	292	9147
0	32786	292.5	9105
0	32838	293	8726
0	32908	293.5	8715
0	32981	294	8703
0	33025	294.5	8692
0	33077	295	8681
0	33112	295.5	8670
0	33171	296	8689
0	33230	296.5	8738
0	33269	297	8787
0	33289	297.5	8836
0	33328	298	8886
0	33374	298.5	8935
0	33443	299	8984
0	33477	299.5	9033
0	33552	300	9082
0	33595	300.5	9131
0	33641	301	9180
0	33696	301.5	9229
0	33740	302	9278
0	33791	302.5	9327
0	33834	303	9376
0	33882	303.5	9426
0	33972	304	9475
0	34001	304.5	9524
0	34070	305	9511
0	34109	305.5	9419
0	34165	306	9408
0	34250	306.5	9403
0	34291	307	9131
0	34359	307.5	8860
0	34411	308	8438
0	34461	308.5	8591
0	34512	309	8743
0	34560	309.5	8684
0	34611	310	8595
0	34683	310.5	8544
0	34726	311	8494
0	34800	311.5	8443
0	34851	312	8823
0	34933	312.5	9906
0	34996	313	9660
0	35043	313.5	9418
0	35092	314	9212
0	35147	314.5	9006
0	35190	315	8800
0	35231	315.5	8614
0	35265	316	8494
0	35317	316.5	8374
0	35350	317	8254
0	35405	317.5	8134
0	35457	318	8538
0	35500	318.5	9422
0	35545	319	8944
0	35615	319.5	8691
0	35661	320	8953
0	35746	320.5	9215
0	35773	321	9476
0	35794	321.5	9738
0	35797	321.559304199106	9769
0	35800	321.566469722701	9773
0	35808	321.633160470519	9707
0	35813	321.675569501352	9664
0	35818	321.685874823093	9653
0	35823	321.700375580022	9639
0	35830	321.756900043567	9581
0	35837	321.909900762248	9426
0	35842	321.964847102394	9371
0	35846	322	9335
0	35889	322.5	8829
0	35960	323	8323
0	36000	323.5	8242
0	36052	324	8250
0	36096	324.5	8257
0	36176	325	8265
0	36235	325.5	8273
0	36281	326	8943
0	36330	326.5	8694
0	36397	327	8480
0	36443	327.5	8445
0	36486	328	8411
0	36512	328.5	8377
0	36576	329	8343
0	36608	329.5	8309
0	36673	330	8275
0	36721	330.5	8241
0	36770	331	8207
0	36848	331.5	8173
0	36893	332	8139
0	36947	332.5	8288
0	37019	333	8550
0	37071	333.5	8812
0	37150	334	8873
0	37200	334.5	8849
0	37240	335	8825
0	37296	335.5	8801
0	37329	336	8777
0	37400	336.5	8753
0	37434	337	8730
0	37472	337.5	8706
0	37546	338	8682
0	37607	338.5	8658
0	37658	339	8634
0	37711	339.5	8610
0	37769	340	8586
0	37837	340.5	8563
0	37910	341	8539
0	37980	341.5	8643
0	38050	342	8815
0	38122	342.5	8988
0	38164	343	9160
0	38204	343.5	9332
0	38308	344	9415
0	38359	344.5	9185
0	38392	345	8955
0	38423	345.5	8726
0	38475	346	8496
0	38591	346.5	8267
0	38672	347	9306
0	38706	347.5	9253
0	38730	348	9200
0	38787	348.5	9147
0	38842	349	9093
0	38899	349.5	9040
0	38954	350	8987
0	39023	350.5	8934
0	39084	351	8881
0	39132	351.5	8867
0	39199	352	8875
0	39266	352.5	9030
0	39306	353	9031
0	39369	353.5	8997
0	39462	354	8964
0	39510	354.5	8930
0	39558	355	8897
0	39622	355.5	8863
0	39682	356	8830
0	39745	356.5	8797
0	39795	357	8763
0	39839	357.5	8730
0	39911	358	8696
0	39986	358.5	8663
0	40025	359	8629
0	40075	359.5	8596
0	40102	360	8562
0	40155	360.5	8529
0	40200	361	8495
0	40291	361.5	8462
0	40341	362	8429
0	40389	362.5	8395
0	40467	363	8614
0	40516	363.5	8874
0	40585	364	9134
0	40634	364.5	9265
0	40683	365	9320
0	40748	365.5	9376
0	40786	366	9359
0	40829	366.5	9142
0	40869	367	8926
0	40913	367.5	8710
0	40938	368	8493
0	40997	368.5	8319
0	41061	369	8370
0	41117	369.5	8421
0	41187	370	8472
0	41267	370.5	8523
0	41334	371	8500
0	41393	371.5	8607
0	41430	372	9606
0	41494	372.5	9533
0	41501	372.598501875899	9518
0	41508	372.650552151231	9511
0	41514	372.723342208786	9500
0	41519	372.73947893743	9498
0	41526	372.904834695875	9473
0	41531	372.919798085952	9471
0	41534	372.927189068953	9470
0	41542	372.942512606433	9468
0	41547	372.959757350952	9465
0	41553	373	9459
0	41556	373.008272959885	9458
0	41562	373.156653087028	9436
0	41567	373.261725198971	9421
0	41572	373.274628915682	9419
0	41577	373.282671519702	9418
0	41582	373.402845394722	9400
0	41587	373.456868161337	9392
0	41591	373.5	9386
0	41631	374	9312
0	41679	374.5	9272
0	41726	375	9282
0	41771	375.5	9171
0	41836	376	9060
0	41914	376.5	8949
0	41969	377	8838
0	42035	377.5	8709
0	42075	378	8572
0	42132	378.5	8435
0	42195	379	8299
0	42249	379.5	8162
0	42310	380	9525
0	42370	380.5	9505
0	42408	381	9486
0	42447	381.5	9230
0	42505	382	8970
0	42577	382.5	8710
0	42643	383	9681
0	42698	383.5	9474
0	42741	384	9267
0	42768	384.5	9059
0	42824	385	8852
0	42876	385.5	8644
0	42943	386	8437
0	42978	386.5	8288
0	43027	387	8314
0	43060	387.5	8339
0	43133	388	8418
0	43217	388.5	8707
0	43300	389	8771
0	43376	389.5	8835
0	43434	390	8899
0	43465	390.5	8963
0	43520	391	9027
0	43601	391.5	9091
0	43669	392	9154
0	43727	392.5	9123
0	43771	393	9075
0	43818	393.5	9027
0	43881	394	8980
0	43941	394.5	8922
0	44010	395	8864
0	44047	395.5	8805
0	44092	396	8782
0	44118	396.5	8783
0	44174	397	8651
0	44234	397.5	8518
0	44295	398	8177
0	44368	398.5	8087
0	44412	399	8233
0	44463	399.5	8380
0	44502	400	8526
1	1231	10	8541
1	1298	10.5	8613
1	1339	11	8685
1	1399	11.5	8757
1	1431	12	8829
1	1484	12.5	8901
1	1513	13	8974
1	1553	13.5	9046
1	1605	14	9118
1	1655	14.5	9190
1	1658	14.535214889129	9195
1	1663	14.557459568537	9198
1	1666	14.565069918613	9200
1	1675	14.627301414527	9208
1	1680	14.653336710205	9212
1	1683	14.6609354944	9213
1	1690	14.699506610974	9219
1	1695	14.71833731102	9222
1	1700	14.770767491321	9229
1	1705	14.797967894176	9233
1	1710	14.816518298228	9236
1	1717	14.921383111972	9251
1	1721	15	9262
1	1724	15.013437038733	9264
1	1729	15.021783482833	9265
1	1734	15.056108444651	9270
1	1741	15.162173643917	9292
1	1746	15.222999484901	9306
1	1751	15.303213127566	9324
1	1756	15.360010620804	9337
1	1761	15.5	9369
1	1800	16	9484
1	1849	16.5	9598
1	1852	16.50442392344	9599
1	1857	16.518042996265	9602
1	1862	16.607737448303	9623
1	1867	16.667548538419	9636
1	1872	16.770404961149	9660
1	1877	16.777651337961	9662
1	1880	16.784896214798	9663
1	1887	16.908432805808	9691
1	1892	16.920596896189	9694
1	1897	16.943152165131	9699
1	1901	17	9712
1	1904	17.032270676409	9720
1	1909	17.112756905871	9738
1	1914	17.207050709602	9760
1	1919	17.270619734707	9774
1	1924	17.289511234271	9779
1	1929	17.335638060466	9789
1	1934	17.352014301766	9793
1	1939	17.365177502215	9796
1	1944	17.393354992153	9802
1	1949	17.4226672759	9809
1	1954	17.461433588664	9818
1	1958	17.5	9827
1	1961	17.512945065865	9830
1	1964	17.520066123851	9831
1	1973	17.594218565254	9848
1	1980	17.684891873653	9798
1	1985	17.763828161345	9705
1	1990	17.80208555462	9660
1	1995	17.826062309806	9632
1	2000	17.900637902613	9544
1	2005	17.926843325027	9513
1	2010	17.939965895848	9498
1	2013	17.947335868474	9489
1	2019	18	9427
1	2022	18.113590515827	9293
1	2027	18.142492475197	9259
1	2032	18.212013078052	9177
1	2037	18.308299560946	9064
1	2042	18.329310267447	9039
1	2047	18.5	8838
1	2112	19	8430
1	2169	19.5	8909
1	2222	20	9580
1	2225	20.074892443984	9680
1	2231	20.104404844628	9720
1	2238	20.122678182596	9744
1	2242	20.129862090642	9750
1	2249	20.142910890629	9741
1	2252	20.150097011151	9736
1	2259	20.158859552095	9730
1	2265	20.197554931107	9702
1	2270	20.224814268933	9683
1	2274	20.232043433448	9678
1	2279	20.239276332807	9673
1	2284	20.246512970872	9667
1	2296	20.493168772283	9492
1	2297	20.5	9487
1	2303	20.52183549031	9472
1	2308	20.550252426924	9452
1	2313	20.584688559334	9427
1	2319	20.632636114309	9393
1	2326	20.676406980336	9362
1	2332	20.86975290178	9225
1	2337	20.9181996068	9190
1	2342	20.935560915441	9178
1	2347	20.958886322978	9161
1	2353	20.989171697656	9140
1	2357	21	9132
1	2468	21.5	9014
1	2513	22	9359
1	2588	22.5	9327
1	2642	23	9305
1	2722	23.5	9284
1	2784	24	9263
1	2835	24.5	9241
1	2864	25	9220
1	2911	25.5	9199
1	2959	26	9244
1	3029	26.5	9310
1	3082	27	9376
1	3137	27.5	9442
1	3174	28	9508
1	3177	28.018430402559	9510
1	3184	28.086384516053	9519
1	3189	28.100781217261	9521
1	3194	28.127864604013	9525
1	3201	28.254039042687	9542
1	3207	28.438370329224	9566
1	3211	28.5	9574
1	3215	28.537615124533	9579
1	3222	28.718369495346	9603
1	3227	28.753639114167	9608
1	3230	28.760924709504	9609
1	3237	28.798512830371	9614
1	3242	28.837325374424	9619
1	3245	28.844602638173	9620
1	3255	28.942910557784	9633
1	3259	29	9640
1	3320	29.5	9706
1	3324	29.53895152267	9711
1	3329	29.572736843742	9716
1	3332	29.579941454693	9717
1	3340	29.631128159577	9724
1	3345	29.647037522567	9726
1	3350	29.725273701304	9736
1	3355	29.774830093294	9743
1	3360	29.977646396065	9769
1	3364	30	9772
1	3367	30.023075498596	9775
1	3370	30.030236623916	9776
1	3378	30.230623012911	9803
1	3384	30.280499694326	9809
1	3389	30.328474707331	9816
1	3394	30.371490894932	9821
1	3399	30.413821622708	9827
1	3404	30.466404552049	9834
1	3408	30.5	9838
1	3411	30.528290807053	9842
1	3416	30.567464039108	9847
1	3421	30.586854978035	9850
1	3426	30.627605736697	9855
1	3431	30.654464149118	9859
1	3436	30.755922347406	9872
1	3442	30.798248776002	9878
1	3447	30.828323835976	9882
1	3452	30.838185471805	9883
1	3458	30.876468739681	9885
1	3463	30.936542945821	9877
1	3469	30.995257773078	9869
1	3470	31	9868
1	3476	31.025134982092	9865
1	3479	31.0322307753	9864
1	3486	31.056410861553	9861
1	3491	31.084685980814	9857
1	3497	31.254841263908	9835
1	3500	31.26195870163	9834
1	3505	31.269076863111	9833
1	3510	31.276195748497	9832
1	3517	31.334504282304	9824
1	3520	31.34162968947	9823
1	3527	31.384057170236	9817
1	3532	31.395824710593	9816
1	3537	31.422086985549	9812
1	3542	31.434294957127	9811
1	3547	31.443287161426	9810
1	3552	31.479595942707	9805
1	3556	31.5	9802
1	3559	31.502350690294	9802
1	3567	31.544432790717	9796
1	3573	31.55928861907	9794
1	3580	31.646141154932	9783
1	3585	31.692882189516	9777
1	3590	31.726228019377	9772
1	3602	31.882432622395	9751
1	3615	31.993461957745	9737
1	3616	32	9736
1	3622	32.100499788307	9722
1	3627	32.125631153555	9719
1	3632	32.174740448013	9713
1	3637	32.242988905367	9704
1	3643	32.298492708801	9696
1	3648	32.338725397787	9691
1	3654	32.452454853843	9676
1	3658	32.5	9670
1	3728	33	9603
1	3780	33.5	9537
1	3835	34	9471
1	3898	34.5	9404
1	3936	35	9338
1	4015	35.5	9283
1	4035	36	9243
1	4077	36.5	9204
1	4129	37	9164
1	4189	37.5	9124
1	4247	38	9085
1	4325	38.5	9045
1	4360	39	9005
1	4428	39.5	8966
1	4496	40	8926
1	4548	40.5	8886
1	4580	41	8847
1	4657	41.5	8807
1	4730	42	8872
1	4797	42.5	9074
1	4848	43	9276
1	4906	43.5	9478
1	4944	44	9596
1	4986	44.5	9701
1	5031	45	9805
1	5034	45.00895610968	9807
1	5039	45.041940022546	9814
1	5045	45.069954222001	9820
1	5050	45.078885922277	9822
1	5055	45.10285558999	9827
1	5060	45.120446742376	9830
1	5065	45.188693891042	9845
1	5070	45.239190662335	9855
1	5073	45.246293655739	9857
1	5080	45.257432912319	9859
1	5086	45.334218090987	9834
1	5092	45.412826713746	9796
1	5097	45.447364737437	9780
1	5100	45.45452220165	9776
1	5105	45.461682594449	9773
1	5111	45.5	9755
1	5114	45.507619604363	9751
1	5120	45.594212655877	9710
1	5125	45.65143895186	9682
1	5130	45.676293921514	9671
1	5135	45.728289369336	9646
1	5138	45.735546263385	9642
1	5143	45.742806167969	9639
1	5148	45.750068332094	9635
1	5155	45.767250861812	9627
1	5161	45.86535427867	9580
1	5164	45.872661168023	9577
1	5169	45.879970346263	9573
1	5176	45.975910311372	9528
1	5181	46	9516
1	5229	46.5	9277
1	5272	47	9039
1	5306	47.5	8800
1	5368	48	8561
1	5452	48.5	8323
1	5491	49	8084
1	5556	49.5	8025
1	5611	50	8033
1	5655	50.5	8041
1	5709	51	8049
1	5775	51.5	8057
1	5840	52	8065
1	5883	52.5	8339
1	5940	53	8659
1	6010	53.5	8979
1	6035	54	9233
1	6104	54.5	9251
1	6155	55	8866
1	6194	55.5	9179
1	6258	56	9492
1	6329	56.5	9221
1	6380	57	8341
1	6429	57.5	9482
1	6481	58	9544
1	6550	58.5	9581
1	6599	59	9618
1	6663	59.5	9656
1	6725	60	9693
1	6757	60.5	9730
1	6763	60.560789924525	9735
1	6768	60.671569363074	9743
1	6773	60.685869806263	9744
1	6779	60.748371148942	9749
1	6784	60.782039519405	9751
1	6789	60.803322532886	9753
1	6794	60.922250501788	9762
1	6798	61	9768
1	6801	61.064489917246	9773
1	6807	61.095149038491	9775
1	6812	61.128275587161	9777
1	6817	61.16195013624	9780
1	6823	61.172205185088	9780
1	6830	61.191326691637	9778
1	6838	61.256700706393	9770
1	6845	61.346817974814	9759
1	6850	61.361826298575	9757
1	6856	61.42154871652	9750
1	6861	61.5	9740
1	6864	61.508068412269	9739
1	6869	61.564457103051	9732
1	6874	61.631902968593	9724
1	6879	61.688032792451	9717
1	6884	61.705171416641	9715
1	6887	61.712376769189	9714
1	6894	61.739484259397	9711
1	6899	61.806342390561	9702
1	6904	61.869122771612	9695
1	6909	61.954442879014	9684
1	6914	62	9679
1	6989	62.5	9617
1	7043	63	9107
1	7120	63.5	9582
1	7177	64	9177
1	7257	64.5	8773
1	7301	65	9379
1	7341	65.5	9619
1	7380	66	8911
1	7443	66.5	8452
1	7506	67	8239
1	7566	67.5	8437
1	7615	68	8819
1	7685	68.5	9151
1	7759	69	9314
1	7802	69.5	9478
1	7874	70	9641
1	7944	70.5	9746
1	8007	71	9647
1	8080	71.5	9548
1	8123	72	9450
1	8177	72.5	9351
1	8216	73	9253
1	8301	73.5	9154
1	8373	74	9055
1	8409	74.5	8957
1	8442	75	8858
1	8481	75.5	8760
1	8534	76	8661
1	8591	76.5	9062
1	8661	77	9707
1	8706	77.5	9630
1	8766	78	9406
1	8844	78.5	9262
1	8901	79	9416
1	8950	79.5	9570
1	8997	80	9720
1	9000	80.006359779	9720
1	9005	80.029378563665	9720
1	9010	80.037495256452	9720
1	9015	80.055010384715	9720
1	9020	80.113377058351	9720
1	9023	80.120578704442	9720
1	9031	80.158996720957	9720
1	9036	80.182807802255	9720
1	9041	80.215128723253	9720
1	9047	80.250079283031	9720
1	9052	80.285094577734	9720
1	9057	80.299399139056	9720
1	9062	80.412983766956	9720
1	9066	80.5	9719
1	9069	80.587676337513	9719
1	9074	80.61266377099	9719
1	9079	80.939356320807	9718
1	9083	81	9718
1	9086	81.103318007734	9718
1	9091	81.120405993876	9718
1	9097	81.174320223098	9718
1	9102	81.220166276597	9718
1	9107	81.23183962311	9718
1	9112	81.339027335327	9717
1	9117	81.411957375621	9717
1	9122	81.455775993715	9717
1	9127	81.487195587955	9717
1	9131	81.5	9717
1	9181	82	9550
1	9245	82.5	9201
1	9291	83	8851
1	9331	83.5	8524
1	9371	84	8334
1	9441	84.5	8454
1	9526	85	8572
1	9593	85.5	8685
1	9640	86	8798
1	9688	86.5	8912
1	9744	87	9025
1	9819	87.5	9138
1	9857	88	9315
1	9913	88.5	9563
1	9961	89	9812
1	9965	89.036149336929	9830
1	9970	89.045394273512	9834
1	9975	89.064306423667	9844
1	9980	89.13989511145	9881
1	9986	89.224160228876	9237
1	9995	89.467908534876	8746
1	10000	89.482805770536	8744
1	10004	89.5	8741
1	10048	90	8670
1	10102	90.5	8599
1	10115	91	8528
1	10179	91.5	8457
1	10237	92	8385
1	10296	92.5	8489
1	10328	93	8698
1	10386	93.5	8457
1	10467	94	8274
1	10510	94.5	8306
1	10573	95	8339
1	10635	95.5	8372
1	10695	96	8404
1	10758	96.5	8437
1	10807	97	8505
1	10875	97.5	8915
1	10904	98	9326
1	10975	98.5	9736
1	11023	99	9937
1	11028	99.10701377816	9920
1	11033	99.125366312269	9917
1	11039	99.211106883358	9903
1	11047	99.279431158992	9892
1	11056	99.396876046794	9873
1	11061	99.410146284107	9871
1	11068	99.484660465094	9859
1	11072	99.5	9856
1	11075	99.546388183189	9849
1	11080	99.725205591595	9820
1	11085	99.736229127647	9818
1	11090	99.749824092047	9816
1	11096	99.829727368189	9803
1	11099	99.836868039412	9802
1	11104	99.844009439126	9801
1	11111	99.851801415102	9799
1	11116	99.894753067476	9792
1	11121	99.93813784519	9785
1	11126	99.952700308331	9783
1	11131	99.975857522672	9779
1	11136	99.983015718807	9778
1	11139	99.990174647013	9777
1	11145	100	9775
1	11148	100.075926960463	9763
1	11151	100.083096887739	9762
1	11156	100.090267549489	9761
1	11164	100.106260336385	9758
1	11170	100.168358239854	9749
1	11176	100.188788425808	9746
1	11179	100.195970859627	9745
1	11186	100.213292069655	9744
1	11191	100.266675532807	9737
1	11196	100.30835472277	9733
1	11202	100.433246250921	9719
1	11207	100.486519735385	9712
1	11210	100.493727313639	9712
1	11213	100.5	9711
1	11220	100.583044877817	9701
1	11225	100.594309186716	9700
1	11230	100.618202779534	9698
1	11235	100.692132417074	9689
1	11240	100.831159456371	9673
1	11245	100.869565582311	9669
1	11250	100.893553497232	9666
1	11254	101	9654
1	11261	101.133527151391	9639
1	11267	101.161052729017	9636
1	11272	101.183659611984	9633
1	11279	101.210403716113	9630
1	11284	101.239314656374	9627
1	11289	101.311651206967	9619
1	11295	101.346398951612	9615
1	11302	101.413329604914	9607
1	11305	101.420615958614	9606
1	11312	101.447886752549	9603
1	11317	101.467778222166	9601
1	11322	101.488754389531	9599
1	11326	101.5	9597
1	11329	101.525485257585	9594
1	11332	101.532781484393	9594
1	11339	101.551354870797	9591
1	11344	101.565993204168	9590
1	11349	101.695971927111	9575
1	11352	101.703282632072	9574
1	11359	101.714317379334	9573
1	11364	101.73453533073	9571
1	11370	101.770332446955	9567
1	11375	101.780830943173	9565
1	11380	101.866719538623	9556
1	11386	101.918615135516	9550
1	11393	101.985440649781	9542
1	11397	102	9541
1	11401	102.054014430223	9534
1	11406	102.077179903735	9532
1	11411	102.110701513986	9528
1	11416	102.157988931753	9523
1	11421	102.190929903764	9519
1	11426	102.254657852244	9512
1	11431	102.275780228853	9509
1	11436	102.297008716561	9507
1	11444	102.45687679677	9489
1	11447	102.464253759569	9488
1	11453	102.5	9484
1	11456	102.714011017154	9459
1	11461	102.746663284873	9456
1	11466	102.798067458765	9450
1	11471	102.834555417	9446
1	11476	102.928163720167	9435
1	11481	102.948315102427	9433
1	11486	102.971867303196	9430
1	11490	103	9427
1	11493	103.120589339511	9413
1	11498	103.164905915604	9408
1	11503	103.246734285541	9399
1	11508	103.2697849122	9396
1	11515	103.36205127304	9386
1	11519	103.5	9370
1	11592	104	9313
1	11631	104.5	9256
1	11679	105	9200
1	11715	105.5	9149
1	11788	106	9230
1	11893	106.5	9310
1	11961	107	9390
1	12015	107.5	9471
1	12068	108	9551
1	12118	108.5	9622
1	12182	109	9812
1	12186	109.02493172481	9795
1	12191	109.072045689361	9763
1	12196	109.139317340091	9717
1	12199	109.146521209598	9712
1	12206	109.164186141854	9700
1	12212	109.22457744742	9659
1	12217	109.27979170255	9621
1	12222	109.346983515761	9575
1	12227	109.423726583448	9522
1	12233	109.446740920467	9507
1	12238	109.464036313209	9495
1	12242	109.5	9470
1	12245	109.503665427029	9468
1	12250	109.536986815682	9445
1	12253	109.544398144427	9440
1	12258	109.551813398664	9435
1	12265	109.596835234294	9404
1	12270	109.607974527027	9396
1	12273	109.615424505741	9391
1	12281	109.682248239424	9345
1	12286	109.703644778021	9331
1	12291	109.741752702453	9305
1	12296	109.824528635099	9248
1	12301	109.879505984494	9210
1	12306	109.92905365511	9176
1	12311	109.938006644925	9170
1	12316	109.961498026368	9154
1	12320	110	9128
1	12355	110.5	8786
1	12428	111	8569
1	12471	111.5	8970
1	12506	112	8933
1	12535	112.5	8897
1	12576	113	8861
1	12637	113.5	8746
1	12685	114	8605
1	12729	114.5	8465
1	12796	115	8324
1	12872	115.5	8184
1	12942	116	8113
1	12998	116.5	8415
1	13056	117	8717
1	13111	117.5	9019
1	13143	118	9321
1	13199	118.5	9623
1	13205	118.51448082113	9632
1	13210	118.539857152153	9647
1	13213	118.547113293959	9652
1	13220	118.595069796332	9681
1	13226	118.670592253324	9726
1	13231	118.695917188102	9741
1	13236	118.711734328537	9751
1	13243	118.852517148908	9836
1	13250	118.95456038268	9852
1	13255	119	9813
1	13262	119.078814012312	9746
1	13269	119.158021918751	9679
1	13275	119.181360381968	9659
1	13282	119.3125809745	9547
1	13287	119.325393625996	9536
1	13290	119.332734230023	9530
1	13297	119.352028764519	9514
1	13303	119.437216529537	9441
1	13308	119.5	9388
1	13360	120	8963
1	13377	120.5	9001
1	13442	121	9169
1	13513	121.5	9195
1	13582	122	8905
1	13596	122.5	8615
1	13638	123	8325
1	13693	123.5	8036
1	13731	124	8015
1	13793	124.5	8029
1	13863	125	8044
1	13905	125.5	8142
1	13963	126	8278
1	14015	126.5	8288
1	14086	127	8297
1	14157	127.5	8306
1	14197	128	8592
1	14238	128.5	9656
1	14241	128.552393311404	9625
1	14247	128.662330137559	9559
1	14250	128.669653079289	9555
1	14257	128.728694786433	9519
1	14264	128.927351848576	9401
1	14270	128.978239559439	9370
1	14275	128.992748717373	9361
1	14278	129	9357
1	14319	129.5	9058
1	14413	130	8778
1	14493	130.5	8642
1	14541	131	8506
1	14622	131.5	8417
1	14687	132	8492
1	14739	132.5	8566
1	14793	133	8640
1	14835	133.5	8715
1	14889	134	8789
1	14925	134.5	8863
1	14980	135	8938
1	15047	135.5	9012
1	15137	136	9086
1	15219	136.5	9161
1	15268	137	9235
1	15319	137.5	9309
1	15384	138	9384
1	15429	138.5	9458
1	15470	139	9505
1	15521	139.5	9504
1	15568	140	9503
1	15614	140.5	9503
1	15661	141	9502
1	15709	141.5	9501
1	15788	142	9411
1	15866	142.5	9270
1	15936	143	9129
1	15998	143.5	8988
1	16063	144	8847
1	16097	144.5	8706
1	16161	145	8565
1	16208	145.5	8424
1	16281	146	8283
1	16351	146.5	8916
1	16426	147	9763
1	16429	147.058893725299	9736
1	16434	147.085237130124	9723
1	16439	147.10678424142	9713
1	16444	147.113991077619	9710
1	16447	147.121200140441	9706
1	16454	147.164819645685	9686
1	16460	147.265561092933	9638
1	16464	147.272824010551	9635
1	16471	147.280223678555	9631
1	16476	147.28806432896	9628
1	16481	147.313019478426	9616
1	16486	147.338773147485	9604
1	16491	147.380392082126	9584
1	16496	147.469132537135	9542
1	16500	147.5	9528
1	16604	148	9471
1	16658	148.5	9507
1	16714	149	9543
1	16774	149.5	9579
1	16826	150	9439
1	16879	150.5	9292
1	16917	151	9144
1	16982	151.5	8997
1	17074	152	8817
1	17154	152.5	8773
1	17210	153	8686
1	17241	153.5	8565
1	17310	154	8406
1	17368	154.5	8248
1	17456	155	8089
1	17505	155.5	8405
1	17549	156	8757
1	17606	156.5	9110
1	17626	157	9463
1	17674	157.5	9327
1	17737	158	8257
1	17815	158.5	8427
1	17920	159	8596
1	17952	159.5	8766
1	18009	160	8936
1	18058	160.5	9047
1	18132	161	8939
1	18167	161.5	8831
1	18256	162	8723
1	18311	162.5	9218
1	18350	163	9139
1	18401	163.5	9059
1	18480	164	8980
1	18529	164.5	8900
1	18577	165	8821
1	18641	165.5	8741
1	18709	166	8661
1	18749	166.5	8582
1	18817	167	8502
1	18877	167.5	8423
1	18938	168	8343
1	18975	168.5	8264
1	19054	169	8276
1	19150	169.5	8321
1	19216	170	8366
1	19254	170.5	8411
1	19323	171	8456
1	19398	171.5	8501
1	19455	172	8546
1	19491	172.5	8527
1	19553	173	8424
1	19620	173.5	8386
1	19666	174	8348
1	19724	174.5	8310
1	19793	175	8271
1	19837	175.5	8233
1	19896	176	8195
1	19974	176.5	8157
1	20059	177	8119
1	20107	177.5	8271
1	20172	178	8916
1	20238	178.5	9560
1	20297	179	9119
1	20360	179.5	8403
1	20408	180	8558
1	20461	180.5	8712
1	20500	181	8867
1	20538	181.5	8499
1	20577	182	9017
1	20663	182.5	9291
1	20720	183	9301
1	20776	183.5	9311
1	20855	184	9321
1	20885	184.5	9332
1	20934	185	9342
1	21015	185.5	9352
1	21084	186	9363
1	21121	186.5	9373
1	21188	187	9383
1	21236	187.5	9393
1	21279	188	9404
1	21324	188.5	9414
1	21381	189	9424
1	21417	189.5	9428
1	21456	190	9417
1	21508	190.5	9393
1	21586	191	9220
1	21658	191.5	9047
1	21722	192	8874
1	21766	192.5	8701
1	21840	193	8529
1	21880	193.5	8738
1	21917	194	9317
1	21992	194.5	9548
1	22026	195	9425
1	22099	195.5	9301
1	22150	196	9860
1	22212	196.5	9735
1	22263	197	9639
1	22266	197.140408911648	9536
1	22272	197.214213938701	9481
1	22277	197.239157092197	9463
1	22284	197.326055440166	9399
1	22287	197.333503040975	9393
1	22292	197.340955399114	9388
1	22297	197.34841172634	9382
1	22304	197.362654180603	9372
1	22309	197.395809558809	9347
1	22312	197.403298592724	9342
1	22319	197.413339065804	9334
1	22324	197.425080477898	9326
1	22329	197.479816224902	9285
1	22333	197.5	9271
1	22379	198	8902
1	22433	198.5	8626
1	22518	199	8763
1	22587	199.5	8901
1	22656	200	9039
1	22728	200.5	9177
1	22771	201	9314
1	22819	201.5	9535
1	22883	202	9756
1	22917	202.5	9761
1	22920	202.521794857039	9760
1	22925	202.655100263672	9753
1	22930	202.700579137353	9750
1	22935	202.731467495178	9749
1	22938	202.738647718791	9748
1	22945	202.909947779005	9739
1	22950	203	9734
1	23013	203.5	9707
1	23070	204	9680
1	23118	204.5	9654
1	23173	205	9620
1	23227	205.5	9385
1	23262	206	9150
1	23327	206.5	8915
1	23368	207	8680
1	23437	207.5	8445
1	23519	208	8210
1	23565	208.5	8493
1	23615	209	9418
1	23670	209.5	9132
1	23732	210	8590
1	23806	210.5	8756
1	23850	211	8946
1	23913	211.5	9083
1	23991	212	9220
1	24065	212.5	9357
1	24116	213	9494
1	24169	213.5	9632
1	24197	214	9769
1	24200	214.084655823319	9792
1	24206	214.132997593795	9805
1	24211	214.154924187321	9811
1	24216	214.191824495682	9821
1	24221	214.222703924184	9830
1	24226	214.327410047054	9859
1	24232	214.400908087764	9853
1	24238	214.5	9821
1	24241	214.553618737927	9805
1	24246	214.613259227505	9786
1	24251	214.636167933607	9779
1	24254	214.643326129742	9776
1	24261	214.739535657201	9746
1	24266	214.757955351388	9740
1	24271	214.797385174218	9728
1	24277	214.825879595805	9719
1	24282	214.870600353033	9705
1	24287	214.893522412124	9698
1	24292	214.949928067805	9680
1	24297	214.984071446837	9669
1	24301	215	9664
1	24376	215.5	9583
1	24425	216	9592
1	24477	216.5	9600
1	24554	217	9608
1	24644	217.5	9617
1	24716	218	9625
1	24792	218.5	9633
1	24847	219	9577
1	24907	219.5	9511
1	24980	220	9445
1	25066	220.5	9379
1	25100	221	9313
1	25149	221.5	9247
1	25200	222	9181
1	25232	222.5	9115
1	25277	223	9049
1	25322	223.5	8983
1	25372	224	8917
1	25445	224.5	8835
1	25483	225	8750
1	25567	225.5	8666
1	25620	226	8582
1	25667	226.5	8497
1	25719	227	8413
1	25743	227.5	8329
1	25777	228	8245
1	25820	228.5	8160
1	25875	229	8297
1	25935	229.5	8671
1	26017	230	9010
1	26063	230.5	9226
1	26138	231	9443
1	26224	231.5	9200
1	26265	232	8613
1	26294	232.5	8144
1	26349	233	9450
1	26414	233.5	9443
1	26459	234	9436
1	26482	234.5	9429
1	26545	235	9422
1	26600	235.5	9416
1	26638	236	9409
1	26686	236.5	9402
1	26723	237	9388
1	26792	237.5	9280
1	26873	238	9171
1	26900	238.5	9063
1	26945	239	8955
1	26993	239.5	8847
1	27040	240	8738
1	27096	240.5	8630
1	27185	241	8522
1	27251	241.5	8414
1	27311	242	8306
1	27385	242.5	8334
1	27448	243	8559
1	27509	243.5	8784
1	27547	244	9009
1	27632	244.5	8889
1	27682	245	8071
1	27761	245.5	8138
1	27807	246	8205
1	27868	246.5	8360
1	27917	247	8544
1	28005	247.5	8729
1	28050	248	8914
1	28116	248.5	9099
1	28163	249	9284
1	28191	249.5	9469
1	28239	250	9653
1	28242	250.003487756574	9655
1	28247	250.060085025021	9676
1	28252	250.073200729802	9680
1	28257	250.111436675152	9695
1	28260	250.118656891758	9697
1	28267	250.207433960618	9730
1	28272	250.321349141431	9772
1	28277	250.337512672588	9778
1	28282	250.5	9838
1	28285	250.521691796901	9846
1	28290	250.56485250928	9862
1	28295	250.599510641195	9875
1	28302	250.630477877819	9886
1	28307	250.682299068022	9906
1	28313	250.746810547337	9822
1	28318	250.760441409333	9800
1	28321	250.767584266476	9789
1	28328	250.787577686764	9756
1	28333	250.817672132337	9708
1	28336	250.824882680339	9696
1	28343	250.905166698741	9566
1	28348	250.912484281848	9554
1	28351	250.919811055974	9542
1	28358	250.983194658255	9440
1	28363	251	9427
1	28420	251.5	9078
1	28464	252	8728
1	28504	252.5	8379
1	28556	253	8970
1	28633	253.5	9963
1	28636	253.525025991731	9960
1	28641	253.558987091372	9957
1	28647	253.624036365079	9952
1	28652	253.633868916356	9951
1	28658	253.720350859991	9943
1	28664	253.732515969307	9942
1	28669	253.749776056571	9941
1	28674	253.767996718609	9939
1	28679	253.84505814337	9932
1	28684	253.872817182484	9930
1	28689	253.903219017251	9927
1	28694	253.92710572488	9925
1	28698	254	9918
1	28701	254.059823524936	9913
1	28706	254.099558124206	9909
1	28711	254.120792140287	9908
1	28714	254.127857138268	9907
1	28721	254.137552126107	9906
1	28724	254.144618550496	9905
1	28731	254.162477905584	9904
1	28736	254.182066587	9902
1	28741	254.270858771502	9894
1	28746	254.300381871682	9892
1	28751	254.316747224966	9890
1	28757	254.5	9874
1	28760	254.519244028624	9872
1	28766	254.672257948836	9859
1	28769	254.679358060409	9858
1	28774	254.686458892221	9857
1	28781	254.774558871542	9850
1	28788	254.876933946011	9840
1	28793	254.88546213857	9840
1	28798	254.903059089611	9838
1	28804	254.942533801342	9835
1	28809	254.985452370581	9831
1	28813	255	9830
1	28816	255.059451128183	9824
1	28821	255.11813605447	9819
1	28826	255.190734837436	9813
1	28831	255.203274893736	9811
1	28836	255.215458683488	9810
1	28841	255.223802385081	9810
1	28846	255.306758014398	9802
1	28851	255.324802104035	9801
1	28854	255.331944232389	9800
1	28861	255.36230223691	9797
1	28866	255.38570119842	9795
1	28869	255.392847701738	9795
1	28875	255.5	9785
1	28925	256	9741
1	28968	256.5	9696
1	29006	257	9652
1	29063	257.5	9608
1	29100	258	9563
1	29159	258.5	9518
1	29162	258.55752222987	9511
1	29167	258.614598763466	9504
1	29172	258.625722794373	9503
1	29177	258.652209065162	9500
1	29185	258.821772648481	9480
1	29190	258.92007364525	9468
1	29193	258.927466970134	9467
1	29200	258.971570426319	9462
1	29204	259	9459
1	29208	259.149291612643	9441
1	29214	259.190688031795	9436
1	29219	259.201277946757	9435
1	29225	259.269952920602	9427
1	29230	259.315442833807	9421
1	29233	259.322873042914	9420
1	29240	259.387291092579	9413
1	29245	259.408778956937	9410
1	29250	259.420072409318	9409
1	29253	259.427512094726	9408
1	29260	259.450821379619	9405
1	29264	259.5	9400
1	29267	259.533906198842	9396
1	29270	259.541356177556	9395
1	29279	259.615428684839	9386
1	29286	259.713199955348	9374
1	29292	259.790041010248	9365
1	29297	259.825701234013	9361
1	29303	259.964502096978	9345
1	29308	260	9341
1	29311	260.021498131218	9338
1	29316	260.099712316783	9329
1	29321	260.135749989584	9324
1	29324	260.143257497092	9324
1	29331	260.271116299082	9309
1	29337	260.322468675553	9302
1	29342	260.366271704982	9297
1	29348	260.5	9281
1	29411	261	8896
1	29476	261.5	8132
1	29560	262	8242
1	29611	262.5	8482
1	29666	263	8722
1	29724	263.5	8962
1	29777	264	9202
1	29805	264.5	9442
1	29840	265	9681
1	29843	265.003585982588	9683
1	29849	265.066813782327	9700
1	29854	265.145397668667	9683
1	29860	265.316101270748	9645
1	29865	265.432891026095	9618
1	29870	265.456311572353	9613
1	29875	265.469484854707	9610
1	29879	265.5	9603
1	29882	265.5198716465	9599
1	29887	265.607345898242	9579
1	29892	265.62307047604	9576
1	29897	265.63038041756	9574
1	29900	265.637691886121	9573
1	29905	265.645004118441	9571
1	29912	265.693174099725	9560
1	29917	265.722458037975	9554
1	29922	265.73660431542	9551
1	29927	265.760374956432	9545
1	29932	265.778353084733	9541
1	29937	265.819830414603	9532
1	29942	265.836755694828	9528
1	29947	265.891106931401	9516
1	29952	266	9492
1	29955	266.000552431578	9491
1	29960	266.017363455229	9488
1	29965	266.068149968632	9476
1	29968	266.075537051789	9475
1	29975	266.082924914586	9473
1	29978	266.090314337155	9471
1	29985	266.142565154604	9460
1	29991	266.169054950622	9454
1	29996	266.285419089422	9428
1	30002	266.414430169596	9399
1	30007	266.5	9355
1	30044	267	9087
1	30084	267.5	8819
1	30129	268	8551
1	30170	268.5	8283
1	30236	269	8358
1	30308	269.5	8462
1	30367	270	8567
1	30452	270.5	8671
1	30521	271	8769
1	30564	271.5	8867
1	30615	272	8965
1	30659	272.5	9063
1	30710	273	9161
1	30775	273.5	9259
1	30815	274	9357
1	30821	274.057395068161	9368
1	30826	274.097653760489	9376
1	30831	274.105119630796	9377
1	30834	274.112584704914	9379
1	30841	274.1454056461	9385
1	30850	274.45318141413	9401
1	30855	274.490826596288	9362
1	30859	274.5	9353
1	30913	275	8833
1	30956	275.5	8314
1	31019	276	8134
1	31059	276.5	8200
1	31120	277	8265
1	31197	277.5	8330
1	31251	278	8393
1	31294	278.5	8454
1	31351	279	8515
1	31391	279.5	8576
1	31419	280	8638
1	31470	280.5	8699
1	31522	281	8760
1	31561	281.5	8821
1	31599	282	8882
1	31653	282.5	8943
1	31709	283	9004
1	31759	283.5	9065
1	31794	284	9126
1	31835	284.5	9151
1	31901	285	9118
1	31976	285.5	9086
1	32048	286	9053
1	32117	286.5	9021
1	32183	287	8988
1	32228	287.5	8955
1	32284	288	8923
1	32342	288.5	8890
1	32381	289	8858
1	32429	289.5	8825
1	32488	290	8793
1	32552	290.5	8760
1	32576	291	8727
1	32658	291.5	9452
1	32718	292	9861
1	32722	292.020380019836	9862
1	32727	292.033515380556	9863
1	32732	292.100603345604	9866
1	32737	292.112406505055	9867
1	32742	292.125798697673	9868
1	32747	292.134649657983	9868
1	32752	292.15554575669	9869
1	32757	292.205742565042	9872
1	32762	292.235817526847	9873
1	32767	292.326026536307	9878
1	32772	292.378830654014	9881
1	32777	292.390945310232	9881
1	32782	292.475700322973	9886
1	32786	292.5	9887
1	32790	292.523679884227	9888
1	32796	292.550598691961	9890
1	32801	292.587555606705	9892
1	32806	292.724240877374	9899
1	32812	292.761777002496	9901
1	32817	292.865108951717	9906
1	32823	292.87876119366	9907
1	32828	292.895503352949	9908
1	32833	292.918001564073	9909
1	32838	293	9880
1	32841	293.063070736521	9817
1	32846	293.115384095726	9766
1	32852	293.214642139378	9668
1	32855	293.221882520015	9661
1	32860	293.229128146762	9654
1	32867	293.274208947601	9609
1	32872	293.319071402751	9565
1	32875	293.326389750895	9558
1	32884	293.443662601494	9442
1	32889	293.451076285036	9435
1	32892	293.458495468926	9428
1	32897	293.465920161332	9420
1	32902	293.473351159209	9413
1	32908	293.5	9387
1	32911	293.515686965851	9371
1	32916	293.599326387683	9289
1	32921	293.632329877092	9256
1	32927	293.69404070719	9196
1	32930	293.70165271241	9188
1	32937	293.736884200948	9153
1	32942	293.861335064418	9031
1	32947	293.869086144033	9023
1	32950	293.876844095934	9016
1	32957	293.886467862543	9006
1	32962	293.903744656845	8989
1	32967	293.921893216983	8971
1	32972	293.9597919952	8934
1	32975	293.967627231376	8926
1	32981	294	8894
1	33025	294.5	8815
1	33077	295	8972
1	33112	295.5	9130
1	33171	296	9287
1	33175	296.011178872093	9291
1	33180	296.086684188437	9314
1	33185	296.140581891966	9331
1	33190	296.286049057552	9377
1	33196	296.322125113583	9388
1	33201	296.368062338951	9403
1	33206	296.385821436878	9409
1	33211	296.417891743968	9419
1	33216	296.46071767021	9432
1	33221	296.482579394839	9439
1	33224	296.489995434674	9441
1	33230	296.5	9444
1	33233	296.548454645044	9460
1	33238	296.560074877682	9463
1	33243	296.723276051019	9515
1	33248	296.783093942168	9534
1	33254	296.812745479053	9543
1	33260	296.962134802383	9590
1	33265	296.990677467993	9599
1	33269	297	9602
1	33272	297.003408902981	9603
1	33277	297.158325121169	9652
1	33284	297.314521960564	9701
1	33289	297.5	9759
1	33292	297.589182783181	9788
1	33295	297.596334397402	9790
1	33302	297.620886249813	9798
1	33307	297.666296344145	9812
1	33310	297.673430465629	9814
1	33319	297.814494151353	9859
1	33324	297.976412976219	9910
1	33328	298	9917
1	33374	298.5	9907
1	33377	298.56134169953	9886
1	33383	298.666150607563	9850
1	33388	298.68353252701	9844
1	33393	298.726395501646	9830
1	33398	298.769462333943	9815
1	33403	298.816879161599	9799
1	33408	298.856695956489	9785
1	33413	298.867606536472	9781
1	33418	298.893268741436	9773
1	33423	298.904010500196	9769
1	33428	298.922509780176	9763
1	33431	298.929679707452	9760
1	33439	298.96811270043	9747
1	33443	299	9736
1	33477	299.5	9564
1	33552	300	9393
1	33595	300.5	9233
1	33641	301	9277
1	33696	301.5	9180
1	33740	302	9016
1	33791	302.5	8851
1	33834	303	8687
1	33882	303.5	8522
1	33972	304	8357
1	34001	304.5	8382
1	34070	305	8578
1	34109	305.5	8773
1	34165	306	8968
1	34250	306.5	9163
1	34291	307	9213
1	34359	307.5	9218
1	34411	308	9224
1	34461	308.5	9230
1	34512	309	9235
1	34560	309.5	9241
1	34611	310	9250
1	34683	310.5	9269
1	34726	311	9289
1	34800	311.5	9308
1	34851	312	9328
1	34933	312.5	9347
1	34996	313	9367
1	35043	313.5	9386
1	35092	314	9406
1	35147	314.5	9425
1	35190	315	9445
1	35231	315.5	9464
1	35265	316	9210
1	35317	316.5	8354
1	35350	317	8366
1	35405	317.5	8740
1	35457	318	9115
1	35500	318.5	9490
1	35545	319	9346
1	35615	319.5	8969
1	35661	320	8868
1	35746	320.5	8946
1	35773	321	9023
1	35794	321.5	8908
1	35846	322	8741
1	35889	322.5	8714
1	35960	323	8725
1	36000	323.5	8737
1	36052	324	8748
1	36096	324.5	8759
1	36176	325	8770
1	36235	325.5	8781
1	36281	326	8793
1	36330	326.5	8804
1	36397	327	8959
1	36443	327.5	9559
1	36486	328	9926
1	36491	328.148927017571	9898
1	36494	328.155999153356	9896
1	36501	328.182024903776	9886
1	36508	328.44696119431	9793
1	36512	328.5	9775
1	36576	329	9599
1	36608	329.5	9423
1	36673	330	9460
1	36721	330.5	9505
1	36770	331	9550
1	36848	331.5	9595
1	36893	332	9640
1	36947	332.5	9685
1	37019	333	9730
1	37071	333.5	9775
1	37150	334	9820
1	37200	334.5	9865
1	37206	334.567239065509	9871
1	37211	334.783810404503	9890
1	37216	334.866122982768	9898
1	37221	334.874338354096	9899
1	37226	334.890560097002	9900
1	37231	334.961473042559	9906
1	37236	334.991747763186	9909
1	37240	335	9910
1	37244	335.092695659153	9918
1	37249	335.15328536027	9924
1	37254	335.208155837665	9929
1	37257	335.215205893058	9929
1	37264	335.224833946738	9930
1	37271	335.277100729159	9925
1	37276	335.285260294045	9922
1	37285	335.397978064637	9890
1	37290	335.449654218318	9875
1	37296	335.5	9860
1	37299	335.554443145508	9844
1	37304	335.656048149359	9815
1	37309	335.760557586827	9785
1	37314	335.775374628892	9780
1	37320	335.928138136438	9736
1	37325	335.957920001324	9727
1	37329	336	9715
1	37400	336.5	9570
1	37434	337	9425
1	37437	337.291678767105	9340
1	37440	337.299173413786	9338
1	37447	337.412340880146	9305
1	37452	337.43114175138	9300
1	37457	337.440581027693	9297
1	37463	337.452883810538	9294
1	37468	337.467029078611	9290
1	37472	337.5	9280
1	37546	338	9135
1	37607	338.5	8990
1	37658	339	8845
1	37711	339.5	8700
1	37769	340	8555
1	37837	340.5	8410
1	37910	341	8265
1	37980	341.5	8119
1	38050	342	8899
1	38122	342.5	9626
1	38128	342.689947549969	9241
1	38134	342.782002213328	9054
1	38140	342.807228395312	9039
1	38143	342.814972614805	9037
1	38150	342.909799542698	9013
1	38155	342.964385477069	9000
1	38158	342.972163254847	8998
1	38164	343	8991
1	38204	343.5	8851
1	38308	344	8595
1	38359	344.5	8339
1	38392	345	8156
1	38423	345.5	8082
1	38475	346	8007
1	38591	346.5	8068
1	38672	347	8138
1	38706	347.5	8208
1	38730	348	8278
1	38787	348.5	8348
1	38842	349	8418
1	38899	349.5	8487
1	38954	350	8557
1	39023	350.5	8627
1	39084	351	8697
1	39132	351.5	8767
1	39199	352	8837
1	39266	352.5	8907
1	39306	353	8977
1	39369	353.5	9047
1	39462	354	8663
1	39510	354.5	8632
1	39558	355	8600
1	39622	355.5	8568
1	39682	356	8527
1	39745	356.5	8375
1	39795	357	8601
1	39839	357.5	8828
1	39911	358	9054
1	39986	358.5	9413
1	40025	359	9462
1	40075	359.5	9502
1	40078	359.577095099834	9508
1	40081	359.584457321121	9509
1	40088	359.607772486846	9511
1	40093	359.743418456768	9521
1	40098	359.757974088624	9523
1	40102	360	9542
1	40106	360.111318369355	9551
1	40111	360.168038562119	9555
1	40116	360.194635979921	9557
1	40119	360.201960454128	9558
1	40126	360.276996765609	9564
1	40131	360.294735195361	9565
1	40136	360.391797955235	9573
1	40141	360.408954232164	9574
1	40146	360.457646077151	9578
1	40151	360.469143415055	9579
1	40155	360.5	9581
1	40159	360.520039596314	9543
1	40162	360.527374815847	9486
1	40170	360.584886782739	9359
1	40175	360.778567152821	9336
1	40181	360.920939788219	9320
1	40186	360.945312593232	9317
1	40191	360.962626099548	9315
1	40194	360.970140860686	9314
1	40200	361	9311
1	40291	361.5	9517
1	40341	362	9646
1	40345	362.08950628579	9649
1	40350	362.119995280879	9650
1	40355	362.133842124441	9651
1	40360	362.249718810907	9655
1	40365	362.264481650705	9655
1	40370	362.314939006113	9657
1	40375	362.323375312152	9657
1	40380	362.352545532666	9658
1	40383	362.359793410073	9658
1	40389	362.5	9663
1	40393	362.588534139437	9666
1	40398	362.599917246112	9667
1	40401	362.607158375728	9667
1	40408	362.671504866482	9669
1	40413	362.692658540324	9670
1	40418	362.708124085348	9670
1	40421	362.715362968492	9670
1	40428	362.726135788879	9671
1	40433	362.748866008388	9672
1	40438	362.766171091433	9672
1	40443	362.776436187652	9672
1	40448	362.808371936142	9673
1	40451	362.815608574207	9674
1	40458	362.922619217615	9677
1	40463	362.947545606295	9678
1	40467	363	9680
1	40516	363.5	9697
1	40519	363.540592561604	9698
1	40524	363.639192457759	9701
1	40529	363.665833746669	9702
1	40534	363.686937089044	9703
1	40539	363.69894228535	9703
1	40544	363.717545692217	9704
1	40547	363.724759212415	9704
1	40552	363.731972732613	9704
1	40560	363.86847532166	9709
1	40565	363.889253069824	9710
1	40571	363.936049297794	9711
1	40576	363.944161829964	9712
1	40581	363.976868783562	9713
1	40585	364	9713
1	40634	364.5	9730
1	40683	365	9747
1	40748	365.5	9764
1	40751	365.659295211129	9769
1	40756	365.707926596789	9771
1	40761	365.722822580684	9771
1	40766	365.751226650531	9772
1	40771	365.759990640496	9772
1	40776	365.800799681459	9774
1	40782	365.931260843112	9778
1	40786	366	9780
1	40789	366.025698071665	9781
1	40794	366.210425767056	9787
1	40799	366.263520470393	9789
1	40804	366.328331076137	9791
1	40809	366.407169570853	9794
1	40815	366.418620905054	9794
1	40820	366.429991349727	9795
1	40825	366.457486947385	9796
1	40829	366.5	9797
1	40832	366.528001756292	9798
1	40838	366.560294480664	9799
1	40843	366.575443455124	9800
1	40848	366.645271252651	9802
1	40853	366.773396860972	9806
1	40858	366.822295238241	9808
1	40863	366.866780575894	9809
1	40868	366.994505804348	9814
1	40869	367	9814
1	40876	367.072238182639	9816
1	40881	367.126440087286	9818
1	40887	367.347715779794	9826
1	40890	367.354839736643	9826
1	40895	367.361963693492	9826
1	40902	367.390048427046	9827
1	40907	367.47520741672	9830
1	40913	367.5	9831
1	40923	367.67193191485	9809
1	40929	367.835114011034	9783
1	40938	368	9757
1	40941	368.044673343585	9750
1	40947	368.110245360027	9739
1	40952	368.141973922601	9734
1	40957	368.246816748474	9718
1	40962	368.277017935374	9713
1	40967	368.31116479738	9708
1	40970	368.318375345382	9707
1	40977	368.329308734556	9705
1	40982	368.336982469383	9704
1	40987	368.348729061175	9702
1	40992	368.365579835828	9699
1	40997	368.5	9678
1	41000	368.517180842653	9675
1	41005	368.53778842123	9672
1	41010	368.56101213597	9668
1	41015	368.596780715619	9663
1	41020	368.626534798832	9658
1	41025	368.656706157422	9653
1	41031	368.70977167319	9645
1	41036	368.720042965839	9643
1	41039	368.727302117555	9642
1	41046	368.770663860256	9635
1	41051	368.854700379068	9622
1	41057	368.923711876076	9611
1	41061	369	9599
1	41064	369.006199006558	9598
1	41071	369.073057308451	9588
1	41076	369.178572790568	9571
1	41081	369.202127839179	9567
1	41086	369.244246584072	9561
1	41089	369.251567993966	9560
1	41096	369.360271263116	9542
1	41101	369.4051333906	9535
1	41108	369.475236007743	9524
1	41111	369.482585860746	9523
1	41117	369.5	9520
1	41120	369.573559574395	9509
1	41123	369.580921021445	9508
1	41130	369.590710744703	9506
1	41135	369.669156360957	9494
1	41140	369.70711242087	9488
1	41145	369.739239741916	9483
1	41150	369.753054927838	9480
1	41155	369.767065342656	9478
1	41161	369.83261926028	9468
1	41167	369.908992971728	9456
1	41172	369.931077089754	9452
1	41178	369.986364637288	9444
1	41181	369.993776750799	9443
1	41187	370	9442
1	41267	370.5	9363
1	41334	371	9284
1	41393	371.5	8850
1	41430	372	8156
1	41494	372.5	8728
1	41553	373	9327
1	41591	373.5	9558
1	41595	373.558602943446	9585
1	41600	373.61140327141	9610
1	41605	373.632032530923	9619
1	41611	373.749909816626	9674
1	41616	373.811384352043	9702
1	41622	373.934327093691	9739
1	41627	373.972983734825	9737
1	41631	374	9735
1	41634	374.014447532503	9734
1	41639	374.051131673909	9732
1	41644	374.0823934059	9730
1	41649	374.118609760631	9728
1	41654	374.227893666616	9721
1	41659	374.284977128487	9718
1	41664	374.329030855437	9715
1	41669	374.401030952138	9711
1	41675	374.471951868856	9707
1	41679	374.5	9705
1	41683	374.553958835818	9702
1	41688	374.704905176044	9692
1	41697	374.855888001691	9683
1	41702	374.883235167947	9682
1	41707	374.933536320289	9679
1	41712	374.94861169353	9678
1	41717	374.980282580084	9676
1	41720	374.987516974462	9675
1	41726	375	9675
1	41729	375.000198888274	9675
1	41734	375.077060478488	9670
1	41739	375.143822450984	9666
1	41744	375.182913223381	9663
1	41749	375.222117387323	9661
1	41755	375.234947765623	9660
1	41761	375.332872167881	9654
1	41767	375.451501381996	9647
1	41771	375.5	9644
1	41774	375.534624777271	9642
1	41779	375.669095475881	9634
1	41784	375.69074207621	9633
1	41789	375.724350498374	9631
1	41794	375.735067188982	9630
1	41799	375.759090701048	9629
1	41804	375.781477227796	9627
1	41810	375.803701313012	9626
1	41815	375.820273833926	9625
1	41821	375.932261158451	9618
1	41827	375.976287846116	9615
1	41832	375.990184345613	9614
1	41836	376	9614
1	41839	376.033401688209	9612
1	41844	376.049926289394	9611
1	41849	376.065011531244	9610
1	41856	376.175115054379	9603
1	41861	376.206775365692	9601
1	41866	376.234540611786	9600
1	41873	376.284929454066	9597
1	41878	376.314390733109	9595
1	41883	376.331001532047	9594
1	41886	376.338297758855	9593
1	41893	376.346192934794	9593
1	41898	376.36380556144	9592
1	41903	376.379613350192	9591
1	41910	376.492414191047	9589
1	41914	376.5	9589
1	41969	377	9598
1	42035	377.5	9608
1	42075	378	9617
1	42132	378.5	9627
1	42135	378.525669315818	9627
1	42143	378.709362032704	9631
1	42148	378.727585612182	9631
1	42153	378.764511202122	9632
1	42159	378.870955312054	9634
1	42164	378.897462022666	9634
1	42169	378.918105190759	9635
1	42174	378.955294926486	9636
1	42179	378.965016623696	9636
1	42184	378.972281048769	9636
1	42187	378.979545473842	9636
1	42194	378.992786308224	9636
1	42195	379	9636
1	42201	379.002714603337	9637
1	42207	379.082483721021	9638
1	42212	379.136648441883	9639
1	42219	379.254819667418	9641
1	42224	379.318784218755	9643
1	42229	379.350842519022	9643
1	42235	379.390859830901	9644
1	42240	379.39828343584	9644
1	42245	379.41851116909	9644
1	42249	379.5	9646
1	42310	380	9656
1	42313	380.06786575507	9657
1	42318	380.178308781909	9659
1	42322	380.185555908941	9659
1	42327	380.192803035973	9659
1	42334	380.201727017913	9659
1	42340	380.301970913202	9661
1	42345	380.313644174497	9662
1	42348	380.320889051334	9662
1	42355	380.405007625032	9663
1	42360	380.422936947617	9664
1	42366	380.460880153764	9664
1	42370	380.5	9665
1	42374	380.574381733463	9666
1	42379	380.643771198501	9668
1	42384	380.711096700214	9669
1	42389	380.73857164298	9670
1	42394	380.819808551626	9671
1	42399	380.845656579738	9672
1	42404	380.954214731425	9674
1	42408	381	9675
1	42412	381.038519533313	9675
1	42417	381.101932381945	9677
1	42423	381.234049983808	9679
1	42428	381.243302080574	9679
1	42433	381.286284460211	9680
1	42438	381.417187497136	9683
1	42443	381.425591227059	9683
1	42447	381.5	9684
1	42450	381.525334049104	9685
1	42455	381.562907739381	9685
1	42460	381.603168227777	9686
1	42466	381.631642591674	9687
1	42471	381.661574096253	9687
1	42476	381.67660658038	9688
1	42481	381.699200245635	9688
1	42486	381.766707099858	9689
1	42491	381.838713870583	9691
1	42496	381.894712469438	9692
1	42501	381.934047019747	9692
1	42505	382	9694
1	42577	382.5	9703
1	42584	382.544894559317	9704
1	42589	382.575734149172	9705
1	42594	382.587177290109	9705
1	42601	382.7012060953	9707
1	42606	382.717805667648	9707
[...]
22	21405	189.354621825013	1.1025554550012
22	21507	190.457177280014	2.7893276961769
22	21857	193.246504976191	1.0053572322919
22	21975	194.251862208483	1.4932405541057
22	22133	195.745102762589	0.24827686282158
22	22149	195.993379625411	0.26400598695972
22	22189	196.257385612371	0.73406865153355
22	22262	196.991454263905	1.4173629211203
22	22412	198.408817185025	2.5987327941833
22	22773	201.007549979208	1.0557662366293
22	22890	202.063316215837	2.9213802743401
22	23172	204.984696490177	3.2918042673179
22	23544	208.276500757495	0.81094833704175
22	23622	209.087449094537	0.94666793283401
22	23741	210.034117027371	0.78610117143795
22	23844	210.820218198809	3.5361712936471
22	24230	214.356389492456	0.91421254758662
22	24338	215.270602040043	3.2946017768874
22	24799	218.56520381693	5.479572141602
22	25379	224.044775958532	4.7146445325027
22	25848	228.759420491035	1.1274467385491
22	26003	229.886867229584	1.3272825725455
22	26181	231.214149802129	1.2724876846482
22	26293	232.486637486777	0.18374058241671
22	26311	232.670378069194	4.2941835109229
22	26717	236.964561580117	5.3310987189267
22	27352	242.295660299044	2.103860541419
22	27624	244.399520840463	0.38360159500024
22	27660	244.783122435463	1.3431671725462
22	27824	246.126289608009	4.5668129971133
22	28311	250.693102605122	0.29072407100468
22	28359	250.983826676127	1.9683402106192
22	28554	252.952166886746	0.011111425950285
22	28555	252.963278312696	0.33623618195578
22	28595	253.299514494652	5.1587904734854
22	29152	258.458304968137	2.5076215027911
22	29410	260.965926470928	0.11063627367891
22	29413	261.076562744607	0.66731855873921
22	29534	261.743881303346	3.3040782502388
22	29847	265.047959553585	1.3729194774139
22	30003	266.420879030999	2.1183458971398
22	30179	268.539224928139	1.9564421446252
22	30451	270.495667072764	3.9217908546219
22	30847	274.417457927386	1.2914059949674
22	30988	275.708863922353	2.0556862804049
22	31224	277.764550202758	6.5419896066009
22	31824	284.306539809359	6.7834258758661
22	32588	291.089965685225	0.63130113932264
22	32684	291.721266824548	1.2462693513005
22	32837	292.967536175848	1.2148404752877
22	32998	294.182376651136	4.0638202529899
22	33353	298.246196904126	2.2274450380315
22	33584	300.473641942158	0.68849222663664
22	33666	301.162134168795	3.0743659516839
22	33989	304.236500120479	2.3790262417419
22	34265	306.615526362221	3.2811735826701
22	34594	309.896699944891	5.9470831524455
22	35263	315.843783097336	0.80341881899697
22	35329	316.647201916333	2.0086967185764
22	35503	318.655898634909	1.0399763727244
22	35642	319.695875007633	1.4082485550015
22	35778	321.104123562634	1.0018204326852
22	35858	322.105943995319	4.8324335683625
22	36389	326.938377563682	0.20457941708776
22	36410	327.14295698077	0.87941246944494
22	36488	328.022369450215	1.4961226652421
22	36610	329.518492115457	5.7322007108925
22	37269	335.250692826349	6.4802254558933
22	38007	341.730918282242	0.60561427787572
22	38104	342.336532560118	0.45046549483309
22	38135	342.786998054951	0.64682794870154
22	38191	343.433826003653	1.3629921527541
22	38384	344.796818156407	1.2332935197214
22	38477	346.030111676128	7.519408693365
22	39371	353.549520369493	0.060531405372927
22	39373	353.610051774866	0.091796423374468
22	39388	353.70184819824	2.2700353952953
22	39681	355.971883593535	0.48161730214203
22	39739	356.453500895677	1.8849436173338
22	39962	358.338444513011	0.16960846955916
22	39988	358.50805298257	2.0069230308747
22	40157	360.514976013445	0.028240176144182
22	40168	360.543216189589	0.77850334516752
22	40264	361.321719534757	0.26244881966323
22	40295	361.58416835442	5.9424367538547
22	40915	367.526605108275	3.6853459402986
22	41361	371.211951048574	0.83441640377501
22	41443	372.046367452349	0.8459122850834
22	41524	372.892279737432	1.0039875571828
22	41620	373.896267294615	2.5388191882291
22	41908	376.435086482844	9.0649531522795
22	42877	385.500039635123	3.4345862667725
22	43294	388.934625901896	0.25102437796207
22	43323	389.185650279858	3.3139209627878
22	43726	392.499571242646	3.7184189777995
22	44099	396.217990220445	2.5937164251074
22	44396	398.811706645552	0.30696087498188
22	44421	399.118667520534	0.029256972948429
22	44422	399.147924493482	0.40296111169807
22	44470	399.55088560518	1.4211186758806
23	1739	15.12502430315	3.2440018659352
23	2046	18.369026169085	7.9765924022226
23	3003	26.345618571308	0.89585319318953
23	3109	27.241471764498	0.072309626507027
23	3123	27.313781391005	1.580895435866
23	3251	28.894676826871	2.0638637544963
23	3467	30.958540581367	5.6036017497158
23	4079	36.562142331083	0.89158966672778
23	4183	37.453731997811	1.1833767103257
23	4328	38.637108708137	0.041204307810238
23	4331	38.678313015947	1.3314491181248
23	4498	40.009762134072	1.0599612264752
23	4590	41.069723360547	0.42262209730432
23	4656	41.492345457851	8.7957080799726
23	5629	50.288053537824	2.4183246993013
23	5923	52.706378237125	1.1793894972336
23	6033	53.885767734359	3.7175941367448
23	6442	57.603361871104	0.4346823965782
23	6483	58.038044267682	3.3244702587006
23	6851	61.362514526383	2.6837996855105
23	7180	64.046314211893	2.1126624442332
23	7402	66.158976656126	4.4088783594179
23	7960	70.567855015544	1.3731198868317
23	8117	71.940974902376	0.23121458974463
23	8161	72.172189492121	2.4322026626255
23	8415	74.604392154746	2.8942687968106
23	8705	77.498660951557	11.774546758832
23	9991	89.273207710389	5.2994719570389
23	10522	94.572679667428	0.33623411548279
23	10571	94.908913782911	0.00076594572858362
23	10572	94.90967972864	0.4766817900434
23	10622	95.386361518683	0.35140490403875
23	10656	95.737766422722	2.688392037495
23	10961	98.426158460217	0.95535684304821
23	11053	99.381515303265	0.71476715320989
23	11159	100.096282456475	3.206775209352
23	11513	103.303057665827	4.2897499596854
23	12029	107.592807625512	1.5946321875408
23	12210	109.187439813053	5.5791582812541
23	12775	114.766598094307	0.79929359230601
23	12879	115.565891686613	0.86211847038062
23	12991	116.428010156994	0.062465711690851
23	12997	116.490475868685	0.29685003619134
23	13018	116.787325904876	2.2107508492975
23	13254	118.998076754174	0.05582893816022
23	13259	119.053905692334	3.4666869828623
23	13598	122.520592675196	6.5073524165281
23	14291	129.027945091724	0.64271048772126
23	14341	129.670655579445	1.2684983925535
23	14538	130.939153971998	0.29440084061285
23	14602	131.233554812611	4.4127139680197
23	15063	135.646268780631	1.4968666611923
23	15287	137.143135441823	1.3257039128125
23	15428	138.468839354636	1.3320543914562
23	15551	139.800893746092	0.43772502163216
23	15605	140.238618767724	2.8929606868975
23	15955	143.131579454622	3.7152040485617
23	16399	146.846783503184	5.5705711160729
23	17138	152.417354619257	1.4506940256252
23	17279	153.868048644882	4.9309921814225
23	17863	158.799040826305	3.3045137762917
23	18264	162.103554602597	1.1721931830966
23	18366	163.275747785694	0.46523241289995
23	18448	163.740980198594	7.1323340007602
23	19309	170.873314199354	1.2765265417564
23	19462	172.14984074111	3.3974656043834
23	19854	175.547306345493	4.2092771744952
23	20382	179.756583519988	0.02645434652426
23	20387	179.783037866512	4.3749278072674
23	20871	184.157965673779	1.9671009377177
23	21098	186.125066611497	0.34429777992487
23	21118	186.469364391422	0.19151711822937
23	21140	186.660881509651	0.23503476566736
23	21176	186.895916275318	1.0438315300337
23	21275	187.939747805352	0.073376704048374
23	21281	188.0131245094	2.1735705945954
23	21481	190.186695103995	0.19117615677656
23	21490	190.377871260772	0.040180537147621
23	21500	190.41805179792	0.88576572147362
23	21630	191.303817519394	0.047727516133813
23	21641	191.351545035528	0.54861233767733
23	21711	191.900157373205	3.0404190943712
23	22024	194.940576467576	3.0225173430189
23	22375	197.963093810595	1.5007025762031
23	22568	199.463796386798	0.30371359936291
23	22635	199.767509986161	2.7190857698666
23	22913	202.486595756028	4.3964384922616
23	23361	206.88303424829	2.809304897986
23	23704	209.692339146276	2.9090546508661
23	24067	212.601393797142	0.17442975795491
23	24092	212.775823555097	2.8148783152164
23	24388	215.590701870313	0.60003842409179
23	24432	216.190740294405	0.2166487835383
23	24459	216.407389077943	2.523228245891
23	24843	218.930617323834	2.6630100533066
23	25162	221.593627377141	8.6950155525621
23	26051	230.288642929703	1.8021465294408
23	26267	232.090789459144	1.283204600475
23	26390	233.373994059619	0.36547537856081
23	26421	233.73946943818	3.0193076031874
23	26700	236.758777041367	0.17469375185475
23	26716	236.933470793222	6.9058319830185
23	27529	243.83930277624	5.7539366192969
23	28198	249.593239395537	0.8379685066207
23	28281	250.431207902158	1.9345276691802
23	28498	252.365735571338	0.22523391465314
23	28516	252.590969485991	0.34005765597023
23	28553	252.931027141961	0.25012468040941
23	28574	253.18115182237	5.3052303262254
23	29158	258.486382148595	0.63056729042854
23	29206	259.116949439024	0.78800400264212
23	29301	259.904953441666	0.94906956592581
23	29388	260.854023007592	0.29175152473203
23	29415	261.145774532324	1.5261780909865
23	29641	262.67195262331	3.4933139588418
23	29989	266.165266582152	1.5610423943284
23	30100	267.72630897648	0.81188735726888
23	30178	268.538196333749	0.25414566140444
23	30205	268.792341995153	1.0220081401425
23	30340	269.814350135295	1.0752563155957
23	30497	270.889606450891	0.95564541289144
23	30598	271.845251863782	0.70831417823706
23	30663	272.553566042019	1.1727735422427
23	30802	273.726339584262	0.46799179704789
23	30846	274.19433138131	2.8942875406593
23	31129	277.088618921969	0.79035457664345
23	31230	277.878973498612	1.8366211225483
23	31408	279.71559462116	2.2992748198578
23	31601	282.014869441018	9.2315466706315
23	32609	291.24641611165	4.7618804814197
23	33173	296.00829659307	2.0042418340784
23	33330	298.012538427148	0.098182648269298
23	33341	298.110721075417	3.2850552490563
23	33687	301.395776324473	0.6711306167673
23	33752	302.06690694124	1.1104450183391
23	33856	303.177351959579	0.38667188732515
23	33894	303.564023846904	2.225075020459
23	34153	305.789098867363	0.077394983432374
23	34158	305.866493850795	1.1403907126888
23	34295	307.006884563484	0.9794864275599
23	34408	307.986370991044	1.9653017637554
23	34605	309.951672754799	1.4468603030537
23	34789	311.398533057853	5.8673189207838
23	35369	317.265851978637	0.25595716502508
23	35409	317.521809143662	2.4356455407068
23	35660	319.957454684369	0.63172098035906
23	35750	320.589175664728	2.4234788968815
23	35962	323.01265456161	2.2359785752173
23	36195	325.248633136827	1.1113462332029
23	36313	326.35997937003	0.906451403101
23	36421	327.266430773131	2.7354731407156
23	36675	330.001903913847	1.5302970661345
23	36855	331.532200979981	4.4815589223637
23	37331	336.013759902345	0.52194737142954
23	37402	336.535707273775	0.34953678242646
23	37428	336.885244056201	1.1395892323498
23	37553	338.024833288551	0.12443251165288
23	37559	338.149265800204	2.2625842384815
23	37813	340.411850038685	1.7086746593688
23	38057	342.120524698054	1.5179957536511
23	38228	343.638520451705	1.6168715033016
23	38407	345.255391955007	1.7998845965348
23	38674	347.055276551542	0.13893589567595
23	38682	347.194212447218	2.4023047917775
23	38921	349.596517238995	3.4081934734156
23	39311	353.004710712411	5.9846209694168
23	40021	358.989331681828	0.34860194761168
23	40055	359.33793362944	8.2500402657873
23	40919	367.587973895227	3.0053958888674
23	41282	370.593369784094	0.14765482409272
23	41294	370.741024608187	1.5388057911198
23	41473	372.279830399307	2.4657448961034
23	41693	374.74557529541	1.5287122253464
23	41871	376.274287520756	1.6549330901934
23	42068	377.929220610949	1.6085047700529
23	42253	379.537725381002	2.0825902311171
23	42464	381.620315612119	0.42000340210488
23	42522	382.040319014224	0.68208494767707
23	42607	382.722403961901	0.44528607536205
23	42664	383.167690037263	7.0293363930429
23	43456	390.197026430306	0.57393387488542
23	43494	390.770960305191	0.11533174252275
23	43508	390.886292047714	0.44672316966523
23	43549	391.333015217379	9.9577836925731
24	2323	20.647858671329	5.4568991849188
24	2986	26.104757856248	0.19787952841112
24	3002	26.302637384659	2.3054997982742
24	3220	28.608137182933	0.90976590327193
24	3322	29.517903086205	2.0370770910192
24	3571	31.554980177224	0.17789201203214
24	3591	31.732872189256	0.2368744525085
24	3612	31.969746641765	3.7101010655279
24	4027	35.679847707293	0.071580817556199
24	4028	35.751428524849	0.92887866367473
24	4086	36.680307188524	2.3919983659341
24	4372	39.072305554458	1.7001571472499
24	4576	40.772462701708	0.11094528982954
24	4577	40.883407991538	2.7568551288227
24	4914	43.640263120361	5.0885634657929
24	5479	48.728826586154	0.2740495478778
24	5493	49.002876134032	0.26094187085901
24	5525	49.263818004891	1.8593111724955
24	5719	51.123129177386	0.60501262878742
24	5821	51.728141806173	2.9162801204132
24	6131	54.644421926586	0.44674839146361
24	6157	55.09117031805	1.4826264295237
24	6346	56.573796747574	2.4183742591037
24	6598	58.992171006678	4.2252784105373
24	7087	63.217449417215	1.7393798365383
24	7295	64.956829253753	2.6726177508559
24	7578	67.629447004609	0.20033458914051
24	7609	67.82978159375	1.0848187130412
24	7733	68.914600306791	0.46583009360669
24	7791	69.380430400398	6.4992445918405
24	8513	75.879674992239	1.5621670510911
24	8699	77.44184204333	2.3891860929328
24	8974	79.831028136263	1.9132545551034
24	9163	81.744282691366	0.87634480636874
24	9262	82.620627497735	0.14786579387558
24	9268	82.768493291611	1.2656502750647
24	9376	84.034143566676	4.0787645415459
24	9882	88.112908108222	0.36834611787822
24	9912	88.4812542261	2.051456721092
24	10104	90.532710947192	4.8180575010654
24	10616	95.350768448257	0.62676088837121
24	10694	95.977529336628	0.83062732473613
24	10785	96.808156661364	1.6791351885469
24	10967	98.487291849911	1.6935870262512
24	11174	100.180878876162	0.17973952738297
24	11200	100.360618403545	0.21906785247489
24	11218	100.57968625602	0.53749465614633
24	11258	101.117180912166	0.039660052668343
24	11265	101.156840964834	1.153108004839
24	11440	102.309948969673	3.5177386646863
24	11758	105.827687634359	1.3332328823078
24	11983	107.160920516667	0.61607614627273
24	12052	107.77699666294	1.2290708493529
24	12184	109.006067512293	0.42933784421729
24	12231	109.43540535651	1.1029343327258
24	12359	110.538339689236	1.1090117781319
24	12489	111.647351467368	1.9760811849671
24	12659	113.623432652335	6.5021987367866
24	13364	120.125631389122	2.5057491071361
24	13604	122.631380496258	5.9952425568429
24	14245	128.626623053101	0.22088057862983
24	14261	128.847503631731	0.85503499185712
24	14356	129.702538623588	1.493717570072
24	14601	131.19625619366	2.6108848487417
24	14863	133.807141042402	2.5565934742186
24	15186	136.363734516621	0.70984535661444
24	15286	137.073579873235	0.20096396288311
24	15303	137.274543836118	5.8338137192671
24	15954	143.108357555385	0.3413004269635
24	15992	143.449657982348	0.95308234657476
24	16086	144.402740328923	1.4945214219545
24	16272	145.897261750877	1.333632271819
24	16458	147.230894022696	3.5748386963351
24	16895	150.805732719031	5.806352158474
24	17619	156.612084877505	11.374497544095
24	18936	167.9865824216	1.6644558189512
24	19165	169.651038240551	0.41917208365401
24	19218	170.070210324205	1.3597157188063
24	19387	171.429926043011	3.4333988157239
24	19777	174.863324858735	0.39987118268576
24	19810	175.263196041421	1.1807071705451
24	19960	176.443903211966	0.70084931861749
24	20066	177.144752530583	0.044351960729891
24	20067	177.189104491313	0.22272942022815
24	20095	177.411833911541	0.36318711163341
24	20146	177.775021023174	0.56560451348599
24	20229	178.34062553666	0.17030584315704
24	20240	178.510931379817	0.31185598806487
24	20268	178.822787367882	2.281589342193
24	20508	181.104376710075	0.47531396490052
24	20548	181.579690674976	0.75645828547786
24	20640	182.336148960454	1.7351958182666
24	20864	184.071344778721	1.4336094502279
24	21017	185.504954228949	2.7959728205887
24	21313	188.300927049538	7.2758966088355
24	22118	195.576823658374	2.2328283143858
24	22357	197.80965197276	1.4348754879885
24	22542	199.244527460749	5.9294787882835
24	23187	205.174006249033	1.0719863937769
24	23292	206.24599264281	1.1444754995888
24	23431	207.390468142399	6.2561778439981
24	24176	213.646645986397	0.48506512734163
24	24204	214.131711113739	1.1616439934667
24	24346	215.293355107206	0.93171384802077
24	24438	216.225068955227	0.91014415870778
24	24566	217.135213113935	0.6409676810617
24	24679	217.776180794997	10.338487092828
24	25784	228.114667887825	2.8778610357436
24	26137	230.992528923569	2.9882237926113
24	26453	233.98075271618	0.029504153334422
24	26461	234.010256869514	7.97226229001
24	27310	241.982519159524	0.25923506499794
24	27346	242.241754224522	6.1474316940719
24	28109	248.389185918594	0.87504301587767
24	28180	249.264228934472	2.3007991042342
24	28424	251.565028038706	0.072521183637433
24	28443	251.637549222343	1.2179818223853
24	28547	252.855531044728	2.0620211220243
24	28802	254.917552166752	1.5257607089771
24	28967	256.443312875729	3.1568258911335
24	29276	259.600138766862	0.0061108071411756
24	29277	259.606249574003	0.68286938424542
24	29335	260.289118958248	1.7513464882102
24	29562	262.040465446458	5.7042760503974
24	30101	267.744741496855	0.74650185097548
24	30169	268.49124334783	1.5202347056316
24	30369	270.011478053462	4.9305485225461
24	30903	274.942026576008	2.9925404939077
24	31231	277.934567069916	0.48027529541116
24	31293	278.414842365327	0.80165578515596
24	31383	279.216498150483	1.1524855143925
24	31458	280.368983664875	2.7195489801478
24	31718	283.088532645023	0.052904441015377
24	31727	283.141437086038	0.037062667151875
24	31733	283.17849975319	5.3927769249996
24	32349	288.57127667819	3.4296806078443
24	32720	292.000957286034	4.3192461179147
24	33194	296.320203403949	1.3889008469937
24	33317	297.709104250943	3.6397115445651
24	33681	301.348815795508	0.55671898879122
24	33734	301.905534784299	0.25310669291341
24	33758	302.158641477212	0.47473415360444
24	33793	302.633375630816	0.054566126312502
24	33795	302.687941757129	0.22978736404241
24	33814	302.917729121171	3.8470244652525
24	34275	306.764753586423	1.1446799636247
24	34392	307.909433550048	0.13495573817898
24	34416	308.044389288227	1.5017824430251
24	34562	309.546171731252	4.0250136407853
24	35058	313.571185372037	0.84018977552258
24	35131	314.41137514756	3.5268462098555
24	35456	317.938221357416	0.85481403977227
24	35521	318.793035397188	1.497324102881
24	35717	320.290359500069	0.29554965128729
24	35749	320.585909151356	1.1659675307575
24	35828	321.751876682113	2.4952939625778
24	36059	324.247170644691	0.48920757668666
24	36134	324.736378221378	2.659567507635
24	36437	327.395945729013	4.2104479077963
24	36866	331.606393636809	6.1481986032739
24	37515	337.754592240083	0.47987284524747
24	37566	338.23446508533	5.343359810287
24	38212	343.577824895617	3.0801192453118
24	38615	346.657944140929	2.2822168859973
24	38836	348.940161026926	2.400881281658
24	39109	351.341042308584	1.689597563691
24	39312	353.030639872275	2.1357512384346
24	39580	355.16639111071	6.131135015074
24	40263	361.297526125784	1.7737819255092
24	40471	363.071308051293	1.599707154636
24	40662	364.671015205929	2.8057411531009
24	40908	367.47675635903	0.083323260726238
24	40916	367.560079619756	0.0089125139361545
24	40917	367.568992133692	0.19335001364693
24	40927	367.762342147339	1.1060792258544
24	41055	368.868421373193	0.97557514666721
24	41165	369.84399651986	0.15336209047552
24	41184	369.997358610336	4.5133600536908
24	41681	374.510718664027	2.0607311646736
24	41922	376.571449828701	0.88085118898372
24	42029	377.452301017685	1.2139556857941
24	42141	378.666256703479	5.8464641915589
24	42770	384.512720895038	1.7351686732991
24	42956	386.247889568337	0.94992200859793
24	43042	387.197811576935	2.6731717401724
24	43424	389.870983317107	0.14763134744772
24	43439	390.018614664555	0.66729972818942
24	43483	390.685914392744	3.0277720913155
24	43837	393.71368648406	3.6452216678965
24	44217	397.358908151956	0.20102969861434
24	44246	397.55993785057	0.30657492127886
24	44274	397.866512771849	2.519296255872

