file 61088852 1608577347                                        
version 2
run Exponential-selection-capacity-exponential-interarrival-time-6-20201218-22:46:53-15860
attr configname Exponential-selection-capacity-exponential-interarrival-time
attr datetime 20201218-22:46:53
attr experiment Exponential-selection-capacity-exponential-interarrival-time
attr inifile ../simulations/aerocom.ini
attr iterationvars "$0=0.5s, $1=0.5s, $2=10s"
attr iterationvarsf 0.5s,0.5s,10s-
attr measurement "$0=0.5s, $1=0.5s, $2=10s"
attr network Aerocom
attr processid 15860
attr repetition 0
attr replication #0
attr resultdir results
attr runnumber 6
attr seedset 6
param **.t 0.5s
param **.k 0.5s
param **.dataLink[*].s "1500 byte"
param **.dataLink[*].X 2
param **.dataLink[*].dimPoolMax 400
param **.dataLink[*].dimPoolMin 100
param **.nDL 5
param **.setCapacityDistribution "\"exponential\""
param **.aircraft[*].distribution "\"exponential\""
param **.aircraft[*].m 10s
param **.aircraft[*].linkSelector.DLMaxCapacity 0
param **.aircraft[*].linkSelector.trasmitting false
param **.aircraft[*].linkSelector.operationMode 0

vector 0 Aerocom.dataLink[1] queueLength:vector ETV
attr "" ""
attr source computeQueueLength
0	2474 1115912 422816 1094127 10000.026560243681 25958.648644745837 32768 19025 49175 1115542975 40452149907079
0	5712387 1143266 1094131 1722935 25958.722044843574 40894.92363940818 32768 49176 79503 2108672997 1.3821012887961e+14
0	11559604 1153637 1722940 2386562 40895.179448989237 56641.896255519994 32768 79504 109714 3099257741 2.9562412793531e+14
0	17454570 1175962 2386566 3024916 56641.992075668179 71828.240521025565 32768 109715 140031 4092486944 5.1363127438427e+14
0	23465583 1176046 3024921 3738445 71828.534247434755 88768.486032927894 32768 140032 170070 5081706996 7.9054153367004e+14
0	29476522 1185571 3738448 4410951 88768.578226019313 104752.265497201882 32768 170071 200220 6067192472 1.1258523849946e+15
0	35571688 1208847 4410955 5065817 104752.330485745971 120296.883483787196 32768 200221 230446 7056631697 1.5221377823808e+15
0	41746949 1208760 5065822 5800204 120296.955156602689 137710.055547970191 32768 230447 260368 8041940120 1.976105713477e+15
0	47921755 939806 5800209 6317756 137710.182971398574 149989.851360006925 25474 260366 283831 6931558654 1.8872761495156e+15
vector 1 Aerocom.dataLink[3] responseTime:vector ETV
attr "" ""
attr source computeResponseTime
1	48861561 1032479 422908 6317732 10003.039652319329 149989.039652319329 22868 9112.8701476651 136636.09554891 1654265286.0461 1.5118756380713e+14
vector 2 Aerocom.dataLink[3] waitingTime:vector ETV
attr "" ""
attr source computeWaitingTime
2	49894040 1032479 422908 6317732 10003.039652319329 149989.039652319329 22868 9107.8487241402 136626.09554891 1654112799.0961 1.5116564364258e+14
vector 3 Aerocom.dataLink[4] responseTime:vector ETV
attr "" ""
attr source computeResponseTime
3	50926519 1028746 422910 6318028 10003.112259130578 149996.112259130578 22783 9143.7884340745 139109.91585723 1698548617.5637 1.5864647113645e+14
vector 4 Aerocom.dataLink[4] waitingTime:vector ETV
attr "" ""
attr source computeWaitingTime
4	51955265 1028746 422910 6318028 10003.112259130578 149996.112259130578 22783 9138.7408998551 139103.82037262 1698398591.5956 1.5862405240613e+14
vector 5 Aerocom.dataLink[2] responseTime:vector ETV
attr "" ""
attr source computeResponseTime
5	52984011 1031320 422954 6318022 10004.005590259564 149996.005590259564 22842 9285.2298800109 137781.77865363 1678846693.2325 1.5481883576701e+14
vector 6 Aerocom.dataLink[2] waitingTime:vector ETV
attr "" ""
attr source computeWaitingTime
6	54015331 1031320 422954 6318022 10004.005590259564 149996.005590259564 22842 9279.100381907 137778.67617071 1678695202.6788 1.547966157515e+14
vector 7 Aerocom.dataLink[1] responseTime:vector ETV
attr "" ""
attr source computeResponseTime
7	55046651 778988 422973 6317936 10004.5 149994.5 22812 9215.3855259063 138282.78714633 1686998815.3871 1.5633993730053e+14
vector 8 Aerocom.dataLink[1] waitingTime:vector ETV
attr "" ""
attr source computeWaitingTime
8	55825639 778985 422973 6317936 10004.5 149994.5 22812 9210.3060362895 138276.7260557 1686847896.7277 1.5631757561333e+14
vector 9 Aerocom.dataLink[0] responseTime:vector ETV
attr "" ""
attr source computeResponseTime
9	56604624 1032590 423006 6317804 10005.178218142552 149991.178218142552 22873 9310.7262590215 137362.8921414 1676626325.4864 1.5416377942192e+14
vector 10 Aerocom.dataLink[0] waitingTime:vector ETV
attr "" ""
attr source computeWaitingTime
10	57637214 1055462 423006 6317804 10005.178218142552 149991.178218142552 22873 9302.7262590215 137355.35701753 1676474393.9881 1.5414146120492e+14
vector 11 Aerocom.dataLink[2] queueLength:vector ETV
attr "" ""
attr source computeQueueLength
11	1118386 1147041 423197 1095716 10010.226271501159 25993.946302394862 32768 18239 48412 1094524231 39060632624627
11	8031647 1176072 1095719 1830494 25994.003434087881 43442.916372736179 32768 48413 78315 2075957665 1.3396822817718e+14
11	12713241 1185272 1830501 2487912 43443.093922140201 59055.759743185787 32768 78316 108541 3060192516 2.8829222385527e+14
11	19839310 1208756 2487916 3185603 59055.794689698758 75627.094790502608 32768 108542 138636 4050745483 5.0323911297664e+14
11	24641629 1208685 3185606 3866308 75627.271993704035 91797.597590490903 32768 138637 168755 5035486692 7.7628852345027e+14
11	30662093 1224143 3866313 4490656 91797.785303932523 106643.39025533781 32768 168756 199095 6026198950 1.1107738211272e+15
11	36780535 1241562 4490663 5246122 106643.470367107062 124568.659362818004 32768 199096 228930 7009714450 1.5019470453755e+15
11	42955709 1241511 5246125 5906379 124568.666888905838 140221.525400038792 32768 228931 259137 7997181900 1.9542382026602e+15
11	58692676 662598 5906383 6318198 140221.752229905529 149999.982151061575 17488 259136 275029 4670614772 1.2477759602842e+15
vector 12 Aerocom.dataLink[4] queueLength:vector ETV
attr "" ""
attr source computeQueueLength
12	4562908 1149479 423615 1147291 10020.167310063549 27213.890308050215 32768 21274 51270 1188129593 45545626716249
12	10383684 1175920 1147294 1834135 27213.895093496584 43530.312251996049 32768 51271 81370 2172817225 1.4654542768648e+14
12	16266153 1188417 1834139 2569282 43530.463350361404 60983.458775148028 32768 81371 111301 3156873632 3.0656678573554e+14
12	22256783 1208800 2569287 3272715 60983.606756125711 77690.815665670274 32768 111302 141364 4139088106 5.2529678065226e+14
12	27059084 1208616 3272718 3933298 77690.818940016666 93383.718731883548 32768 141365 171572 5129177375 8.0537927869824e+14
12	33111537 1229397 3933308 4653687 93384.150138423821 110539.449289336927 32768 171573 201559 6113083083 1.1429004083376e+15
12	39263690 1241669 4653690 5328177 110539.455806011199 126526.190015253044 32768 201558 231700 7099870171 1.5408258744675e+15
12	45438785 1241505 5328182 5977239 126526.453703956731 141885.616792546087 32768 231701 261968 8086526150 1.9981007658871e+15
12	59355274 579167 5977243 6317350 141885.688959263718 149979.901914449922 15285 261969 275926 4109951919 1.105364120997e+15
vector 13 Aerocom.dataLink[0] queueLength:vector ETV
attr "" ""
attr source computeQueueLength
13	3412723 1150185 424021 1116317 10030.003899621614 26489.284774344326 32768 17578 47659 1067910004 37249849359524
13	9207719 1175965 1116321 1833567 26489.307938863789 43516.003319502967 32768 47660 77643 2053597385 1.3115424196316e+14
13	15081632 1184521 1833572 2534670 43516.124573130701 60157.237520295748 32768 77644 107660 3037322392 2.8401662579641e+14
13	21048066 1208717 2534674 3268043 60157.330296662788 77581.496938285436 32768 107661 137570 4015830749 4.9458124917826e+14
13	28267700 1208822 3268047 3966365 77581.613337010265 94167.669636637233 32768 137571 167641 4998810988 7.6505976090606e+14
13	34340934 1230754 3966368 4682581 94167.710111902786 111226.360710067524 32768 167642 197620 5982396970 1.0946347571299e+15
13	40505359 1241590 4682584 5354944 111226.423077100814 127161.383084373783 32768 197621 227800 6971309178 1.4856171401816e+15
13	46680290 1241465 5354948 6058055 127161.495792864805 143801.667647106596 32768 227801 257856 7956658087 1.9344960294165e+15
13	59934441 485932 6058062 6313622 143801.957694584074 149889.749151705869 12826 257856 269695 3383179875 8.9254865974983e+14
vector 14 Aerocom.dataLink[3] queueLength:vector ETV
attr "" ""
attr source computeQueueLength
14	2265427 1147296 424433 1106283 10040.10079411777 26249.880705860203 32768 16260 46381 1026981934 34679040885262
14	6855653 1175994 1110440 1795154 26350.131100257813 42613.663959048096 32768 46363 76484 2011674248 1.259737391371e+14
14	13898513 1183119 1795162 2498449 42614.083706468977 59306.019667344843 32768 76484 106510 2997980602 2.7673429406526e+14
14	18630532 1208778 2498456 3154484 59306.18117037403 74889.348391471045 32768 106511 136732 3983194409 4.8667893114773e+14
14	25850314 1208770 3154488 3868984 74889.416316056248 91861.586554103384 32768 136731 166725 4972419797 7.569848202639e+14
14	31886236 1225301 3868988 4577561 91861.611265676034 108740.198429439034 32768 166726 196760 5955241766 1.0847656774678e+15
14	38022097 1241593 4577564 5291452 108740.297673961338 125653.381403348462 32768 196761 226748 6940410056 1.4724631816999e+15
14	44197220 1241565 5291459 5945582 125653.611603085925 141144.526798798616 32768 226749 256997 7926268220 1.9197754809357e+15
14	60420373 668479 5945592 6316984 141144.999812230141 149969.953442084934 17643 256998 273188 4676518828 1.239964897805e+15
