file 1560206 1613553640                                         
version 2
run Exponential-capacity-12-20210217-10:20:39-2176
attr configname Exponential-capacity
attr datetime 20210217-10:20:39
attr experiment Exponential-capacity
attr inifile aerocom.ini
attr iterationvars "$0=60, $1=0.7"
attr iterationvarsf 60,0.7-
attr measurement "$0=60, $1=0.7"
attr network Aerocom
attr processid 2176
attr repetition 0
attr replication #0
attr resultdir results
attr runnumber 12
attr seedset 0
param **.t 3s
param **.k 60ms
param **.X 0.5s
param **.m 0.7s
param **.tDistribution "\"exponential\""
param **.operationMode 0
param **.s "70 byte"
param **.dimPoolMax 10000
param **.dimPoolMin 8000
param **.nDL 10
param **.nA 1
param **.DLMaxCapacity 0
param **.trasmitting false

vector 0 Aerocom.aircraft[0].packetGenerator arrivalTime:vector ETV
attr "" ""
attr source computeArrivalTime
vector 1 Aerocom.aircraft[0].dataLink[4] tDistribution:vector ETV
attr "" ""
attr source computeTDistribution
vector 2 Aerocom.aircraft[0].dataLink[6] tDistribution:vector ETV
attr "" ""
attr source computeTDistribution
vector 3 Aerocom.aircraft[0].linkSelector waitingTime:vector ETV
attr "" ""
attr source computeWaitingTime
vector 4 Aerocom.aircraft[0].linkSelector queueLength:vector ETV
attr "" ""
attr source computeQueueLength
vector 5 Aerocom.aircraft[0].dataLink[6] actualCapacity:vector ETV
attr "" ""
attr source computeActualCapacity
vector 6 Aerocom.aircraft[0].linkSelector serviceTime:vector ETV
attr "" ""
attr source computeServiceTime
vector 7 Aerocom.aircraft[0].linkSelector responseTime:vector ETV
attr "" ""
attr source computeResponseTime
vector 8 Aerocom.aircraft[0].dataLink[1] tDistribution:vector ETV
attr "" ""
attr source computeTDistribution
vector 9 Aerocom.aircraft[0].dataLink[0] actualCapacity:vector ETV
attr "" ""
attr source computeActualCapacity
vector 10 Aerocom.aircraft[0].dataLink[1] actualCapacity:vector ETV
attr "" ""
attr source computeActualCapacity
vector 11 Aerocom.aircraft[0].dataLink[2] actualCapacity:vector ETV
attr "" ""
attr source computeActualCapacity
vector 12 Aerocom.aircraft[0].dataLink[3] actualCapacity:vector ETV
attr "" ""
attr source computeActualCapacity
vector 13 Aerocom.aircraft[0].dataLink[4] actualCapacity:vector ETV
attr "" ""
attr source computeActualCapacity
vector 14 Aerocom.aircraft[0].dataLink[5] actualCapacity:vector ETV
attr "" ""
attr source computeActualCapacity
vector 15 Aerocom.aircraft[0].dataLink[7] actualCapacity:vector ETV
attr "" ""
attr source computeActualCapacity
vector 16 Aerocom.aircraft[0].dataLink[8] actualCapacity:vector ETV
attr "" ""
attr source computeActualCapacity
vector 17 Aerocom.aircraft[0].dataLink[9] actualCapacity:vector ETV
attr "" ""
attr source computeActualCapacity
vector 18 Aerocom.aircraft[0].dataLink[5] tDistribution:vector ETV
attr "" ""
attr source computeTDistribution
vector 19 Aerocom.aircraft[0].dataLink[8] tDistribution:vector ETV
attr "" ""
attr source computeTDistribution
vector 20 Aerocom.aircraft[0].dataLink[0] tDistribution:vector ETV
attr "" ""
attr source computeTDistribution
vector 21 Aerocom.aircraft[0].dataLink[2] tDistribution:vector ETV
attr "" ""
attr source computeTDistribution
vector 22 Aerocom.aircraft[0].dataLink[7] tDistribution:vector ETV
attr "" ""
attr source computeTDistribution
vector 23 Aerocom.aircraft[0].dataLink[9] tDistribution:vector ETV
attr "" ""
attr source computeTDistribution
vector 24 Aerocom.aircraft[0].dataLink[3] tDistribution:vector ETV
attr "" ""
attr source computeTDistribution
0	3586 256598 873 35809 10.002239996404 399.941012287251 6369 3.321114e-006 0.61394892745 390.12588975903 47.967875753031
1	260184 6452 883 35584 10.203684607688 397.281470896017 155 0.010739517205868 10.933740481042 391.20523465692 1867.3384032852
2	266636 5346 886 35790 10.276687748401 399.582664491057 128 0.0046257705518035 21.866676562641 394.65348847132 2680.3533415531
3	271982 235441 887 35798 10.3 399.622787956727 6367 0 0.513378475353 1217.5761294282 401.35394106778
4	507423 169625 887 35798 10.3 399.622787956727 6367 0 21 20040 131100
5	677048 24862 887 35802 10.3 399.7 1031 8071 9955 9558184 88860528876
6	701910 276816 887 35798 10.3 399.622787956727 6367 0.0070063056751076 0.0086988939977631 46.338574357473 0.33757188441734
7	978726 256351 888 35799 10.307064284993 399.63021501243 6367 0.007006305675 0.520726785242 1263.9147037855 419.40634786835
8	1235077 4982 919 35791 10.379485951627 399.598350968059 120 0.010023053548118 19.095471434865 392.76340000707 2407.0567308421
9	1240059 34303 925 35802 10.5 399.7 1352 8024 9904 12652679 118773297677
10	1274362 33480 925 35802 10.5 399.7 1271 8083 9915 11926542 112165902412
11	1307842 24425 925 35802 10.5 399.7 989 8018 9973 9105819 84121056711
12	1332267 27949 925 35802 10.5 399.7 1110 8044 9933 10354605 96823524589
13	1360216 28196 925 35802 10.5 399.7 1112 8020 9942 10300638 95751769782
14	1388412 31725 925 35802 10.5 399.7 1221 8033 9986 11385478 106428734648
15	1420137 30285 925 35802 10.5 399.7 1173 8022 9987 10853556 100770423570
16	1450422 37157 925 35802 10.5 399.7 1406 8032 9991 13270125 125584150523
17	1487579 33138 925 35802 10.5 399.7 1272 8062 9952 11891833 111506097019
18	1520717 6203 929 35752 10.512701937009 399.26724886852 146 0.0074565261417224 13.460148239681 393.83660967434 2049.2077779932
19	1526920 4679 1000 35253 11.360882962893 393.499445083393 110 0.00037077544349613 23.253607185995 395.47160748284 3033.4957189197
20	1531599 5662 1089 35528 11.986246086418 396.616178795411 133 0.039976272460222 11.530792426723 388.43385299836 2058.0400242859
21	1537261 5806 1096 35480 12.109370541993 395.436018372776 136 0.0061931119847609 15.274890465208 389.19202620404 2037.979323136
22	1543067 5582 1103 35728 12.313726549034 398.971737981676 131 0.029300814333314 15.865257109258 388.93846333758 2425.3017972606
23	1548649 5505 1171 35757 13.034736668212 399.363504255394 129 0.0077577452830852 19.513402438353 388.62563507912 2515.9534008334
24	1554154 6050 1661 35690 18.527692622347 398.597767503948 142 0.0056532962066554 13.09960706888 383.31012451243 1994.1847888339

