file 30901872 1609663445                                        
version 2
run Exponential-selection-capacity-exponential-interarrival-time-2-20210103-09:43:56-12448
attr configname Exponential-selection-capacity-exponential-interarrival-time
attr datetime 20210103-09:43:56
attr experiment Exponential-selection-capacity-exponential-interarrival-time
attr inifile aerocom.ini
attr iterationvars $0=2
attr iterationvarsf 2-
attr measurement $0=2
attr network Aerocom
attr processid 12448
attr repetition 0
attr replication #0
attr resultdir results
attr runnumber 2
attr seedset 0
param **.t 0.5s
param **.k 0.5s
param **.dataLink[*].s "70 byte"
param **.dataLink[*].X 2
param **.nDL 1
param **.dataLink[*].dimPoolMax 100
param **.dataLink[*].dimPoolMin 10
param **.tDistribution "\"exponential\""
param **.aircraft[*].m 1s
param **.aircraft[*].linkSelector.DLMaxCapacity 0
param **.aircraft[*].linkSelector.trasmitting false
param **.operationMode 0

vector 0 Aerocom.aircraft[0].dataLink[0] queueLength:vector ETV
attr "" ""
attr source computeQueueLength
vector 1 Aerocom.aircraft[0].dataLink[0] waitingTime:vector ETV
attr "" ""
attr source computeWaitingTime
vector 2 Aerocom.aircraft[0].dataLink[0] responseTime:vector ETV
attr "" ""
attr source computeResponseTime
0	1245 1012713 148820 390959 10000.335380543637 26319.464179132675 32768 0 20 53234 274878
1	1013958 1224986 148820 390974 10000.335380543637 26321 32768 -3e-012 10.064965831174 26486.031291054 56876.630423155
2	2238944 1251822 148820 390974 10000.335380543637 26321 32768 -3e-012 11.209849008351 54483.031291053 163760.71764192
0	3490766 1012721 390972 632715 26320.654348163831 42626.805892038358 32768 0 27 55704 316246
1	4503487 1235611 390985 632735 26321.708250432494 42627.313660135932 32768 -6e-012 11.699086534728 27540.273926914 64972.914909957
2	5739098 1267480 390985 632735 26321.708250432494 42627.313660135932 32768 -6e-012 14.155137504257 55346.273926915 171851.20723244
0	7006578 1012705 632722 874375 42626.988541140419 58847.523085822318 32768 0 23 54403 291727
1	8019283 1239390 632737 874407 42627.313660135932 58849.633060047201 32768 -4e-012 9.63260289611 27107.322764871 62123.906215134
2	9258673 1273805 632737 874407 42627.313660135932 58849.633060047201 32768 -4e-012 12.955564794349 54858.322764873 170238.13111647
0	10532478 1028701 874382 1117134 58848.041532348462 75301.923510937212 32768 0 20 53841 286109
1	11561179 1258317 874409 1117135 58849.633060047201 75301.939255140966 32768 -1.2e-011 9.917479853429 27186.653015228 62388.259622564
2	12819496 1293765 874409 1117135 58849.633060047201 75301.939255140966 32768 -1.2e-011 13.896242037506 54626.653015228 168826.40874157
0	14113261 1045631 1117144 1359934 75302.243373671363 91769.385324265298 32768 0 24 57158 329350
1	15158892 1275991 1117144 1359945 75302.243373671363 91770.565391726243 32768 -8e-012 9.988327839683 28388.407314854 69097.541482442
2	16434883 1311553 1117144 1359945 75302.243373671363 91770.565391726243 32768 -8e-012 12.30181115224 56272.407314854 179774.37796115
0	17746436 1062034 1359939 1603020 91770.205778160665 108287.039274660405 32768 0 20 52231 271507
1	18808470 1289588 1359946 1603020 91770.565391726243 108287.039274660405 32768 -8e-012 9.44513775488 26084.995610686 57326.735263162
2	20098058 1326407 1359946 1603020 91770.565391726243 108287.039274660405 32768 -8e-012 13.218291909456 53605.995610685 161089.41324394
0	21424465 1078313 1603026 1845502 108287.34256221346 124656.625134461921 32768 0 21 53783 287969
1	22502778 1309451 1603045 1845525 108288 124659 32768 -8e-012 9.740530283071 26992.308430678 61450.499575037
2	23812229 1345394 1603045 1845525 108288 124659 32768 -8e-012 13.028597293104 54309.308430678 166918.78205573
0	25157623 1078186 1845509 2089231 124657.390967877016 141264.539999955219 32768 0 22 52219 269099
1	26235809 1310347 1845537 2089246 124660.390967877016 141265.672948875616 32768 -2.4e-011 10.493519072344 26758.766380143 59815.890988153
2	27546156 1345551 1845537 2089246 124660.390967877016 141265.672948875616 32768 -2.4e-011 11.499082311168 54401.766380142 165809.98229498
0	28891707 577096 2089241 2218839 141265.128028657286 149999.848571743832 17535 0 23 29886 169084
1	29468803 707581 2089248 2218841 141265.672948875616 150000 17530 -2.4e-011 11.882331816539 14970.733454417 36160.672031964
2	30176384 725486 2089248 2218841 141265.672948875616 150000 17530 -2.4e-011 12.044887885248 29895.733454417 93762.066066203

