version 2
run Exponential-capacity-1-20210214-21:13:31-6516
attr configname Exponential-capacity
attr datetime 20210214-21:13:31
attr experiment Exponential-capacity
attr inifile aerocom.ini
attr iterationvars $0=20
attr iterationvarsf 20-
attr measurement $0=20
attr network Aerocom
attr processid 6516
attr repetition 0
attr replication #0
attr resultdir results
attr runnumber 1
attr seedset 0
param **.t 1s
param **.k 20ms
param **.X 0.4s
param **.m 1s
param **.tDistribution "\"exponential\""
param **.operationMode 0
param **.s "70 byte"
param **.dimPoolMax 10000
param **.dimPoolMin 8000
param **.nDL 1
param **.nA 1
param **.DLMaxCapacity 0
param **.trasmitting false

scalar Aerocom.aircraft[0].linkSelector responseTime:mean 0.091788106485882
attr "" ""
attr source computeResponseTime
scalar Aerocom.aircraft[0].linkSelector meanMalus:sum 3294.4000000005
attr "" ""
attr source computeMeanMalus
scalar Aerocom.aircraft[0].linkSelector waitingTime:mean 0.083958224852252
attr "" ""
attr source computeWaitingTime
scalar Aerocom.aircraft[0].linkSelector serviceTime:mean 0.0078255991862359
attr "" ""
attr source computeServiceTime
scalar Aerocom.aircraft[0].linkSelector queueLength:mean 4.2464713375796
attr "" ""
attr source computeQueueLength
scalar Aerocom.aircraft[0].dataLink[0] sentPackets:count 19624
attr source computeSentPackets
scalar Aerocom.aircraft[0].dataLink[0] actualCapacity:mean 8969.0473121503
attr "" ""
attr source computeActualCapacity
scalar Aerocom.controlTower receivedPackets:count 19624
attr source computeReceivedPackets

