file 2175093 1613479546                                         
version 2
run Exponential-capacity-13-20210216-13:45:45-23596
attr configname Exponential-capacity
attr datetime 20210216-13:45:45
attr experiment Exponential-capacity
attr inifile aerocom.ini
attr iterationvars "$0=0.5, $1=50, $2=0.5, $3=0.5"
attr iterationvarsf 0.5,50,0.5,0.5-
attr measurement "$0=0.5, $1=50, $2=0.5, $3=0.5"
attr network Aerocom
attr processid 23596
attr repetition 1
attr replication #1
attr resultdir results
attr runnumber 13
attr seedset 1
param **.t 0.5s
param **.k 50ms
param **.X 0.5s
param **.m 0.5s
param **.tDistribution "\"exponential\""
param **.operationMode 0
param **.s "70 byte"
param **.dimPoolMax 10000
param **.dimPoolMin 8000
param **.nDL 10
param **.nA 1
param **.DLMaxCapacity 0
param **.trasmitting false

vector 0 Aerocom.aircraft[0].dataLink[0] actualCapacity:vector ETV
attr "" ""
attr source computeActualCapacity
vector 1 Aerocom.aircraft[0].dataLink[1] actualCapacity:vector ETV
attr "" ""
attr source computeActualCapacity
vector 2 Aerocom.aircraft[0].dataLink[2] actualCapacity:vector ETV
attr "" ""
attr source computeActualCapacity
vector 3 Aerocom.aircraft[0].dataLink[3] actualCapacity:vector ETV
attr "" ""
attr source computeActualCapacity
vector 4 Aerocom.aircraft[0].dataLink[4] actualCapacity:vector ETV
attr "" ""
attr source computeActualCapacity
vector 5 Aerocom.aircraft[0].dataLink[5] actualCapacity:vector ETV
attr "" ""
attr source computeActualCapacity
vector 6 Aerocom.aircraft[0].dataLink[6] actualCapacity:vector ETV
attr "" ""
attr source computeActualCapacity
vector 7 Aerocom.aircraft[0].dataLink[7] actualCapacity:vector ETV
attr "" ""
attr source computeActualCapacity
vector 8 Aerocom.aircraft[0].dataLink[8] actualCapacity:vector ETV
attr "" ""
attr source computeActualCapacity
vector 9 Aerocom.aircraft[0].dataLink[9] actualCapacity:vector ETV
attr "" ""
attr source computeActualCapacity
vector 10 Aerocom.aircraft[0].linkSelector responseTime:vector ETV
attr "" ""
attr source computeResponseTime
vector 11 Aerocom.aircraft[0].dataLink[2] tDistribution:vector ETV
attr "" ""
attr source computeTDistribution
vector 12 Aerocom.aircraft[0].dataLink[7] tDistribution:vector ETV
attr "" ""
attr source computeTDistribution
vector 13 Aerocom.aircraft[0].dataLink[4] tDistribution:vector ETV
attr "" ""
attr source computeTDistribution
vector 14 Aerocom.aircraft[0].dataLink[3] tDistribution:vector ETV
attr "" ""
attr source computeTDistribution
vector 15 Aerocom.aircraft[0].packetGenerator arrivalTime:vector ETV
attr "" ""
attr source computeArrivalTime
vector 16 Aerocom.aircraft[0].linkSelector waitingTime:vector ETV
attr "" ""
attr source computeWaitingTime
vector 17 Aerocom.aircraft[0].linkSelector queueLength:vector ETV
attr "" ""
attr source computeQueueLength
vector 18 Aerocom.aircraft[0].linkSelector serviceTime:vector ETV
attr "" ""
attr source computeServiceTime
vector 19 Aerocom.aircraft[0].dataLink[6] tDistribution:vector ETV
attr "" ""
attr source computeTDistribution
vector 20 Aerocom.aircraft[0].dataLink[9] tDistribution:vector ETV
attr "" ""
attr source computeTDistribution
vector 21 Aerocom.aircraft[0].dataLink[5] tDistribution:vector ETV
attr "" ""
attr source computeTDistribution
vector 22 Aerocom.aircraft[0].dataLink[1] tDistribution:vector ETV
attr "" ""
attr source computeTDistribution
vector 23 Aerocom.aircraft[0].dataLink[0] tDistribution:vector ETV
attr "" ""
attr source computeTDistribution
vector 24 Aerocom.aircraft[0].dataLink[8] tDistribution:vector ETV
attr "" ""
attr source computeTDistribution
0	3630 37775 1368 50536 10 400 1545 8018 9991 14291660 132619454598
1	41405 41210 1368 50536 10 400 1655 8006 9984 15340811 142595087039
2	82615 36037 1368 50536 10 400 1486 8026 9989 13668776 126132359642
3	118652 41591 1368 50536 10 400 1673 8016 9991 15539070 144701845392
4	160243 38721 1368 50536 10 400 1575 8033 9979 14527337 134379416641
5	198964 37990 1368 50536 10 400 1553 8047 9993 14389246 133720138754
6	236954 36478 1368 50536 10 400 1507 8027 9971 13972608 129906087424
7	273432 37316 1368 50536 10 400 1525 8030 9995 14066543 130116540693
8	310748 37599 1368 50536 10 400 1534 8076 9991 14192114 131702096088
9	348347 36899 1368 50536 10 400 1515 8025 9962 14001308 129786895698
10	385246 321034 1370 50533 10.000020252528 399.974094108206 7759 0.007004903432 0.023085728192 61.797892990213 0.51747048924466
11	706280 34248 1373 50497 10.002440533518 399.613684531708 788 0.0001914864321459 4.0595658217344 390.15052246665 396.37126649952
12	740528 33986 1374 50486 10.018728362009 399.483725630489 783 0.00034159714347765 3.2981237745143 391.35819720761 357.41689350569
13	774514 33721 1375 50520 10.019182810426 399.72511463043 776 0.00022582942754141 2.893087118346 390.29011693391 368.32851616896
14	808235 34901 1376 50316 10.027108108793 398.131636771278 803 0.0004751805639204 4.453697559511 390.12960387538 390.18582583027
15	843136 320948 1377 50531 10.070387184435 399.966895424537 7758 1.3484563e-005 0.53076813277 390.00950041313 38.629752309698
16	1164084 234829 1378 50532 10.070387184435 399.966895424537 7758 0 0.014975428111 4.520213303845 0.026497863360803
17	1398913 220890 1378 50532 10.070387184435 399.966895424537 7758 0 2 91 97
18	1619803 351792 1378 50532 10.070387184435 399.966895424537 7758 0.0070049034324027 0.0087097175563021 57.270578134304 0.42357395059314
19	1971595 33016 1389 50528 10.121036234623 399.913493687474 760 0.00063319219385249 5.5377635064001 389.98199339083 409.55122004351
20	2004611 34918 1394 50529 10.193115675428 399.937212470626 803 0.00023287357305049 3.4869081636989 390.05912882152 383.16030878939
21	2039529 34284 1438 50527 10.421478285839 399.799552616295 789 0.00058682308117823 3.062921925806 390.37564920454 362.1101448934
22	2073813 33699 1444 50530 10.446050027507 399.9637824434 776 0.0020391668858433 3.8635408896462 389.70665166697 395.34398184093
23	2107512 34423 1476 50421 10.662245156735 398.905577454521 792 0.00024518793422673 3.5970472507568 389.63236336632 408.3312975504
24	2141935 33156 1532 50518 11.240247801697 399.687151375222 765 0.0018753544044786 2.7130676989691 390.20849799322 371.73377172441

