file 8901317 1613479574                                         
version 2
run Exponential-capacity-33-20210216-13:46:13-19996
attr configname Exponential-capacity
attr datetime 20210216-13:46:13
attr experiment Exponential-capacity
attr inifile aerocom.ini
attr iterationvars "$0=2, $1=10, $2=4, $3=4"
attr iterationvarsf 2,10,4,4-
attr measurement "$0=2, $1=10, $2=4, $3=4"
attr network Aerocom
attr processid 19996
attr repetition 0
attr replication #0
attr resultdir results
attr runnumber 33
attr seedset 0
param **.t 2s
param **.k 10ms
param **.X 4s
param **.m 4s
param **.tDistribution "\"exponential\""
param **.operationMode 0
param **.s "70 byte"
param **.dimPoolMax 10000
param **.dimPoolMin 8000
param **.nDL 10
param **.nA 1
param **.DLMaxCapacity 0
param **.trasmitting false

vector 0 Aerocom.aircraft[0].packetGenerator arrivalTime:vector ETV
attr "" ""
attr source computeArrivalTime
vector 1 Aerocom.aircraft[0].linkSelector waitingTime:vector ETV
attr "" ""
attr source computeWaitingTime
vector 2 Aerocom.aircraft[0].linkSelector queueLength:vector ETV
attr "" ""
attr source computeQueueLength
vector 3 Aerocom.aircraft[0].dataLink[4] actualCapacity:vector ETV
attr "" ""
attr source computeActualCapacity
vector 4 Aerocom.aircraft[0].linkSelector serviceTime:vector ETV
attr "" ""
attr source computeServiceTime
vector 5 Aerocom.aircraft[0].linkSelector responseTime:vector ETV
attr "" ""
attr source computeResponseTime
vector 6 Aerocom.aircraft[0].dataLink[1] tDistribution:vector ETV
attr "" ""
attr source computeTDistribution
vector 7 Aerocom.aircraft[0].dataLink[2] tDistribution:vector ETV
attr "" ""
attr source computeTDistribution
vector 8 Aerocom.aircraft[0].dataLink[7] tDistribution:vector ETV
attr "" ""
attr source computeTDistribution
vector 9 Aerocom.aircraft[0].dataLink[5] tDistribution:vector ETV
attr "" ""
attr source computeTDistribution
vector 10 Aerocom.aircraft[0].dataLink[0] tDistribution:vector ETV
attr "" ""
attr source computeTDistribution
vector 11 Aerocom.aircraft[0].dataLink[8] tDistribution:vector ETV
attr "" ""
attr source computeTDistribution
vector 12 Aerocom.aircraft[0].dataLink[9] tDistribution:vector ETV
attr "" ""
attr source computeTDistribution
vector 13 Aerocom.aircraft[0].dataLink[0] actualCapacity:vector ETV
attr "" ""
attr source computeActualCapacity
vector 14 Aerocom.aircraft[0].dataLink[1] actualCapacity:vector ETV
attr "" ""
attr source computeActualCapacity
vector 15 Aerocom.aircraft[0].dataLink[2] actualCapacity:vector ETV
attr "" ""
attr source computeActualCapacity
vector 16 Aerocom.aircraft[0].dataLink[3] actualCapacity:vector ETV
attr "" ""
attr source computeActualCapacity
vector 17 Aerocom.aircraft[0].dataLink[5] actualCapacity:vector ETV
attr "" ""
attr source computeActualCapacity
vector 18 Aerocom.aircraft[0].dataLink[6] actualCapacity:vector ETV
attr "" ""
attr source computeActualCapacity
vector 19 Aerocom.aircraft[0].dataLink[7] actualCapacity:vector ETV
attr "" ""
attr source computeActualCapacity
vector 20 Aerocom.aircraft[0].dataLink[8] actualCapacity:vector ETV
attr "" ""
attr source computeActualCapacity
vector 21 Aerocom.aircraft[0].dataLink[9] actualCapacity:vector ETV
attr "" ""
attr source computeActualCapacity
vector 22 Aerocom.aircraft[0].dataLink[3] tDistribution:vector ETV
attr "" ""
attr source computeTDistribution
vector 23 Aerocom.aircraft[0].dataLink[4] tDistribution:vector ETV
attr "" ""
attr source computeTDistribution
vector 24 Aerocom.aircraft[0].dataLink[6] tDistribution:vector ETV
attr "" ""
attr source computeTDistribution
0	3606 1342350 5016 189788 10.002616319138 334.179259405181 32768 4.011e-008 0.107223249796 324.17673621716 6.4215077879631
1	1345956 1183252 5017 189792 10.002616319138 334.182976348608 32768 0 0.10827582461 208.18230827481 5.2492488066813
2	2529208 920052 5017 189792 10.002616319138 334.182976348608 32768 0 13 21071 74523
4	3449260 1472821 5017 189792 10.002616319138 334.182976348608 32768 0.0070056044835869 0.0087314456779344 247.15208239881 1.8699009914297
5	4922081 1342515 5022 189796 10.009905707871 334.190301589294 32768 0.007010515774 0.11667313747 455.33439067318 10.287129559752
0	6264596 272531 189790 227306 334.179352536302 399.974672125632 6522 2.306095e-006 0.10350655095 65.828555667873 1.3356747668135
1	6537127 237513 189795 227311 334.183383723365 399.984099754583 6522 0 0.070854070886 30.140176170521 0.53459541460016
2	6774640 188370 189795 227311 334.183383723365 399.984099754583 6522 0 9 2983 7983
3	6963010 109153 5017 227318 10.002616319138 400 3560 8045 9980 31894339 286879679615
4	7072163 298427 189795 227311 334.183383723365 399.984099754583 6522 0.0070105157736605 0.0086580086580087 48.740318152137 0.36519150093912
5	7370590 272484 189800 227314 334.190708964051 399.991964923122 6522 0.007010515774 0.078164012406 78.880494322581 1.3481248693124
6	7643074 7870 5075 226215 10.108197594216 398.088369796402 185 0.0066820356987456 12.73031428991 396.86298794996 1623.8347515601
7	7650944 8861 5081 225805 10.118477058203 397.558805043633 208 0.0041287413231739 10.183260310139 395.22270641998 1456.7542704876
8	7659805 9186 5184 226942 10.33332325754 399.333067430601 215 0.00077673227493106 10.576838072839 389.79085381369 1482.1836615119
9	7668991 8566 5507 227154 10.906402754895 399.686148362669 202 0.0049710174278149 10.878397109943 389.80983006386 1506.3173147908
10	7677557 8935 5603 227089 11.154402806452 399.568904735542 205 0.026650848306815 8.9434407592357 391.98412032014 1363.8043493512
11	7686492 7784 5769 226306 11.548798313583 398.231772090748 179 0.00024718362899742 15.502404790664 390.4007084239 1835.4558401444
12	7694276 8411 5932 226184 11.840764687096 398.015447176651 193 0.0051718301887234 13.008934958902 388.53607179952 1591.3147854771
13	7702687 184987 6028 227318 12 400 5825 8022 9962 54863369 517934522631
14	7887674 182191 6028 227318 12 400 5645 8028 9904 53067950 499960674428
15	8069865 157733 6028 227318 12 400 4907 8023 9977 45475116 422805046252
16	8227598 114855 6028 227318 12 400 3642 8084 9970 34356661 324854677393
17	8342453 117294 6028 227318 12 400 3666 8017 9986 33201436 301708354568
18	8459747 79374 6028 227318 12 400 2529 8110 9985 23941742 226942500548
19	8539121 95209 6028 227318 12 400 2973 8031 9980 27782750 260172520958
20	8634330 90716 6028 227318 12 400 2891 8036 9992 27574488 263309230422
21	8725046 149383 6028 227318 12 400 4632 8111 9932 42886101 398082531795
22	8874429 9342 6291 225320 12.351795081565 396.748910847202 214 0.0037688641377702 8.7330713792533 391.09610518445 1399.6917749019
23	8883771 9909 6582 224510 12.816289886563 395.483655140687 227 0.00093716124287715 8.9792967001633 388.75865197493 1334.0402886836
24	8893680 7635 10589 226246 19.157218708739 398.124100143442 175 0.0030838470345357 14.577784375094 384.36506644851 1855.2118041636

