version 2
run Exponential-capacity-21-20210216-13:45:53-24388
attr configname Exponential-capacity
attr datetime 20210216-13:45:53
attr experiment Exponential-capacity
attr inifile aerocom.ini
attr iterationvars "$0=0.5, $1=50, $2=4, $3=4"
attr iterationvarsf 0.5,50,4,4-
attr measurement "$0=0.5, $1=50, $2=4, $3=4"
attr network Aerocom
attr processid 24388
attr repetition 0
attr replication #0
attr resultdir results
attr runnumber 21
attr seedset 0
param **.t 0.5s
param **.k 50ms
param **.X 4s
param **.m 4s
param **.tDistribution "\"exponential\""
param **.operationMode 0
param **.s "70 byte"
param **.dimPoolMax 10000
param **.dimPoolMin 8000
param **.nDL 10
param **.nA 1
param **.DLMaxCapacity 0
param **.trasmitting false

vector 0 Aerocom.aircraft[0].packetGenerator arrivalTime:vector ETV
attr "" ""
attr source computeArrivalTime
vector 1 Aerocom.aircraft[0].linkSelector waitingTime:vector ETV
attr "" ""
attr source computeWaitingTime
vector 2 Aerocom.aircraft[0].linkSelector queueLength:vector ETV
attr "" ""
attr source computeQueueLength
vector 3 Aerocom.aircraft[0].dataLink[4] actualCapacity:vector ETV
attr "" ""
attr source computeActualCapacity
vector 4 Aerocom.aircraft[0].linkSelector serviceTime:vector ETV
attr "" ""
attr source computeServiceTime
vector 5 Aerocom.aircraft[0].linkSelector responseTime:vector ETV
attr "" ""
attr source computeResponseTime
vector 6 Aerocom.aircraft[0].dataLink[0] tDistribution:vector ETV
attr "" ""
attr source computeTDistribution
vector 7 Aerocom.aircraft[0].dataLink[3] tDistribution:vector ETV
attr "" ""
attr source computeTDistribution
vector 8 Aerocom.aircraft[0].dataLink[7] tDistribution:vector ETV
attr "" ""
attr source computeTDistribution
vector 9 Aerocom.aircraft[0].dataLink[2] tDistribution:vector ETV
attr "" ""
attr source computeTDistribution
vector 10 Aerocom.aircraft[0].dataLink[9] tDistribution:vector ETV
attr "" ""
attr source computeTDistribution
vector 11 Aerocom.aircraft[0].dataLink[5] tDistribution:vector ETV
attr "" ""
attr source computeTDistribution
vector 12 Aerocom.aircraft[0].dataLink[6] tDistribution:vector ETV
attr "" ""
attr source computeTDistribution
vector 13 Aerocom.aircraft[0].dataLink[1] tDistribution:vector ETV
attr "" ""
attr source computeTDistribution
vector 14 Aerocom.aircraft[0].dataLink[8] tDistribution:vector ETV
attr "" ""
attr source computeTDistribution
vector 15 Aerocom.aircraft[0].dataLink[4] tDistribution:vector ETV
attr "" ""
attr source computeTDistribution
vector 16 Aerocom.aircraft[0].dataLink[0] actualCapacity:vector ETV
attr "" ""
attr source computeActualCapacity
vector 17 Aerocom.aircraft[0].dataLink[1] actualCapacity:vector ETV
attr "" ""
attr source computeActualCapacity
vector 18 Aerocom.aircraft[0].dataLink[2] actualCapacity:vector ETV
attr "" ""
attr source computeActualCapacity
vector 19 Aerocom.aircraft[0].dataLink[3] actualCapacity:vector ETV
attr "" ""
attr source computeActualCapacity
vector 20 Aerocom.aircraft[0].dataLink[5] actualCapacity:vector ETV
attr "" ""
attr source computeActualCapacity
vector 21 Aerocom.aircraft[0].dataLink[6] actualCapacity:vector ETV
attr "" ""
attr source computeActualCapacity
vector 22 Aerocom.aircraft[0].dataLink[7] actualCapacity:vector ETV
attr "" ""
attr source computeActualCapacity
vector 23 Aerocom.aircraft[0].dataLink[8] actualCapacity:vector ETV
attr "" ""
attr source computeActualCapacity
vector 24 Aerocom.aircraft[0].dataLink[9] actualCapacity:vector ETV
attr "" ""
attr source computeActualCapacity
0	1200	10.005245567619	0.042154151607
0	1206	10.047399719226	0.015736083043
0	1212	10.063135802269	0.060825432672
0	1218	10.123961234941	0.066437893688
0	1224	10.190399128629	0.017017336912
0	1231	10.207416465541	0.163757158886
0	1239	10.371173624427	0.028395207674
0	1245	10.399568832101	0.014301048625
0	1250	10.413869880726	0.070551220465
0	1256	10.484421101191	0.042919648391
0	1263	10.527340749582	0.025217190329
0	1269	10.552557939911	0.044829543539
0	1274	10.59738748345	0.113186678793
0	1281	10.710574162243	0.042461040578
0	1286	10.753035202821	0.050932936501
0	1292	10.803968139322	0.012620999645
0	1297	10.816589138967	0.111075344924
0	1303	10.927664483891	0.152614082844
0	1313	11.080278566735	0.056980398177
0	1318	11.137258964912	0.029631201373
0	1323	11.166890166285	0.029818969716
0	1328	11.196709136001	0.093672993993
0	1334	11.290382129994	0.192150329162
0	1344	11.482532459156	0.060111928362
0	1349	11.542644387518	0.006176332368
0	1351	11.548820719886	0.017651006664
0	1359	11.56647172655	0.072840927928
0	1364	11.639312654478	0.084046110227
0	1370	11.723358764705	0.026536124831
0	1375	11.749894889536	0.025250937388
0	1380	11.775145826924	0.056264100842
0	1386	11.831409927766	0.106474969803
0	1393	11.937884897569	0.014370523804
0	1398	11.952255421373	0.043526791316
0	1404	11.995782212689	0.01878694212
0	1411	12.014569154809	0.106741522499
0	1417	12.121310677308	0.168218522653
0	1424	12.289529199961	0.058969146682
0	1430	12.348498346643	0.044393070522
0	1439	12.392891417165	0.06459546344
0	1444	12.457486880605	0.053891744207
0	1450	12.511378624812	0.034789973045
0	1458	12.546168597857	0.038093388565
0	1463	12.584261986422	0.156273417883
0	1474	12.740535404305	0.013102862084
0	1480	12.753638266389	0.051639850532
0	1487	12.805278116921	0.025115539913
0	1493	12.830393656834	0.027569799507
0	1499	12.857963456341	0.048222678275
0	1507	12.906186134616	0.04662014402
0	1514	12.952806278636	0.032205235416
0	1520	12.985011514052	0.000968989067
0	1522	12.985980503119	0.031756385782
0	1530	13.017736888901	0.017946360793
0	1535	13.035683249694	0.062952175863
0	1542	13.098635425557	0.053966009933
0	1550	13.15260143549	0.016983236629
0	1555	13.169584672119	0.017129981235
0	1560	13.186714653354	0.024181784329
0	1567	13.210896437683	0.048118752789
0	1572	13.259015190472	0.069148960327
0	1578	13.328164150799	0.027998053504
0	1583	13.356162204303	0.105372380248
0	1592	13.461534584551	0.007278698922
0	1594	13.468813283473	0.005427354925
0	1599	13.474240638398	0.017711206612
0	1607	13.49195184501	0.004846137729
0	1609	13.496797982739	0.04219442363
0	1619	13.538992406369	0.021851400689
0	1624	13.560843807058	0.044686453915
0	1630	13.605530260973	0.040127599288
0	1635	13.645657860261	0.042703986782
0	1642	13.688361847043	0.001710170918
0	1644	13.690072017961	0.052950469269
0	1653	13.74302248723	0.173626773964
0	1664	13.916649261194	0.052792480433
0	1670	13.969441741627	0.019356504607
0	1675	13.988798246234	0.028230525056
0	1680	14.01702877129	0.012504074749
0	1685	14.029532846039	0.113431699635
0	1692	14.142964545674	0.007614681263
0	1694	14.150579226937	0.022908644198
0	1703	14.173487871135	0.005116030743
0	1706	14.178603901878	0.028623077571
0	1714	14.207226979449	0.206890488026
0	1721	14.414117467475	0.111245732861
0	1734	14.525363200336	0.015078295661
0	1739	14.540441495997	0.082044878896
0	1744	14.622486374893	0.038503842977
0	1750	14.66099021787	0.060850974767
0	1756	14.721841192637	0.029703674916
0	1764	14.751544867553	0.005280632181
0	1766	14.756825499734	0.00524409178
0	1771	14.762069591514	0.125964106504
0	1785	14.888033698018	0.021717282797
0	1790	14.909750980815	0.062630376246
0	1795	14.972381357061	0.031673130886
0	1800	15.004054487947	0.338269525997
0	1815	15.342324013944	0.091986639254
0	1822	15.434310653198	0.008093504336
0	1827	15.442404157534	0.117508864488
0	1835	15.559913022022	0.101295440855
0	1842	15.661208462877	0.001914145644
0	1844	15.663122608521	0.008866278757
0	1849	15.671988887278	0.035495896361
0	1857	15.707484783639	0.047798321196
0	1862	15.755283104835	0.009126930094
0	1867	15.764410034929	0.006609185481
0	1869	15.77101922041	0.07549117278
0	1880	15.84651039319	0.094196444329
0	1890	15.940706837519	0.100099324776
0	1898	16.040806162295	0.082335955066
0	1905	16.123142117361	0.026500143907
0	1911	16.149642261268	0.042094048087
0	1918	16.191736309355	0.00753955051
0	1924	16.199275859865	0.026143501504
0	1929	16.225419361369	0.001689339278
0	1931	16.227108700647	0.003583769216
0	1933	16.230692469863	0.20249234194
0	1953	16.433184811803	0.059771928314
0	1960	16.492956740117	0.02336362832
0	1965	16.516320368437	0.030214953592
0	1971	16.546535322029	0.027242856407
0	1978	16.573778178436	0.064016710191
0	1986	16.637794888627	0.002595627609
0	1989	16.640390516236	0.10063863681
0	1998	16.741029153046	0.02274559224
0	2005	16.763774745286	0.185498029595
0	2017	16.949272774881	0.0008383883
0	2019	16.950111163181	0.096828861875
0	2034	17.046940025056	0.013116465458
0	2041	17.060056490514	0.000589161596
0	2043	17.06064565211	0.072389704099
0	2052	17.133035356209	0.022312641026
0	2058	17.155347997235	0.144230587605
0	2069	17.29957858484	0.065464918201
0	2077	17.365043503041	0.069314567601
0	2083	17.434358070642	0.009414748761
0	2088	17.443772819403	0.020730627133
0	2093	17.464503446536	0.036806554999
0	2102	17.501310001535	0.033623025842
0	2109	17.534933027377	0.002793502644
0	2111	17.537726530021	0.020698946134
0	2121	17.558425476155	0.011156960405
0	2127	17.56958243656	0.009891475373
0	2132	17.579473911933	0.000934773521
0	2134	17.580408685454	0.00937594756
0	2141	17.589784633014	0.078920636105
0	2151	17.668705269119	0.031129867199
0	2157	17.699835136318	0.012675285257
0	2163	17.712510421575	0.103801553022
0	2171	17.816311974597	0.021182855068
0	2176	17.837494829665	0.14422721442
0	2188	17.981722044085	0.131610943127
0	2198	18.113332987212	0.046856935886
0	2206	18.160189923098	0.060939840167
0	2215	18.221129763265	0.045398201366
0	2221	18.266527964631	0.001617840232
0	2223	18.268145804863	0.076541561313
0	2232	18.344687366176	0.008997867078
0	2238	18.353685233254	0.034659988477
0	2245	18.388345221731	0.048574107905
0	2252	18.436919329636	0.00258414529
0	2255	18.439503474926	0.043046181834
0	2266	18.48254965676	0.060048545327
0	2272	18.542598202087	0.013583403517
0	2278	18.556181605604	0.2439566444
0	2292	18.800138250004	0.136067412796
0	2302	18.9362056628	0.015548390248
0	2307	18.951754053048	0.047591485377
0	2314	18.999345538425	0.056829824763
0	2320	19.056175363188	0.038353982729
0	2326	19.094529345917	0.099858598374
0	2332	19.194387944291	0.044568928846
0	2338	19.238956873137	0.069483853189
0	2344	19.308440726326	0.065489268568
0	2352	19.373929994894	0.166896716693
0	2363	19.540826711587	0.018694324795
0	2368	19.559521036382	0.04039900267
0	2375	19.599920039052	0.025393256134
0	2381	19.625313295186	0.011937643642
0	2386	19.637250938828	0.011776228671
0	2391	19.649027167499	0.012579930656
0	2397	19.661607098155	0.010301602424
0	2403	19.671908700579	0.01234296344
0	2410	19.684251664019	0.144453779595
0	2420	19.828705443614	0.042148938771
0	2428	19.870854382385	0.067267371662
0	2435	19.938121754047	0.030083949326
0	2442	19.968205703373	0.033712228482
0	2449	20.001917931855	0.175723934027
0	2455	20.177641865882	0.012900638197
0	2460	20.190542504079	0.057056895143
0	2466	20.247599399222	0.014675382596
0	2472	20.262274781818	0.0044577145
0	2474	20.266732496318	0.002989048146
0	2479	20.269721544464	0.002903618106
0	2481	20.27262516257	0.028494878265
0	2492	20.301120040835	0.033455686184
0	2497	20.334575727019	0.01868348972
0	2502	20.353259216739	0.106433504727
0	2508	20.459692721466	0.059592905183
0	2516	20.519285626649	0.187334730691
0	2527	20.70662035734	0.023720814517
0	2532	20.730341171857	0.048071978579
0	2539	20.778413150436	0.009898386767
0	2544	20.788311537203	0.039098786044
0	2550	20.827410323247	0.001249417666
0	2552	20.828659740913	0.096418006844
0	2562	20.925077747757	0.003480883554
0	2565	20.928558631311	0.068096586215
0	2575	20.996655217526	0.056876925277
0	2580	21.053532142803	0.032561536596
0	2586	21.086093679399	0.030229060917
0	2591	21.116322740316	0.056517777296
0	2597	21.172840517612	0.038455990055
0	2604	21.211296507667	0.04670301663
0	2610	21.257999524297	0.113492000789
0	2616	21.371491525086	0.062710163505
0	2621	21.434201688591	0.231982626319
0	2631	21.66618431491	0.03169650097
0	2638	21.69788081588	0.012224551102
0	2643	21.710105366982	0.030441645687
0	2649	21.740547012669	0.054395221681
0	2654	21.79494223435	0.118445908542
0	2664	21.913388142892	0.015280245091
0	2669	21.928668387983	0.007379801645
0	2671	21.936048189628	0.001043360931
0	2673	21.937091550559	0.013017570577
0	2681	21.950109121136	0.071019172779
0	2690	22.021128293915	0.106678164374
0	2698	22.127806458289	0.019284384702
0	2703	22.147090842991	0.117392188071
0	2708	22.264483031062	0.024181919374
0	2713	22.288664950436	0.051892503774
0	2719	22.34055745421	0.044375096424
0	2724	22.384932550634	0.019628651409
0	2729	22.404561202043	0.088907166842
0	2736	22.493468368885	0.036668383658
0	2741	22.530136752543	0.049575214645
0	2750	22.579711967188	2.767595e-006
0	2752	22.579714734783	0.103041062044
0	2762	22.682755796827	0.018688164691
0	2767	22.701443961518	0.015978732744
0	2772	22.717422694262	0.027708541452
0	2777	22.745131235714	0.079985972092
0	2787	22.825117207806	0.108288184044
0	2794	22.93340539185	0.010267388437
0	2800	22.943672780287	0.056952882534
0	2805	23.000625662821	0.15265923348
0	2814	23.153284896301	0.030452230635
0	2819	23.183737126936	0.058155664171
0	2826	23.241892791107	0.033025153987
0	2832	23.274917945094	0.012135924684
0	2837	23.287053869778	0.07773314689
0	2843	23.364787016668	0.147224013871
0	2850	23.512011030539	0.013032006469
0	2856	23.525043037008	0.065625399648
0	2862	23.590668436656	0.106137332697
0	2867	23.696805769353	0.014647572924
0	2872	23.711453342277	0.018821467576
0	2877	23.730274809853	0.011996175972
0	2882	23.742270985825	0.157854777071
0	2889	23.900125762896	0.036511383262
0	2896	23.936637146158	0.03190943028
0	2901	23.968546576438	0.00129988726
0	2903	23.969846463698	0.062167538897
0	2917	24.032014002595	0.011626250919
0	2922	24.043640253514	0.008343732062
0	2928	24.051983985576	0.027641918533
0	2934	24.079625904109	0.065548618408
0	2940	24.145174522517	0.023433823799
0	2946	24.168608346316	0.051960281829
0	2951	24.220568628145	0.031141465488
0	2957	24.251710093633	0.012095982239
0	2962	24.263806075872	0.016260800899
0	2967	24.280066876771	0.01031789968
0	2973	24.290384776451	0.044189282802
0	2979	24.334574059253	0.082403808658
0	2984	24.416977867911	0.099701960064
0	2990	24.516679827975	0.06873399769
0	2996	24.585413825665	0.006251629496
0	2998	24.591665455161	0.056173024977
0	3007	24.647838480138	0.036426192137
0	3013	24.684264672275	0.016209955674
0	3021	24.700474627949	0.00708210174
0	3023	24.707556729689	0.009613072042
0	3032	24.717169801731	0.063090633674
0	3040	24.780260435405	0.060949967259
0	3049	24.841210402664	0.025213996663
0	3054	24.866424399327	0.031101845954
0	3060	24.897526245281	0.041668912032
0	3065	24.939195157313	0.091763170147
0	3072	25.03095832746	0.010122938185
0	3077	25.041081265645	0.01146221626
0	3082	25.052543481905	0.007823788519
0	3085	25.060367270424	0.009013714979
0	3093	25.069380985403	0.033477029543
0	3099	25.102858014946	0.006667031164
0	3101	25.10952504611	0.021972769525
0	3109	25.131497815635	0.064021217699
0	3116	25.195519033334	0.141031797421
0	3124	25.336550830755	0.001546314578
0	3126	25.338097145333	0.072477738821
0	3136	25.410574884154	0.068717150721
0	3143	25.479292034875	0.069048154783
0	3151	25.548340189658	0.004858383918
0	3153	25.553198573576	0.117024598033
0	3162	25.670223171609	0.012259904632
0	3168	25.682483076241	0.004355429163
0	3170	25.686838505404	0.069165823308
0	3178	25.756004328712	0.040169588133
0	3184	25.796173916845	0.065781312915
0	3192	25.86195522976	0.043910753936
0	3198	25.905865983696	0.002334387182
0	3200	25.908200370878	0.163424820041
0	3211	26.071625190919	0.011732792463
0	3217	26.083357983382	0.017275979185
0	3222	26.100633962567	0.016907735742
0	3227	26.117541698309	0.013776396852
0	3232	26.131318095161	0.056545923959
0	3238	26.18786401912	0.005284358705
0	3240	26.193148377825	0.003255643239
0	3245	26.196404021064	0.000828304721
0	3247	26.197232325785	0.040557051111
0	3258	26.237789376896	0.132627925776
0	3265	26.370417302672	0.000464151219
0	3267	26.370881453891	0.055420487711
0	3277	26.426301941602	0.089499480224
0	3284	26.515801421826	0.076891435724
0	3290	26.59269285755	0.207798554778
0	3298	26.800491412328	0.016545494059
0	3304	26.817036906387	0.060784523668
0	3309	26.877821430055	0.044144027248
0	3315	26.921965457303	0.010022109754
0	3320	26.931987567057	0.003304600535
0	3322	26.935292167592	0.035912324005
0	3330	26.971204491597	0.033240387478
0	3335	27.004444879075	0.043428286573
0	3340	27.047873165648	0.189701189154
0	3348	27.237574354802	0.077450583958
0	3355	27.31502493876	0.104577828631
0	3364	27.419602767391	0.046630592763
0	3370	27.466233360154	0.020636493336
0	3375	27.48686985349	0.012320791111
0	3380	27.499190644601	0.162946048859
0	3387	27.66213669346	0.030363964431
0	3392	27.692500657891	0.013178855642
0	3397	27.705679513533	0.105544438719
0	3405	27.811223952252	0.149110033774
0	3414	27.960333986026	0.033890100103
0	3419	27.994224086129	0.141832009669
0	3429	28.136056095798	0.062861849779
0	3434	28.198917945577	0.080272938153
0	3440	28.27919088373	0.033292124332
0	3445	28.312483008062	0.049773182168
0	3452	28.36225619023	0.061644023152
0	3458	28.423900213382	0.103688073155
0	3465	28.527588286537	0.034471726892
0	3471	28.562060013429	0.017337665189
0	3476	28.579397678618	0.093071582149
0	3485	28.672469260767	0.094505084905
0	3496	28.766974345672	0.01080481083
0	3501	28.777779156502	0.04810059633
0	3507	28.825879752832	0.074212124133
0	3515	28.900091876965	0.000666262241
0	3517	28.900758139206	0.182982866538
0	3530	29.083741005744	0.021326790602
0	3536	29.105067796346	0.09913744523
0	3542	29.204205241576	0.008016704724
0	3547	29.2122219463	0.075803446491
0	3555	29.288025392791	0.200397482744
0	3566	29.488422875535	0.210092971312
0	3574	29.698515846847	0.032539867118
0	3580	29.731055713965	0.070033784848
0	3585	29.801089498813	0.034397173923
0	3591	29.835486672736	0.000202816066
0	3593	29.835689488802	0.051009354398
0	3601	29.8866988432	0.015699894903
0	3606	29.902398738103	0.022989565889
0	3611	29.925388303992	0.026423361415
0	3616	29.951811665407	0.007361251866
0	3618	29.959172917273	0.0279503835
0	3626	29.987123300773	0.086331668987
0	3631	30.07345496976	0.017679828763
0	3636	30.091134798523	0.01052666441
0	3641	30.101661462933	0.025635732131
0	3646	30.127297195064	0.0358022659
0	3654	30.163099460964	0.006429011864
0	3656	30.169528472828	0.012700568918
0	3664	30.182229041746	0.197381663378
0	3673	30.379610705124	0.005148418186
0	3676	30.38475912331	0.026053941054
0	3685	30.410813064364	0.099094517055
0	3694	30.509907581419	0.042106815142
0	3700	30.552014396561	0.180447050249
0	3707	30.73246144681	0.021049664902
0	3712	30.753511111712	0.161998148345
0	3720	30.915509260057	0.077764718018
0	3726	30.993273978075	0.118519379031
0	3734	31.111793357106	0.026498078964
0	3739	31.13829143607	0.074371487717
0	3747	31.212662923787	0.02225746697
0	3752	31.234920390757	0.020259144117
0	3758	31.255179534874	0.025499541692
0	3763	31.280679076566	0.004228974588
0	3765	31.284908051154	0.017964695256
0	3774	31.30287274641	0.026148382683
0	3779	31.329021129093	0.07463160821
0	3787	31.403652737303	0.013213523207
0	3792	31.41686626051	0.130328590116
0	3799	31.547194850626	0.00710627557
0	3801	31.554301126196	0.019675120556
0	3809	31.573976246752	0.002745368628
0	3811	31.57672161538	0.15274298895
0	3825	31.72946460433	0.06465739294
0	3831	31.79412199727	0.000702329562
0	3833	31.794824326832	0.00057466251
0	3835	31.795398989342	0.038121184211
0	3847	31.833520173553	0.0736102079
0	3854	31.907130381453	0.018162110945
0	3859	31.925292492398	0.007946658983
0	3865	31.933239151381	0.107219273226
0	3874	32.040458424607	0.004143113646
0	3876	32.044601538253	0.014425635517
0	3885	32.05902717377	0.004693727364
0	3887	32.063720901134	0.05656893838
0	3896	32.120289839514	0.055744371095
0	3904	32.176034210609	0.083148289034
0	3910	32.259182499643	0.014076201124
0	3915	32.273258700767	0.028294727082
0	3921	32.301553427849	0.027282885738
0	3928	32.328836313587	0.069743454563
0	3938	32.39857976815	0.040750916545
0	3945	32.439330684695	0.08848099116
0	3955	32.527811675855	0.09850287828
0	3965	32.626314554135	0.02382392913
0	3970	32.650138483265	0.06492228178
0	3976	32.715060765045	0.005076704197
0	3978	32.720137469242	0.015758001436
0	3986	32.735895470678	0.014795093662
0	3991	32.75069056434	0.007048394221
0	3993	32.757738958561	0.044816460251
0	4003	32.802555418812	0.002848326623
0	4005	32.805403745435	0.032358735202
0	4015	32.837762480637	0.017948065919
0	4020	32.855710546556	0.033465143599
0	4025	32.889175690155	0.015198577961
0	4030	32.904374268116	0.03067195448
0	4037	32.935046222596	0.030453222766
0	4042	32.965499445362	0.037179159589
0	4047	33.002678604951	0.057487069387
0	4055	33.060165674338	0.029171188552
0	4061	33.08933686289	0.059474812567
0	4068	33.148811675457	0.095742112882
0	4076	33.244553788339	0.016670166919
0	4081	33.261223955258	0.028408524187
0	4086	33.289632479445	0.023895899376
0	4093	33.313528378821	0.087685732251
0	4102	33.401214111072	0.009992776896
0	4107	33.411206887968	0.035600403281
0	4112	33.446807291249	0.077687275102
0	4120	33.524494566351	0.004516862204
0	4122	33.529011428555	0.002926394947
0	4124	33.531937823502	0.053946345425
0	4136	33.585884168927	0.05970066853
0	4142	33.645584837457	0.011571048598
0	4147	33.657155886055	0.075410761581
0	4158	33.732566647636	0.093955921711
0	4167	33.826522569347	0.075120639686
0	4175	33.901643209033	0.057184531029
0	4182	33.958827740062	0.015016254014
0	4189	33.973843994076	0.009823094295
0	4194	33.983667088371	0.023405322662
0	4200	34.007072411033	0.003620955506
0	4202	34.010693366539	0.044288032301
0	4212	34.05498139884	0.000486770467
0	4214	34.055468169307	0.015929192394
0	4222	34.071397361701	0.111304199472
0	4234	34.182701561173	0.023169501377
0	4240	34.20587106255	0.007162651069
0	4242	34.213033713619	0.010973408045
0	4250	34.224007121664	0.075523080061
0	4257	34.299530201725	0.030795964189
0	4263	34.330326165914	0.129622430439
0	4273	34.459948596353	0.002281902475
0	4275	34.462230498828	0.062794674217
0	4286	34.525025173045	0.080420892454
0	4294	34.605446065499	0.033747548683
0	4299	34.639193614182	0.004003942797
0	4301	34.643197556979	0.031696606325
0	4309	34.674894163304	0.036577266957
0	4314	34.711471430261	0.107154985021
0	4321	34.818626415282	0.018322564592
0	4328	34.836948979874	0.033511593829
0	4334	34.870460573703	0.04308337459
0	4340	34.913543948293	0.026770217555
0	4346	34.940314165848	0.160240441481
0	4358	35.100554607329	0.009564802295
0	4364	35.110119409624	0.051862254705
0	4373	35.161981664329	0.032245424558
0	4378	35.194227088887	0.001800141487
0	4380	35.196027230374	0.076542420947
0	4392	35.272569651321	0.028141260091
0	4399	35.300710911412	0.040644918059
0	4406	35.341355829471	0.03566921414
0	4412	35.377025043611	0.008709758019
0	4417	35.38573480163	0.038412667093
0	4425	35.424147468723	0.007764279275
0	4431	35.431911747998	0.057189768956
0	4438	35.489101516954	0.052414455248
0	4444	35.541515972202	0.016258543524
0	4450	35.557774515726	0.038742118975
0	4458	35.596516634701	0.006897661596
0	4460	35.603414296297	0.019702878597
0	4468	35.623117174894	0.024934616644
0	4473	35.648051791538	0.00795060084
0	4478	35.656002392378	0.156641474477
0	4488	35.812643866855	0.008709935829
0	4495	35.821353802684	0.010359259113
0	4500	35.831713061797	0.006929341071
0	4503	35.838642402868	0.117161996505
0	4516	35.955804399373	0.043246905471
0	4523	35.999051304844	0.03924185098
0	4531	36.038293155824	0.004839873615
0	4533	36.043133029439	0.03052414225
0	4542	36.073657171689	0.120700821525
0	4551	36.194357993214	0.106871084521
0	4557	36.301229077735	0.004330849722
0	4559	36.305559927457	0.030680210487
0	4567	36.336240137944	0.080566599956
0	4573	36.4168067379	0.064398098754
0	4578	36.481204836654	0.104831813676
0	4590	36.58603665033	0.025460124343
0	4595	36.611496774673	0.004905976131
0	4598	36.616402750804	0.11719348204
0	4610	36.733596232844	0.027782945658
0	4616	36.761379178502	0.058563184747
0	4621	36.819942363249	0.032048677263
0	4626	36.851991040512	0.060135689191
0	4633	36.912126729703	0.043398499101
0	4640	36.955525228804	0.019854047501
0	4645	36.975379276305	0.062982058531
0	4651	37.038361334836	0.070689166477
0	4658	37.109050501313	0.001372105022
0	4660	37.110422606335	0.050538458155
0	4668	37.16096106449	0.065726104904
0	4674	37.226687169394	0.0137231761
0	4679	37.240410345494	0.072828010579
0	4688	37.313238356073	0.008749752411
0	4693	37.321988108484	0.00049072182
0	4695	37.322478830304	0.07957780614
0	4704	37.402056636444	0.018429146981
0	4709	37.420485783425	0.159912748839
0	4715	37.580398532264	0.01325465507
0	4720	37.593653187334	0.030637272243
0	4725	37.624290459577	0.035001281806
0	4730	37.659291741383	0.044700070134
0	4737	37.703991811517	0.153653761139
0	4750	37.857645572656	0.097498845592
0	4758	37.955144418248	0.040800928198
0	4764	37.995945346446	0.030552878064
0	4770	38.02649822451	0.00512759465
0	4772	38.03162581916	0.15169712862
0	4783	38.18332294778	0.048600544553
0	4792	38.231923492333	0.042871755131
0	4797	38.274795247464	0.099396972742
0	4802	38.374192220206	0.085953465589
0	4811	38.460145685795	0.008576931369
0	4816	38.468722617164	0.119758989469
0	4824	38.588481606633	0.244174949517
0	4836	38.83265655615	0.084511747738
0	4843	38.917168303888	0.004441619133
0	4845	38.921609923021	0.00868282816
0	4851	38.930292751181	0.004961076324
0	4856	38.935253827505	0.049563975288
0	4864	38.984817802793	0.050202558694
0	4869	39.035020361487	0.025410972703
0	4874	39.06043133419	0.149088982866
0	4883	39.209520317056	0.003238284639
0	4885	39.212758601695	0.138030222784
0	4896	39.350788824479	0.02758518063
0	4903	39.378374005109	0.029654079866
0	4908	39.408028084975	0.014966419121
0	4914	39.422994504096	0.065041871373
0	4921	39.488036375469	0.094536457722
0	4931	39.582572833191	0.067785925693
0	4937	39.650358758884	0.001693592762
0	4939	39.652052351646	0.01833525769
0	4948	39.670387609336	0.159688093634
0	4955	39.83007570297	0.00637867869
0	4957	39.83645438166	0.021953849279
0	4965	39.858408230939	0.029338440334
0	4970	39.887746671273	0.022057740536
0	4976	39.909804411809	0.024860464317
0	4982	39.934664876126	0.000823164199
0	4984	39.935488040325	0.037948238712
0	4994	39.973436279037	0.010242613357
0	4999	39.983678892394	0.093332023509
0	5009	40.077010915903	0.025646349591
0	5015	40.102657265494	0.03842312887
0	5021	40.141080394364	0.132459413112
0	5027	40.273539807476	0.057013943846
0	5034	40.330553751322	0.005246637366
0	5037	40.335800388688	0.046975099293
0	5047	40.382775487981	0.145295980183
0	5055	40.528071468164	0.005183541832
0	5058	40.533255009996	0.101814709364
0	5070	40.63506971936	0.004827063951
0	5072	40.639896783311	0.030271689082
0	5080	40.670168472393	0.002879645841
0	5082	40.673048118234	0.01977828002
0	5092	40.692826398254	0.004525373507
0	5094	40.697351771761	0.013246746882
0	5102	40.710598518643	0.013536219537
0	5107	40.72413473818	0.047656126913
0	5115	40.771790865093	0.091477107793
0	5123	40.863267972886	0.001681696046
0	5125	40.864949668932	0.036946000997
0	5133	40.901895669929	0.000786456189
0	5135	40.902682126118	0.035982244884
0	5144	40.938664371002	0.028000418667
0	5150	40.966664789669	0.052467108296
0	5156	41.019131897965	0.003525097418
0	5158	41.022656995383	0.039327954595
0	5168	41.061984949978	0.014513670756
0	5173	41.076498620734	0.001650199253
0	5175	41.078148819987	0.012497540832
0	5180	41.090646360819	0.043393093494
0	5191	41.134039454313	0.014597303586
0	5196	41.148636757899	0.073721111239
0	5204	41.222357869138	0.007023785848
0	5206	41.229381654986	0.023598404389
0	5216	41.252980059375	0.000605462253
0	5218	41.253585521628	0.033767793509
0	5227	41.287353315137	0.006135750366
0	5229	41.293489065503	0.199878173836
0	5246	41.493367239339	0.048179634814
0	5252	41.541546874153	0.014028796309
0	5257	41.555575670462	0.182978105923
0	5269	41.738553776385	0.023446066364
0	5274	41.761999842749	0.232013999797
0	5283	41.994013842546	0.002336745087
0	5285	41.996350587633	0.026301539788
0	5295	42.022652127421	0.01855808604
0	5301	42.041210213461	0.008893837893
0	5307	42.050104051354	0.089046733745
0	5312	42.139150785099	0.05091087894
0	5317	42.190061664039	0.082259171354
0	5327	42.272320835393	0.033697172211
0	5333	42.306018007604	0.05108591737
0	5338	42.357103924974	0.227391192593
0	5349	42.584495117567	0.022951396374
0	5355	42.607446513941	0.003376707844
0	5357	42.610823221785	0.018753097156
0	5365	42.629576318941	0.076446943536
0	5372	42.706023262477	0.080933053321
0	5378	42.786956315798	0.017011860981
0	5383	42.803968176779	0.003652582858
0	5385	42.807620759637	0.013815259646
0	5393	42.821436019283	0.057533129646
0	5401	42.878969148929	0.054310165558
0	5409	42.933279314487	0.023960634724
0	5416	42.957239949211	0.014122335598
0	5421	42.971362284809	0.050246665453
0	5429	43.021608950262	0.05480962805
0	5436	43.076418578312	0.130782046621
0	5445	43.207200624933	0.036418878652
0	5452	43.243619503585	0.096186928533
0	5459	43.339806432118	0.027590106082
0	5466	43.3673965382	0.034425694402
0	5473	43.401822232602	0.040448984757
0	5481	43.442271217359	0.027916339463
0	5488	43.470187556822	0.016917305935
0	5495	43.487104862757	0.086455981884
0	5502	43.573560844641	0.061306610612
0	5510	43.634867455253	0.067013798099
0	5519	43.701881253352	0.026794939767
0	5525	43.728676193119	0.029632870897
0	5531	43.758309064016	0.02235699513
0	5537	43.780666059146	0.173532254027
0	5551	43.954198313173	0.088204369609
0	5563	44.042402682782	0.022561939925
0	5568	44.064964622707	0.129491307275
0	5573	44.194455929982	0.025336160695
0	5578	44.219792090677	0.002354963553
0	5580	44.22214705423	0.067100987059
0	5591	44.289248041289	0.013239113667
0	5597	44.302487154956	0.02980859457
0	5603	44.332295749526	0.021425380209
0	5608	44.353721129735	0.138457224142
0	5613	44.492178353877	0.084360914438
0	5620	44.576539268315	0.014868676395
0	5626	44.59140794471	0.211650789817
0	5634	44.803058734527	0.024043911215
0	5639	44.827102645742	0.173642785295
0	5648	45.000745431037	0.059724497175
0	5653	45.060469928212	0.117666738404
0	5659	45.178136666616	0.113685358334
0	5665	45.29182202495	0.017588369271
0	5670	45.309410394221	0.006451925159
0	5672	45.31586231938	0.241486012398
0	5687	45.557348331778	0.013823635827
0	5692	45.571171967605	0.014345454769
0	5697	45.585517422374	0.012955612794
0	5702	45.598473035168	0.005597227057
0	5704	45.604070262225	0.033619145102
0	5712	45.637689407327	0.150748413609
0	5723	45.788437820936	0.11106070916
0	5730	45.899498530096	0.013290827451
0	5735	45.912789357547	0.0221667198
0	5741	45.934956077347	0.058521786501
0	5748	45.993477863848	0.024325956988
0	5754	46.017803820836	0.003006418457
0	5756	46.020810239293	0.124281554217
0	5766	46.14509179351	0.065598154054
0	5773	46.210689947564	0.006041569813
0	5775	46.216731517377	0.106735119727
0	5787	46.323466637104	0.049864946208
0	5792	46.373331583312	0.01590272726
0	5797	46.389234310572	0.007125147283
0	5799	46.396359457855	0.023825791049
0	5807	46.420185248904	0.023439784582
0	5813	46.443625033486	0.023443907781
0	5818	46.467068941267	0.019608064481
0	5823	46.486677005748	0.069072953992
0	5830	46.55574995974	0.056989770333
0	5836	46.612739730073	0.013577789584
0	5842	46.626317519657	0.079367861485
0	5849	46.705685381142	0.009428236213
0	5854	46.715113617355	0.035052275466
0	5859	46.750165892821	0.029827495844
0	5865	46.779993388665	0.017566064077
0	5870	46.797559452742	0.018153942009
0	5875	46.815713394751	0.108561294068
0	5880	46.924274688819	0.091376313391
0	5888	47.01565100221	0.021683242769
0	5894	47.037334244979	0.013573498321
0	5899	47.0509077433	0.06704508623
0	5905	47.11795282953	0.034896877442
0	5910	47.152849706972	0.040524657359
0	5915	47.193374364331	0.142871267391
0	5924	47.336245631722	0.011252124693
0	5929	47.347497756415	0.050255782429
0	5935	47.397753538844	0.039761110065
0	5940	47.437514648909	0.100979225161
0	5949	47.53849387407	0.036661266934
0	5956	47.575155141004	0.140845586498
0	5964	47.716000727502	0.021445591789
0	5969	47.737446319291	0.069467925347
0	5975	47.806914244638	0.001246404786
0	5977	47.808160649424	0.060127867235
0	5985	47.868288516659	0.008057128941
0	5990	47.8763456456	0.172047202379
0	5999	48.048392847979	0.007069655637
0	6001	48.055462503616	0.259256471152
0	6017	48.314718974768	0.061535942552
0	6023	48.37625491732	0.030057732319
0	6028	48.406312649639	0.061733993803
0	6034	48.468046643442	0.003675318871
0	6036	48.471721962313	0.047305087063
0	6045	48.519027049376	0.017321666375
0	6050	48.536348715751	0.055722911586
0	6057	48.592071627337	0.008264650616
0	6062	48.600336277953	0.029666528413
0	6068	48.630002806366	0.02702013488
0	6073	48.657022941246	0.05954907267
0	6080	48.716572013916	0.007037257771
0	6082	48.723609271687	0.023766983482
0	6090	48.747376255169	0.046331930015
0	6098	48.793708185184	0.005269806496
0	6101	48.79897799168	0.024128760758
0	6109	48.823106752438	0.161265804186
0	6114	48.984372556624	0.112873839538
0	6120	49.097246396162	0.003759590458
0	6122	49.10100598662	0.171781169624
0	6132	49.272787156244	0.000974464648
0	6134	49.273761620892	0.03958045473
0	6142	49.313342075622	0.19454550452
0	6152	49.507887580142	0.016067015143
0	6157	49.523954595285	0.008036502028
0	6160	49.531991097313	0.044852650705
0	6168	49.576843748018	0.014967650147
0	6173	49.591811398165	0.11353550537
0	6179	49.705346903535	0.012137271868
0	6184	49.717484175403	0.026105565221
0	6189	49.743589740624	0.043364600942
0	6194	49.786954341566	0.040156838596
0	6200	49.827111180162	0.185970415545
0	6209	50.013081595707	0.015848868994
0	6214	50.028930464701	0.015942052421
0	6220	50.044872517122	0.030389238206
0	6227	50.075261755328	0.17545317755
0	6237	50.250714932878	0.025684280663
0	6242	50.276399213541	0.001291402221
0	6244	50.277690615762	0.014278446025
0	6249	50.291969061787	0.109482335728
0	6260	50.401451397515	0.035247466069
0	6265	50.436698863584	0.061654436361
0	6272	50.498353299945	0.018580787741
0	6277	50.516934087686	0.016270835858
0	6282	50.533204923544	0.023343217178
0	6288	50.556548140722	0.112624643504
0	6294	50.669172784226	0.03721891307
0	6299	50.706391697296	0.001344030976
0	6301	50.707735728272	0.069433863693
0	6310	50.777169591965	0.049126417136
0	6316	50.826296009101	0.020286317193
0	6322	50.846582326294	0.019989763624
0	6327	50.866572089918	0.128955656539
0	6338	50.995527746457	0.170746245122
0	6351	51.166273991579	0.099140629014
0	6358	51.265414620593	0.009230793645
0	6363	51.274645414238	0.002495780121
0	6365	51.277141194359	0.115876303128
0	6374	51.393017497487	0.01462753006
0	6379	51.407645027547	0.020019076573
0	6384	51.42766410412	0.02954176102
0	6390	51.45720586514	0.110016466022
0	6400	51.567222331162	0.00552579383
0	6402	51.572748124992	0.035918291761
0	6410	51.608666416753	0.02142205144
0	6415	51.630088468193	0.035731709369
0	6422	51.665820177562	0.067372441185
0	6428	51.733192618747	0.024455420531
0	6433	51.757648039278	0.057052166713
0	6439	51.814700205991	0.037760590888
0	6444	51.852460796879	0.048693929574
0	6452	51.901154726453	0.144755880851
0	6466	52.045910607304	0.061984904031
0	6474	52.107895511335	0.111681992555
0	6483	52.21957750389	0.011465858582
0	6488	52.231043362472	0.056522859916
0	6495	52.287566222388	0.020904582947
0	6500	52.308470805335	0.050947659054
0	6505	52.359418464389	0.056388021679
0	6511	52.415806486068	0.039743641803
0	6517	52.455550127871	0.105695340732
0	6523	52.561245468603	0.015919650803
0	6528	52.577165119406	0.039227834846
0	6533	52.616392954252	0.008024205368
0	6535	52.62441715962	0.016613031179
0	6543	52.641030190799	0.097002410494
0	6550	52.738032601293	0.001535088651
0	6552	52.739567689944	0.050400677024
0	6561	52.789968366968	0.061951825369
0	6570	52.851920192337	0.017808289078
0	6575	52.869728481415	0.000395767325
0	6577	52.87012424874	0.030829654426
0	6585	52.900953903166	0.023314851322
0	6590	52.924268754488	0.001241660387
0	6592	52.925510414875	0.03780831239
0	6601	52.963318727265	0.040829634442
0	6607	53.004148361707	0.127623824677
0	6621	53.131772186384	0.022404398419
0	6627	53.154176584803	0.00468776938
0	6629	53.158864354183	0.034929050304
0	6637	53.193793404487	0.026038943244
0	6643	53.219832347731	0.008339787906
0	6649	53.228172135637	0.001230682204
0	6651	53.229402817841	0.027713423671
0	6659	53.257116241512	0.020973966173
0	6664	53.278090207685	0.118314513192
0	6671	53.396404720877	0.048673627182
0	6677	53.445078348059	0.000427400932
0	6679	53.445505748991	0.016360519066
0	6687	53.461866268057	0.173469691939
0	6696	53.635335959996	0.011770293325
0	6701	53.647106253321	0.05870350684
0	6708	53.705809760161	0.006148128344
0	6711	53.711957888505	0.005235613671
0	6716	53.717193502176	0.043035735376
0	6725	53.760229237552	0.017108734581
0	6730	53.777337972133	0.059416458014
0	6738	53.836754430147	0.038725839397
0	6744	53.875480269544	0.05573055015
0	6750	53.931210819694	0.064394511956
0	6757	53.99560533165	0.148660416974
0	6764	54.144265748624	0.024622068819
0	6770	54.168887817443	0.000135343729
0	6772	54.169023161172	0.012879243317
0	6777	54.181902404489	0.052092223241
0	6786	54.23399462773	0.030335620462
0	6792	54.264330248192	0.045863589846
0	6797	54.310193838038	0.178925086292
0	6808	54.48911892433	0.044426435616
0	6813	54.533545359946	0.0897336557
0	6819	54.623279015646	0.164532441513
0	6827	54.787811457159	0.12313221347
0	6836	54.910943670629	0.000850781186
0	6838	54.911794451815	0.055023426524
0	6849	54.966817878339	0.059615788711
0	6856	55.02643366705	0.029050432773
0	6862	55.055484099823	0.084014120004
0	6868	55.139498219827	0.057773736437
0	6875	55.197271956264	0.035647823956
0	6882	55.23291978022	0.052291264639
0	6889	55.285211044859	0.020320643337
0	6894	55.305531688196	0.001476590558
0	6896	55.307008278754	0.078232827535
0	6906	55.385241106289	0.125994434692
0	6912	55.511235540981	0.00511508905
0	6914	55.516350630031	0.039094221155
0	6924	55.555444851186	0.029173008615
0	6930	55.584617859801	0.236319759843
0	6940	55.820937619644	0.036693498351
0	6945	55.857631117995	0.024152651213
0	6950	55.881783769208	0.059201386817
0	6957	55.940985156025	0.08216766176
0	6964	56.023152817785	0.004764224144
0	6966	56.027917041929	0.030902618857
0	6974	56.058819660786	0.012922962436
0	6979	56.071742623222	0.087672405914
0	6986	56.159415029136	0.026407199536
0	6992	56.185822228672	0.038730686818
0	6997	56.22455291549	0.048814601148
0	7004	56.273367516638	0.109135694464
0	7010	56.382503211102	0.109001022358
0	7017	56.49150423346	0.106057722842
0	7025	56.597561956302	0.048224988088
0	7030	56.64578694439	0.019897419732
0	7035	56.665684364122	0.007162435189
0	7037	56.672846799311	0.025911392405
0	7046	56.698758191716	0.197072934231
0	7053	56.895831125947	0.039334155773
0	7058	56.93516528172	0.102702624193
0	7064	57.037867905913	0.048602448424
0	7069	57.086470354337	0.034930178347
0	7074	57.121400532684	0.023849887547
0	7079	57.145250420231	0.127775885833
0	7085	57.273026306064	0.039058439499
0	7093	57.312084745563	0.038976751442
0	7098	57.351061497005	0.006443932302
0	7100	57.357505429307	0.128396631435
0	7108	57.485902060742	0.057080776176
0	7114	57.542982836918	0.088567665966
0	7119	57.631550502884	0.016922056641
0	7124	57.648472559525	0.172550506468
0	7132	57.821023065993	0.002196361706
0	7134	57.823219427699	0.126150873068
0	7144	57.949370300767	0.006170473575
0	7146	57.955540774342	0.001834953514
0	7151	57.957375727856	0.005626497319
0	7153	57.963002225175	0.009604778807
0	7162	57.972607003982	0.019025547428
0	7170	57.99163255141	0.024643938418
0	7176	58.016276489828	0.014153621792
0	7182	58.03043011162	0.151976579507
0	7191	58.182406691127	0.04136629618
0	7197	58.223772987307	0.017835812634
0	7202	58.241608799941	0.11841180265
0	7209	58.360020602591	0.008745513005
0	7214	58.368766115596	0.043387757147
0	7220	58.412153872743	0.108711645357
0	7231	58.5208655181	0.045557290404
0	7237	58.566422808504	0.029565139278
0	7242	58.595987947782	0.013593291929
0	7247	58.609581239711	0.119230767162
0	7254	58.728812006873	0.043480768042
0	7261	58.772292774915	0.008731389824
0	7266	58.781024164739	0.007883602641
0	7268	58.78890776738	0.054105094224
0	7276	58.843012861604	0.020445876462
0	7281	58.863458738066	0.029014479399
0	7286	58.892473217465	0.04911190922
0	7291	58.941585126685	0.003978507755
0	7293	58.94556363444	0.022416465331
0	7302	58.967980099771	0.059612612104
0	7308	59.027592711875	0.120952569708
0	7314	59.148545281583	0.014210987176
0	7319	59.162756268759	0.10538901792
0	7324	59.268145286679	0.002021078883
0	7326	59.270166365562	0.028471805694
0	7334	59.298638171256	0.003090807432
0	7337	59.301728978688	0.036450336069
0	7345	59.338179314757	0.003151172213
0	7347	59.34133048697	0.032186240293
0	7355	59.373516727263	0.11915341366
0	7365	59.492670140923	0.01018926911
0	7370	59.502859410033	0.067331364427
0	7378	59.57019077446	0.028525299404
0	7383	59.598716073864	0.114169701721
0	7392	59.712885775585	0.010385164311
0	7397	59.723270939896	0.055825928678
0	7403	59.779096868574	0.062799779939
0	7408	59.841896648513	0.037638482602
0	7414	59.879535131115	0.037012609571
0	7419	59.916547740686	0.01815235772
0	7425	59.934700098406	0.019324709102
0	7430	59.954024807508	0.309795505936
0	7444	60.263820313444	0.00015521784
0	7446	60.263975531284	0.022485668397
0	7454	60.286461199681	0.045478535244
0	7459	60.331939734925	0.031805172718
0	7464	60.363744907643	0.052359612775
0	7469	60.416104520418	0.023760471939
0	7474	60.439864992357	0.00026015664
0	7476	60.440125148997	0.194432236138
0	7489	60.634557385135	0.175698941148
0	7498	60.810256326283	0.009597895098
0	7504	60.819854221381	0.054512279323
0	7509	60.874366500704	0.019873953996
0	7514	60.8942404547	0.017346444158
0	7520	60.911586898858	0.057026223748
0	7526	60.968613122606	0.011179952917
0	7531	60.979793075523	0.003264679782
0	7533	60.983057755305	0.129983662267
0	7546	61.113041417572	0.046729020817
0	7552	61.159770438389	0.018498958988
0	7557	61.178269397377	0.03247053634
0	7562	61.210739933717	0.025810172747
0	7569	61.236550106464	0.016703754153
0	7574	61.253253860617	0.050128120416
0	7581	61.303381981033	0.013617561318
0	7586	61.316999542351	0.110661361577
0	7596	61.427660903928	0.036130111877
0	7601	61.463791015805	0.028335097992
0	7607	61.492126113797	0.022937565132
0	7613	61.515063678929	0.131706569797
0	7618	61.646770248726	0.030488108643
0	7626	61.677258357369	0.044834291829
0	7633	61.722092649198	0.020585028894
0	7639	61.742677678092	0.028262764066
0	7644	61.770940442158	0.176157567061
0	7653	61.947098009219	0.044920118322
0	7659	61.992018127541	0.007161163574
0	7661	61.999179291115	0.021886972806
0	7669	62.021066263921	0.005090782099
0	7671	62.02615704602	0.053504124481
0	7679	62.079661170501	0.02103338362
0	7684	62.100694554121	0.052822049709
0	7690	62.15351660383	0.044705294406
0	7695	62.198221898236	0.086219594273
0	7702	62.284441492509	0.053819522971
0	7708	62.33826101548	0.0257723775
0	7713	62.36403339298	0.025313198354
0	7718	62.389346591334	0.001914439889
0	7720	62.391261031223	0.36167342264
0	7738	62.752934453863	0.208772180211
0	7746	62.961706634074	0.02168497352
0	7751	62.983391607594	0.029723300835
0	7757	63.013114908429	0.063900106458
0	7762	63.077015014887	0.138737731079
0	7773	63.215752745966	0.050747947918
0	7783	63.266500693884	0.055743342704
0	7791	63.322244036588	0.08384673665
0	7797	63.406090773238	0.015509806163
0	7802	63.421600579401	0.186957423902
0	7813	63.608558003303	0.041513032338
0	7819	63.650071035641	0.11027004019
0	7826	63.760341075831	0.157249877635
0	7833	63.917590953466	0.072315378608
0	7840	63.989906332074	0.006022913388
0	7842	63.995929245462	0.059907569392
0	7853	64.055836814854	0.015888467069
0	7858	64.071725281923	0.020435882712
0	7863	64.092161164635	0.004281039706
0	7865	64.096442204341	0.007989989022
0	7870	64.104432193363	0.072466093474
0	7880	64.176898286837	0.003234180257
0	7882	64.180132467094	0.001096369034
0	7884	64.181228836128	0.013847111266
0	7892	64.195075947394	0.007381594162
0	7897	64.202457541556	0.028306477585
0	7906	64.230764019141	0.015097750174
0	7912	64.245861769315	0.036906837127
0	7919	64.282768606442	0.10242915783
0	7926	64.385197764272	0.074158670402
0	7933	64.459356434674	0.009886588397
0	7938	64.469243023071	0.159394208614
0	7943	64.628637231685	0.028394384656
0	7949	64.657031616341	0.006239654613
0	7951	64.663271270954	0.01966086435
0	7959	64.682932135304	0.00565866662
0	7961	64.688590801924	0.043781939905
0	7969	64.732372741829	0.044542690095
0	7974	64.776915431924	0.137810653874
0	7981	64.914726085798	0.068402701069
0	7988	64.983128786867	0.141326198528
0	7997	65.124454985395	0.09424323071
0	8003	65.218698216105	0.002696847821
0	8005	65.221395063926	0.137312593511
0	8016	65.358707657437	0.045343155365
0	8022	65.404050812802	0.204996714633
0	8031	65.609047527435	0.111189140788
0	8037	65.720236668223	0.025524758135
0	8042	65.745761426358	0.07591845742
0	8049	65.821679883778	0.023928828553
0	8055	65.845608712331	0.011883293555
0	8060	65.857492005886	0.007997210668
0	8062	65.865489216554	0.072407306197
0	8071	65.937896522751	0.057748726678
0	8076	65.995645249429	0.010478224286
0	8081	66.006123473715	0.053466552918
0	8086	66.059590026633	0.114512860995
0	8094	66.174102887628	0.099047764806
0	8102	66.273150652434	0.000448569367
0	8104	66.273599221801	0.005115923979
0	8106	66.27871514578	0.004728336825
0	8111	66.283443482605	0.034435542198
0	8122	66.317879024803	0.048271789985
0	8128	66.366150814788	0.043503995518
0	8133	66.409654810306	0.024098960478
0	8139	66.433753770784	0.013824384205
0	8144	66.447578154989	0.005077438529
0	8146	66.452655593518	0.009257802674
0	8151	66.461913396192	0.209763431006
0	8165	66.671676827198	0.098156164478
0	8171	66.769832991676	0.113448454331
0	8177	66.883281446007	0.003015901189
0	8180	66.886297347196	0.015811855292
0	8189	66.902109202488	0.031802523556
0	8197	66.933911726044	0.03204577116
0	8203	66.965957497204	0.006155522746
0	8205	66.97211301995	0.032672662986
0	8215	67.004785682936	0.030537708743
0	8220	67.035323391679	0.035503517283
0	8226	67.070826908962	0.195507038483
0	8240	67.266333947445	0.170956825134
0	8247	67.437290772579	0.027556897416
0	8252	67.464847669995	0.00526572096
0	8254	67.470113390955	0.097289229196
0	8267	67.567402620151	0.002022897783
0	8269	67.569425517934	0.006239376118
0	8274	67.575664894052	0.033053990041
0	8283	67.608718884093	0.015821369559
0	8288	67.624540253652	0.030648363434
0	8293	67.655188617086	0.025858346354
0	8298	67.68104696344	0.013411154664
0	8303	67.694458118104	0.025525628797
0	8309	67.719983746901	0.003033715009
0	8311	67.72301746191	0.055643190581
0	8319	67.778660652491	0.006610579991
0	8321	67.785271232482	0.021134489403
0	8330	67.806405721885	0.097160027816
0	8339	67.903565749701	0.062547433033
0	8344	67.966113182734	0.025513569888
0	8351	67.991626752622	0.050969759403
0	8359	68.042596512025	0.02401459069
0	8365	68.066611102715	0.025471425511
0	8371	68.092082528226	0.001110932601
0	8373	68.093193460827	0.028260581742
0	8384	68.121454042569	0.023480401606
0	8389	68.144934444175	0.047664296561
0	8397	68.192598740736	0.054177409415
0	8408	68.246776150151	0.003630802905
0	8410	68.250406953056	0.04908924528
0	8421	68.299496198336	0.086412968648
0	8427	68.385909166984	0.122665292075
0	8435	68.508574459059	0.05298224716
0	8443	68.561556706219	0.055705736823
0	8449	68.617262443042	0.064793890825
0	8458	68.682056333867	0.019584226994
0	8465	68.701640560861	0.038493096791
0	8472	68.740133657652	0.019005951567
0	8477	68.759139609219	0.005853501966
0	8480	68.764993111185	0.089582716794
0	8490	68.854575827979	0.025962686244
0	8496	68.880538514223	0.074761555906
0	8505	68.955300070129	0.025991097244
0	8510	68.981291167373	0.016505334703
0	8516	68.997796502076	0.019359873362
0	8522	69.017156375438	0.062575447848
0	8528	69.079731823286	0.001520399688
0	8530	69.081252222974	0.041228586159
0	8540	69.122480809133	0.066828420866
0	8547	69.189309229999	0.025512957518
0	8553	69.214822187517	0.005814583338
0	8555	69.220636770855	0.037842715861
0	8566	69.258479486716	0.046609337028
0	8571	69.305088823744	0.004454297875
0	8573	69.309543121619	0.060737785428
0	8582	69.370280907047	0.054782493512
0	8589	69.425063400559	0.050363634419
0	8596	69.475427034978	0.001504139777
0	8598	69.476931174755	0.15988293787
0	8612	69.636814112625	0.110040843718
0	8621	69.746854956343	0.005451593181
0	8623	69.752306549524	0.057303901753
0	8632	69.809610451277	0.100933187996
0	8643	69.910543639273	0.110964776089
0	8655	70.021508415362	0.001481237615
0	8657	70.022989652977	6.0415094e-005
0	8659	70.023050068071	0.038276954114
0	8670	70.061327022185	0.138405002884
0	8678	70.199732025069	0.025896172254
0	8685	70.225628197323	0.158871531073
0	8697	70.384499728396	0.037136187485
0	8703	70.421635915881	0.079560113167
0	8714	70.501196029048	0.022714378853
0	8719	70.523910407901	0.241879372453
0	8730	70.765789780354	0.010571058749
0	8735	70.776360839103	0.021942708852
0	8741	70.798303547955	0.00096540526
0	8743	70.799268953215	0.094305755342
0	8754	70.893574708557	0.036506101013
0	8761	70.93008080957	0.073630643127
0	8773	71.003711452697	0.092504460994
0	8782	71.096215913691	0.063742572627
0	8788	71.159958486318	0.023357661323
0	8793	71.183316147641	0.050176219395
0	8799	71.233492367036	0.012606983822
0	8805	71.246099350858	0.018363408375
0	8812	71.264462759233	0.004198002002
0	8814	71.268660761235	0.03853155304
0	8825	71.307192314275	0.004458554113
0	8827	71.311650868388	0.016049882895
0	8836	71.327700751283	0.01251266402
0	8841	71.340213415303	0.000436394815
0	8843	71.340649810118	0.005268807032
0	8845	71.34591861715	0.00126305609
0	8847	71.34718167324	0.015396939779
0	8858	71.362578613019	0.007790959306
0	8863	71.370369572325	0.003421943769
0	8865	71.373791516094	0.036052620221
0	8877	71.409844136315	0.003392793902
0	8879	71.413236930217	0.012593739235
0	8887	71.425830669452	0.09699308798
0	8896	71.522823757432	0.02306128888
0	8903	71.545885046312	0.008844035306
0	8908	71.554729081618	0.002834194058
0	8910	71.557563275676	0.04101294963
0	8921	71.598576225306	0.121066832322
0	8932	71.719643057628	0.074240703702
0	8942	71.79388376133	0.108120247136
0	8951	71.902004008466	0.030477959042
0	8958	71.932481967508	0.113785999154
0	8968	72.046267966662	0.008324509696
0	8973	72.054592476358	0.020187645356
0	8978	72.074780121714	0.011131942602
0	8983	72.085912064316	0.062400911564
0	8990	72.14831297588	0.028368405983
0	8995	72.176681381863	0.027838540572
0	9000	72.204519922435	0.037563618684
0	9006	72.242083541119	0.017954784141
0	9011	72.26003832526	0.021496110137
0	9016	72.281534435397	0.003650627192
0	9018	72.285185062589	0.076043795382
0	9027	72.361228857971	0.027395621885
0	9032	72.388624479856	0.069519466361
0	9039	72.458143946217	0.024577267938
0	9044	72.482721214155	0.131010078844
0	9052	72.613731292999	0.008741100002
0	9057	72.622472393001	0.001468997364
0	9059	72.623941390365	0.021555091361
0	9068	72.645496481726	0.113020022369
0	9074	72.758516504095	0.005025276187
0	9076	72.763541780282	0.024925816596
0	9085	72.788467596878	0.102436899679
0	9092	72.890904496557	0.105339606294
0	9101	72.996244102851	0.055069803915
0	9107	73.051313906766	0.058685886394
0	9112	73.10999979316	0.010704109733
0	9117	73.120703902893	0.218499987571
0	9128	73.339203890464	0.125107899127
0	9137	73.464311789591	0.071206550782
0	9143	73.535518340373	0.043337053533
0	9150	73.578855393906	0.022670670917
0	9155	73.601526064823	0.030430967703
0	9160	73.631957032526	0.034763789049
0	9165	73.666720821575	0.051410265914
0	9171	73.718131087489	0.023611437432
0	9176	73.741742524921	0.014653174889
0	9182	73.75639569981	0.022699572337
0	9187	73.779095272147	0.040045434143
0	9192	73.81914070629	0.015116406902
0	9197	73.834257113192	0.007072605249
0	9199	73.841329718441	0.034256003897
0	9210	73.875585722338	0.011189438607
0	9216	73.886775160945	0.057244322473
0	9221	73.944019483418	0.036082937385
0	9227	73.980102420803	0.016240840232
0	9232	73.996343261035	0.005128962995
0	9234	74.00147222403	0.037156782715
0	9244	74.038629006745	0.095477750925
0	9250	74.13410675767	0.006243042892
0	9252	74.140349800562	0.025171305773
0	9260	74.165521106335	0.008708461055
0	9266	74.17422956739	0.013268497889
0	9271	74.187498065279	0.002396859979
0	9273	74.189894925258	0.044025921915
0	9282	74.233920847173	0.176562070025
0	9291	74.410482917198	0.068685963234
0	9298	74.479168880432	0.000193391159
0	9300	74.479362271591	0.046950930176
0	9308	74.526313201767	0.009836034431
0	9313	74.536149236198	0.043257452946
0	9319	74.579406689144	0.047449317339
0	9324	74.626856006483	0.00932248171
0	9329	74.636178488193	0.004243570552
0	9331	74.640422058745	0.0579757983
0	9340	74.698397857045	0.106809696316
0	9346	74.805207553361	0.188184039677
0	9354	74.993391593038	0.063580500116
0	9360	75.056972093154	0.04690040578
0	9365	75.103872498934	0.169646535732
0	9371	75.273519034666	0.019903050249
0	9377	75.293422084915	0.035426803772
0	9382	75.328848888687	0.081149500853
0	9387	75.40999838954	0.017862589763
0	9392	75.427860979303	0.090505550573
0	9398	75.518366529876	0.039869923792
0	9403	75.558236453668	0.026831104149
0	9408	75.585067557817	0.133551248675
0	9414	75.718618806492	0.026859186854
0	9420	75.745477993346	0.036777837747
0	9425	75.782255831093	0.137928066146
0	9436	75.920183897239	0.015544603155
0	9441	75.935728500394	0.064039816153
0	9447	75.999768316547	0.104940921429
0	9455	76.104709237976	0.001672737956
0	9457	76.106381975932	0.023254287187
0	9465	76.129636263119	0.027751586266
0	9470	76.157387849385	6.921563e-005
0	9472	76.157457065015	0.00492997501
0	9474	76.162387040025	0.0142300092
0	9482	76.176617049225	0.192095815173
0	9492	76.368712864398	0.019153403354
0	9498	76.387866267752	0.04280830787
0	9503	76.430674575622	0.097870919612
0	9513	76.528545495234	0.051596035146
0	9521	76.58014153038	0.030670903306
0	9526	76.610812433686	0.022664223541
0	9531	76.633476657227	0.029402190584
0	9537	76.662878847811	0.055088095866
0	9542	76.717966943677	0.020481358004
0	9547	76.738448301681	0.042413340492
0	9553	76.780861642173	0.106296528497
0	9563	76.88715817067	0.074512454334
0	9570	76.961670625004	0.145045452059
0	9580	77.106716077063	0.115180343831
0	9587	77.221896420894	0.240734899987
0	9598	77.462631320881	0.025901452856
0	9603	77.488532773737	0.023639677236
0	9608	77.512172450973	0.112854357082
0	9617	77.625026808055	0.169287045145
0	9627	77.7943138532	0.00336484836
0	9629	77.79767870156	0.07848191773
0	9639	77.87616061929	0.057834964485
0	9644	77.933995583775	0.056302639885
0	9652	77.99029822366	0.013137770497
0	9657	78.003435994157	0.014044557775
0	9662	78.017480551932	0.038703602134
0	9667	78.056184154066	0.012196483493
0	9672	78.068380637559	0.074147968219
0	9679	78.142528605778	0.009078960883
0	9684	78.151607566661	0.068636200292
0	9690	78.220243766953	0.128039695738
0	9700	78.348283462691	0.063904314694
0	9709	78.412187777385	0.017412431709
0	9714	78.429600209094	0.032975140003
0	9719	78.462575349097	0.030173939621
0	9725	78.492749288718	0.010784992064
0	9730	78.503534280782	0.034056763905
0	9736	78.537591044687	0.011506288408
0	9741	78.549097333095	0.075292557154
0	9750	78.624389890249	0.038336269106
0	9756	78.662726159355	0.092970328621
0	9762	78.755696487976	0.028796148644
0	9768	78.78449263662	0.007487260413
0	9771	78.791979897033	0.184423598774
0	9782	78.976403495807	0.027835133205
0	9788	79.004238629012	0.017892633616
0	9793	79.022131262628	0.092529282329
0	9805	79.114660544957	0.004113128274
0	9807	79.118773673231	0.085196580221
0	9815	79.203970253452	0.064891828457
0	9821	79.268862081909	0.005402303344
0	9823	79.274264385253	0.185299531866
0	9836	79.459563917119	0.00850285444
0	9841	79.468066771559	0.076183514017
0	9846	79.544250285576	0.01813455681
0	9851	79.562384842386	0.014187505127
0	9856	79.576572347513	0.003917490055
0	9858	79.580489837568	0.001862304615
0	9860	79.582352142183	0.027639966675
0	9871	79.609992108858	0.026121462167
0	9876	79.636113571025	0.005693032865
0	9878	79.64180660389	0.105084679204
0	9888	79.746891283094	0.041991675069
0	9894	79.788882958163	0.028281146051
0	9899	79.817164104214	0.01415509145
0	9905	79.831319195664	0.016709770748
0	9910	79.848028966412	0.045370645997
0	9916	79.893399612409	0.136901164764
0	9926	80.030300777173	0.006251277442
0	9928	80.036552054615	0.073978757067
0	9937	80.110530811682	0.186243718705
0	9952	80.296774530387	0.047207062603
0	9957	80.34398159299	0.134826742696
0	9967	80.478808335686	0.000134032917
0	9969	80.478942368603	0.024862323492
0	9977	80.503804692095	0.134049754487
0	9988	80.637854446582	0.013865376447
0	9995	80.651719823029	0.056017954138
0	10001	80.707737777167	0.014410658395
0	10006	80.722148435562	0.012710233136
0	10013	80.734858668698	0.033023694714
0	10019	80.767882363412	0.001253229378
0	10021	80.76913559279	0.002040725018
0	10023	80.771176317808	0.000374817222
0	10025	80.77155113503	0.051041620953
0	10040	80.822592755983	0.131141276095
0	10047	80.953734032078	0.026238022204
0	10054	80.979972054282	0.05907026993
0	10061	81.039042324212	0.02369307895
0	10066	81.062735403162	0.061064008845
0	10074	81.123799412007	0.082869726033
0	10079	81.20666913804	0.045325063861
0	10088	81.251994201901	0.061727693489
0	10094	81.31372189539	0.038526866038
0	10101	81.352248761428	0.154319856944
0	10111	81.506568618372	0.030401581288
0	10117	81.53697019966	0.021688309475
0	10122	81.558658509135	0.045838693584
0	10127	81.604497202719	0.11391548714
0	10137	81.718412689859	0.053077665815
0	10145	81.771490355674	0.073476665793
0	10152	81.844967021467	0.023343608873
0	10157	81.86831063034	0.02211355945
0	10163	81.89042418979	0.055166265135
0	10170	81.945590454925	0.048598819654
0	10176	81.994189274579	0.030521677152
0	10185	82.024710951731	0.017023909577
0	10191	82.041734861308	0.004445211245
0	10193	82.046180072553	0.10373261912
0	10206	82.149912691673	0.013274752132
0	10214	82.163187443805	0.005963243499
0	10216	82.169150687304	0.004243686191
0	10221	82.173394373495	0.011940427972
0	10226	82.185334801467	0.019431678312
0	10236	82.204766479779	0.010107846813
0	10241	82.214874326592	0.047250899531
0	10248	82.262125226123	0.025794086126
0	10254	82.287919312249	0.022913728153
0	10259	82.310833040402	0.06837028595
0	10266	82.379203326352	0.064772833196
0	10274	82.443976159548	0.037423211746
0	10282	82.481399371294	0.056669413015
0	10290	82.538068784309	0.033439934209
0	10299	82.571508718518	0.007814632125
0	10304	82.579323350643	2.7305998e-005
0	10306	82.579350656641	0.009198697182
0	10311	82.588549353823	0.027704207242
0	10319	82.616253561065	0.003330256862
0	10321	82.619583817927	0.003283159259
0	10323	82.622866977186	0.015348869127
0	10332	82.638215846313	0.011675685302
0	10341	82.649891531615	0.021412901441
0	10347	82.671304433056	0.134702884249
0	10358	82.806007317305	0.004619375938
0	10360	82.810626693243	0.012128947944
0	10369	82.822755641187	0.046093962914
0	10374	82.868849604101	0.097715438585
0	10382	82.966565042686	0.0626539047
0	10395	83.029218947386	0.08120052219
0	10401	83.110419469576	0.008552590952
0	10403	83.118972060528	0.008666876061
0	10412	83.127638936589	0.020937967613
0	10418	83.148576904202	0.046533677831
0	10426	83.195110582033	0.064959966622
0	10434	83.260070548655	0.006145789408
0	10436	83.266216338063	0.054430808653
0	10451	83.320647146716	0.065077105423
0	10458	83.385724252139	0.096365224863
0	10470	83.482089477002	0.050731337713
0	10476	83.532820814715	0.040439506314
0	10483	83.573260321029	0.08354932876
0	10495	83.656809649789	0.001304698248
0	10497	83.658114348037	0.032637181027
0	10506	83.690751529064	0.002951452643
0	10508	83.693702981707	0.123174731459
0	10519	83.816877713166	0.004172400878
0	10522	83.821050114044	0.002530410466
0	10524	83.82358052451	0.03640114415
0	10539	83.85998166866	0.017328350456
0	10544	83.877310019116	0.070346527264
0	10552	83.94765654638	0.062772533575
0	10559	84.010429079955	0.001640277736
0	10561	84.012069357691	0.027073624683
0	10569	84.039142982374	0.030503539564
0	10575	84.069646521938	0.009494587873
0	10580	84.079141109811	0.087090701073
0	10591	84.166231810884	0.00567023611
0	10594	84.171902046994	0.055222340249
0	10602	84.227124387243	0.085006196463
0	10611	84.312130583706	0.039473829742
0	10617	84.351604413448	0.032041303575
0	10622	84.383645717023	0.044435201381
0	10627	84.428080918404	0.106973876149
0	10634	84.535054794553	0.113399519542
0	10642	84.648454314095	0.066079505309
0	10650	84.714533819404	0.042792461072
0	10656	84.757326280476	0.026358439485
0	10661	84.783684719961	0.027393434699
0	10667	84.81107815466	0.023381203863
0	10672	84.834459358523	0.060693028153
0	10679	84.895152386676	0.036246171815
0	10686	84.931398558491	0.022096659444
0	10691	84.953495217935	0.109938264483
0	10699	85.063433482418	0.180432750846
0	10713	85.243866233264	0.066833051938
0	10720	85.310699285202	0.102904558883
0	10729	85.413603844085	0.000258314305
0	10731	85.41386215839	0.008518867934
0	10736	85.422381026324	0.059234307533
0	10745	85.481615333857	0.057620550969
0	10750	85.539235884826	0.125979507948
0	10757	85.665215392774	0.001733235128
0	10759	85.666948627902	0.061972357939
0	10767	85.728920985841	0.108231358784
0	10773	85.837152344625	0.009740304826
0	10778	85.846892649451	0.09316929919
0	10785	85.940061948641	0.033035754671
0	10790	85.973097703312	0.035680557663
0	10796	86.008778260975	0.007559521322
0	10798	86.016337782297	0.006830442985
0	10803	86.023168225282	0.022235922748
0	10811	86.04540414803	0.048573397678
0	10817	86.093977545708	0.138324008403
0	10826	86.232301554111	0.013678243112
0	10831	86.245979797223	0.128396135988
0	10836	86.374375933211	0.049830463958
0	10843	86.424206397169	0.016622596079
0	10848	86.440828993248	0.059166976168
0	10856	86.499995969416	0.020747829136
0	10861	86.520743798552	0.005616734033
0	10863	86.526360532585	0.045841151865
0	10871	86.57220168445	0.032403517984
0	10876	86.604605202434	0.165109197623
0	10882	86.769714400057	0.044045380864
0	10889	86.813759780921	0.007996780193
0	10894	86.821756561114	0.014626403646
0	10899	86.83638296476	0.014847352939
0	10904	86.851230317699	0.011220360177
0	10911	86.862450677876	0.103398115758
0	10918	86.965848793634	0.050785633653
0	10924	87.016634427287	0.033853085618
0	10929	87.050487512905	0.071510967413
0	10937	87.121998480318	0.114612481292
0	10944	87.23661096161	0.022244923449
0	10949	87.258855885059	0.010260140916
0	10954	87.269116025975	0.061704001337
0	10960	87.330820027312	0.038035830092
0	10965	87.368855857404	0.044260842233
0	10971	87.413116699637	0.019746264605
0	10976	87.432862964242	0.082929669345
0	10983	87.515792633587	0.019029544966
0	10988	87.534822178553	0.01141233116
0	10993	87.546234509713	0.029608740199
0	10998	87.575843249912	0.079579105654
0	11003	87.655422355566	0.028376629192
0	11009	87.683798984758	0.015490106728
0	11015	87.699289091486	0.022107508596
0	11020	87.721396600082	0.017709930704
0	11026	87.739106530786	0.123238006821
0	11033	87.862344537607	0.191228482822
0	11043	88.053573020429	0.065790711589
0	11049	88.119363732018	0.002355291874
0	11051	88.121719023892	0.065014457102
0	11059	88.186733480994	0.010520845162
0	11064	88.197254326156	0.017118420643
0	11069	88.214372746799	0.036789666351
0	11074	88.25116241315	0.043103081365
0	11080	88.294265494515	0.023579786023
0	11086	88.317845280538	0.075520240934
0	11092	88.393365521472	0.013860171926
0	11097	88.407225693398	0.079381464379
0	11103	88.486607157777	0.057688188168
0	11111	88.544295345945	0.02112017247
0	11116	88.565415518415	0.055317653248
0	11123	88.620733171663	0.073673888833
0	11131	88.694407060496	0.165853368886
0	11138	88.860260429382	0.066570217522
0	11147	88.926830646904	0.105433374094
0	11155	89.032264020998	0.007628807407
0	11160	89.039892828405	0.298311784988
0	11170	89.338204613393	0.100475430835
0	11177	89.438680044228	0.022540490531
0	11183	89.461220534759	0.029109052657
0	11189	89.490329587416	0.002314475296
0	11191	89.492644062712	0.033316543801
0	11200	89.525960606513	0.019674119848
0	11205	89.545634726361	0.029743812795
0	11212	89.575378539156	0.034349781795
0	11219	89.609728320951	0.041948664146
0	11224	89.651676985097	0.009448925836
0	11229	89.661125910933	0.048533287392
0	11234	89.709659198325	0.004445718117
0	11236	89.714104916442	0.034475646096
0	11245	89.748580562538	0.0301405454
0	11250	89.778721107938	0.100790873217
0	11258	89.879511981155	0.134904152148
0	11264	90.014416133303	0.049407432658
0	11271	90.063823565961	0.07201958025
0	11276	90.135843146211	0.025660419062
0	11283	90.161503565273	0.018660986418
0	11288	90.180164551691	0.026951975427
0	11293	90.207116527118	0.109738352439
0	11299	90.316854879557	0.083257736369
0	11306	90.400112615926	0.059746406669
0	11313	90.459859022595	0.021400257523
0	11318	90.481259280118	0.031119901217
0	11325	90.512379181335	0.011878277147
0	11331	90.524257458482	0.015368363638
0	11337	90.53962582212	0.003060971606
0	11339	90.542686793726	0.042846155074
0	11348	90.5855329488	0.104384513157
0	11354	90.689917461957	0.010839501287
0	11360	90.700756963244	0.125386116763
0	11366	90.826143080007	0.067591104303
0	11371	90.89373418431	0.006398497243
0	11373	90.900132681553	0.138173822029
0	11384	91.038306503582	0.020358859027
0	11389	91.058665362609	0.053832932443
0	11395	91.112498295052	0.00964114944
0	11400	91.122139444492	0.064548135279
0	11405	91.186687579771	0.006159168614
0	11407	91.192846748385	0.008985552962
0	11412	91.201832301347	0.115062668302
0	11420	91.316894969649	0.068960767537
0	11425	91.385855737186	0.002927942416
0	11427	91.388783679602	0.034393738574
0	11435	91.423177418176	0.196830306491
0	11448	91.620007724667	0.004571932402
0	11451	91.624579657069	0.00507123917
0	11456	91.629650896239	0.02442446432
0	11464	91.654075360559	0.099560782025
0	11472	91.753636142584	0.06536456925
0	11479	91.819000711834	0.041793878377
0	11485	91.860794590211	0.043162427213
0	11491	91.903957017424	0.022936767067
0	11496	91.926893784491	0.018291741957
0	11501	91.945185526448	0.020953540178
0	11506	91.966139066626	0.224364920562
0	11520	92.190503987188	0.070809674025
0	11529	92.261313661213	0.042669534311
0	11534	92.303983195524	0.018885685277
0	11539	92.322868880801	0.144974932684
0	11547	92.467843813485	0.053547752319
0	11553	92.521391565804	0.041023378396
0	11558	92.5624149442	0.03642069877
0	11565	92.59883564297	0.041582147635
0	11570	92.640417790605	0.033176084247
0	11575	92.673593874852	0.002626304518
0	11577	92.67622017937	0.115713744931
0	11588	92.791933924301	0.005495138759
0	11590	92.79742906306	0.040444184431
0	11599	92.837873247491	0.047652671309
0	11605	92.8855259188	0.087683200867
0	11612	92.973209119667	0.065770124628
0	11618	93.038979244295	0.064653596894
0	11623	93.103632841189	0.01398784012
0	11629	93.117620681309	0.001966012496
0	11631	93.119586693805	0.16617810632
0	11640	93.285764800125	0.074164509915
0	11646	93.35992931004	0.067592342845
0	11653	93.427521652885	0.01222284463
0	11658	93.439744497515	0.013591175951
0	11663	93.453335673466	0.116729411103
0	11670	93.570065084569	0.051700291137
0	11676	93.621765375706	0.002193633898
0	11678	93.623959009604	0.020757319724
0	11687	93.644716329328	0.020253661459
0	11693	93.664969990787	0.065002300459
0	11700	93.729972291246	0.005253191645
0	11702	93.735225482891	0.043924774525
0	11711	93.779150257416	0.032273988551
0	11717	93.811424245967	0.070663490764
0	11724	93.882087736731	0.085746155205
0	11729	93.967833891936	0.014481784896
0	11734	93.982315676832	0.017704440005
0	11741	94.000020116837	0.134629993383
0	11751	94.13465011022	0.008180970676
0	11756	94.142831080896	0.248101637245
0	11769	94.390932718141	0.020043810682
0	11775	94.410976528823	0.008988204409
0	11780	94.419964733232	0.084068219762
0	11787	94.504032952994	0.035964838614
0	11792	94.539997791608	0.007563472252
0	11795	94.54756126386	0.099562824567
0	11803	94.647124088427	0.012897261464
0	11809	94.660021349891	0.021362380815
0	11814	94.681383730706	0.003566850321
0	11816	94.684950581027	0.01389565234
0	11824	94.698846233367	0.061159487028
0	11830	94.760005720395	0.065664317767
0	11838	94.825670038162	0.025145620834
0	11843	94.850815658996	0.189751616686
0	11851	95.040567275682	0.018614089157
0	11856	95.059181364839	0.035033552108
0	11862	95.094214916947	0.063403596193
0	11869	95.15761851314	0.024914440861
0	11875	95.182532954001	0.020471965633
0	11881	95.203004919634	0.024873498871
0	11886	95.227878418505	0.065055631893
0	11892	95.292934050398	0.079117032514
0	11899	95.372051082912	0.084423891401
0	11904	95.456474974313	0.061219151799
0	11910	95.517694126112	0.012273474107
0	11915	95.529967600219	0.019203578585
0	11920	95.549171178804	0.182135484401
0	11927	95.731306663205	0.183627979262
0	11935	95.914934642467	0.008858220546
0	11940	95.923792863013	0.111087360125
0	11948	96.034880223138	0.01718376925
0	11953	96.052063992388	0.060353558045
0	11959	96.112417550433	0.009910066028
0	11964	96.122327616461	0.029060365156
0	11970	96.151387981617	0.021194617016
0	11975	96.172582598633	0.011615268207
0	11980	96.18419786684	0.032702178126
0	11985	96.216900044966	0.054675968857
0	11990	96.271576013823	0.036925626851
0	11995	96.308501640674	0.07009884735
0	12001	96.378600488024	0.096072696799
0	12009	96.474673184823	0.046326845527
0	12015	96.52100003035	0.110113422272
0	12023	96.631113452622	0.034220947078
0	12028	96.6653343997	0.012429726214
0	12033	96.677764125914	0.006280517467
0	12035	96.684044643381	0.048761452122
0	12044	96.732806095503	0.076793243289
0	12049	96.809599338792	0.005910809752
0	12051	96.815510148544	0.033823493993
0	12059	96.849333642537	0.030714013931
0	12065	96.880047656468	0.096246791883
0	12073	96.976294448351	0.01945500292
0	12078	96.995749451271	0.007240806724
0	12080	97.002990257995	0.019026485505
0	12089	97.0220167435	0.167748218968
0	12099	97.189764962468	0.032945427342
0	12106	97.22271038981	0.033785115788
0	12113	97.256495505598	0.065434757987
0	12120	97.321930263585	0.003755058543
0	12123	97.325685322128	0.003584610903
0	12125	97.329269933031	0.016433102883
0	12133	97.345703035914	0.105669914214
0	12142	97.451372950128	0.116436294359
0	12149	97.567809244487	0.066366148624
0	12156	97.634175393111	0.020324628378
0	12162	97.654500021489	0.009709548939
0	12167	97.664209570428	0.175458230457
0	12176	97.839667800885	0.139976138423
0	12181	97.979643939308	0.029360268565
0	12186	98.009004207873	0.035292599756
0	12192	98.044296807629	0.022867895573
0	12198	98.067164703202	0.428050912966
0	12207	98.495215616168	0.077977564086
0	12214	98.573193180254	0.010986187275
0	12219	98.584179367529	0.031472895067
0	12224	98.615652262596	0.038276023692
0	12230	98.653928286288	0.003928711348
0	12232	98.657856997636	0.017141986293
0	12242	98.674998983929	0.088258088979
0	12248	98.763257072908	0.018132750652
0	12253	98.78138982356	0.07814257772
0	12259	98.85953240128	0.044709999511
0	12265	98.904242400791	0.036179588405
0	12270	98.940421989196	0.127372562545
0	12278	99.067794551741	0.000486525297
0	12280	99.068281077038	0.08180548703
0	12291	99.150086564068	0.007329789628
0	12293	99.157416353696	0.064357105291
0	12302	99.221773458987	0.06223810394
0	12308	99.284011562927	0.040955227169
0	12315	99.324966790096	0.044684594587
0	12321	99.369651384683	0.127744039487
0	12329	99.49739542417	0.060206058006
0	12338	99.557601482176	0.033899276086
0	12344	99.591500758262	0.022387413738
0	12350	99.613888172	0.103507116908
0	12355	99.717395288908	0.049628455892
0	12360	99.7670237448	0.089782846942
0	12366	99.856806591742	0.0285311379
0	12372	99.885337729642	0.012029451388
0	12378	99.89736718103	0.026704799398
0	12384	99.924071980428	0.073750915729
0	12389	99.997822896157	0.026809959507
0	12396	100.024632855664	0.000612291942
0	12398	100.025245147606	0.001629032679
0	12400	100.026874180285	0.019491612326
0	12412	100.046365792611	0.003146724093
0	12414	100.049512516704	0.013040157811
0	12423	100.062552674515	0.094629566453
0	12430	100.157182240968	0.035348408203
0	12436	100.192530649171	0.059458403725
0	12441	100.251989052896	0.066752154216
0	12447	100.318741207112	0.013094979529
0	12452	100.331836186641	0.005139101601
0	12454	100.336975288242	0.006285344438
0	12460	100.34326063268	0.036172300003
0	12468	100.379432932683	0.00207810594
0	12470	100.381511038623	0.139364431634
0	12481	100.520875470257	0.032668173361
0	12486	100.553543643618	0.012980428984
0	12491	100.566524072602	0.04433260673
0	12497	100.610856679332	0.056527001506
0	12503	100.667383680838	0.114117528249
0	12508	100.781501209087	0.044932397735
0	12515	100.826433606822	0.126456571998
0	12523	100.95289017882	0.000505733781
0	12525	100.953395912601	0.022804588286
0	12533	100.976200500887	0.032296597679
0	12538	101.008497098566	0.133566233521
0	12546	101.142063332087	0.06168216388
0	12552	101.203745495967	0.039458608288
0	12557	101.243204104255	0.002248583397
0	12559	101.245452687652	0.042676583517
0	12567	101.288129271169	0.105814192402
0	12573	101.393943463571	0.009839423306
0	12579	101.403782886877	0.036706940817
0	12586	101.440489827694	0.006157075346
0	12588	101.44664690304	0.001557046672
0	12593	101.448203949712	0.014010573905
0	12598	101.462214523617	0.012706795643
0	12607	101.47492131926	0.006635951492
0	12609	101.481557270752	0.153604432011
0	12620	101.635161702763	0.012634518846
0	12626	101.647796221609	0.043651952586
0	12631	101.691448174195	0.038806158881
0	12636	101.730254333076	0.005684901421
0	12638	101.735939234497	0.101344347854
0	12651	101.837283582351	0.016951891383
0	12656	101.854235473734	0.079234285342
0	12661	101.933469759076	0.03050501511
0	12666	101.963974774186	0.00164456349
0	12668	101.965619337676	0.001058631593
0	12670	101.966677969269	0.059958784803
0	12682	102.026636754072	0.026518733244
0	12687	102.053155487316	0.002396095855
0	12689	102.055551583171	0.033614180583
0	12698	102.089165763754	0.311371608399
0	12714	102.400537372153	0.013964395101
0	12720	102.414501767254	0.076650320289
0	12729	102.491152087543	0.044414205108
0	12736	102.535566292651	0.01315804483
0	12741	102.548724337481	0.069966978121
0	12747	102.618691315602	0.033678039523
0	12752	102.652369355125	0.013448526417
0	12758	102.665817881542	0.068148666585
0	12766	102.733966548127	0.048445020145
0	12771	102.782411568272	0.091568649005
0	12779	102.873980217277	0.051030124233
0	12784	102.92501034151	0.012994097604
0	12790	102.938004439114	0.148347816354
0	12799	103.086352255468	0.00719056774
0	12801	103.093542823208	0.075316133113
0	12811	103.168858956321	0.133737969693
0	12818	103.302596926014	0.094307441345
0	12826	103.396904367359	0.055548667318
0	12832	103.452453034677	0.033708411473
0	12838	103.48616144615	0.104488694384
0	12846	103.590650140534	0.010249748703
0	12851	103.600899889237	0.013223228096
0	12856	103.614123117333	0.27381594257
0	12867	103.887939059903	0.006888252177
0	12869	103.89482731208	0.006926092106
0	12874	103.901753404186	0.021564166607
0	12883	103.923317570793	0.031881585963
0	12889	103.955199156756	0.01456442417
0	12894	103.969763580926	0.00352611823
0	12896	103.973289699156	0.003776823045
0	12899	103.977066522201	0.143987189067
0	12920	104.121053711268	0.051708561938
0	12927	104.172762273206	0.167513255285
0	12945	104.340275528491	0.014464966408
0	12951	104.354740494899	0.063539305969
0	12961	104.418279800868	0.029912260768
0	12966	104.448192061636	0.021538595654
0	12971	104.46973065729	0.017004979157
0	12976	104.486735636447	0.014677120167
0	12981	104.501412756614	0.127037171859
0	12992	104.628449928473	0.015414877563
0	12997	104.643864806036	0.029910868738
0	13002	104.673775674774	0.006807828669
0	13005	104.680583503443	0.105953497639
0	13014	104.786537001082	0.03730724985
0	13022	104.823844250932	0.002250724041
0	13024	104.826094974973	0.007646911837
0	13029	104.83374188681	0.038372196152
0	13038	104.872114082962	0.019043307718
0	13043	104.89115739068	0.030140695219
0	13049	104.921298085899	0.049269512228
0	13057	104.970567598127	0.019734989961
0	13063	104.990302588088	0.065013836473
0	13069	105.055316424561	0.017847281814
0	13074	105.073163706375	0.001228607289
0	13076	105.074392313664	0.015516030735
0	13085	105.089908344399	0.028116121248
0	13090	105.118024465647	0.011127781849
0	13095	105.129152247496	0.052795544966
0	13101	105.181947792462	0.033925977424
0	13107	105.215873769886	0.095949871234
0	13117	105.31182364112	0.021166520303
0	13122	105.332990161423	0.032248791884
0	13127	105.365238953307	0.020068713761
0	13133	105.385307667068	0.174021571018
0	13151	105.559329238086	0.003425034089
0	13153	105.562754272175	0.015437288397
0	13162	105.578191560572	0.000698103413
0	13164	105.578889663985	0.000680038799
0	13166	105.579569702784	0.121326277956
0	13183	105.70089598074	0.033058484206
0	13188	105.733954464946	0.026701167036
0	13195	105.760655631982	0.014793360359
0	13200	105.775448992341	0.056512041946
0	13208	105.831961034287	0.086783422475
0	13216	105.918744456762	0.030110414703
0	13222	105.948854871465	0.013248606786
0	13228	105.962103478251	0.011197048022
0	13234	105.973300526273	0.018598800421
0	13241	105.991899326694	0.132589531271
0	13251	106.124488857965	0.078325490259
0	13258	106.202814348224	0.006543146789
0	13261	106.209357495013	0.06278844309
0	13274	106.272145938103	0.032828732124
0	13279	106.304974670227	0.040828066554
0	13285	106.345802736781	0.004810574708
0	13287	106.350613311489	0.061030193593
0	13297	106.411643505082	0.013021253474
0	13303	106.424664758556	0.027118984686
0	13308	106.451783743242	0.057825038308
0	13314	106.50960878155	0.00026620992
0	13316	106.50987499147	0.037370933776
0	13326	106.547245925246	0.000571004327
0	13328	106.547816929573	0.039931441522
0	13339	106.587748371095	0.035792322366
0	13344	106.623540693461	0.089260705879
0	13355	106.71280139934	0.004348258884
0	13357	106.717149658224	0.003135178613
0	13360	106.720284836837	0.002621300943
0	13365	106.72290613778	0.117602794254
0	13383	106.840508932034	0.16836391561
0	13395	107.008872847644	0.052666780677
0	13403	107.061539628321	0.097950706024
0	13410	107.159490334345	0.05120873895
0	13416	107.210699073295	0.008245337797
0	13421	107.218944411092	0.001533693784
0	13423	107.220478104876	3.3221811e-005
0	13425	107.220511326687	0.120437637035
0	13438	107.340948963722	0.142080047792
0	13446	107.483029011514	0.001419047439
0	13448	107.484448058953	0.016309039876
0	13457	107.500757098829	0.010255848776
0	13462	107.511012947605	0.010283455998
0	13467	107.521296403603	0.113125540189
0	13475	107.634421943792	0.058802986361
0	13481	107.693224930153	0.006775391382
0	13483	107.700000321535	0.005765141193
0	13488	107.705765462728	0.0253739082
0	13496	107.731139370928	0.015370407508
0	13501	107.746509778436	0.071366068234
0	13507	107.81787584667	0.184633686061
0	13524	108.002509532731	0.041385091088
0	13530	108.043894623819	0.051008003068
0	13535	108.094902626887	0.065555273183
0	13540	108.16045790007	0.036769112119
0	13545	108.197227012189	0.01071204609
0	13550	108.207939058279	0.025368132804
0	13555	108.233307191083	0.026555875956
0	13560	108.259863067039	0.074471968505
0	13567	108.334335035544	0.03449642859
0	13572	108.368831464134	0.00759684293
0	13577	108.376428307064	0.013960801914
0	13582	108.390389108978	0.171076837308
0	13589	108.561465946286	0.308709853648
0	13597	108.870175799934	0.098708334516
0	13602	108.96888413445	0.055602444318
0	13610	109.024486578768	0.048071855295
0	13615	109.072558434063	0.107613276629
0	13622	109.180171710692	0.002192693584
0	13624	109.182364404276	0.024958587669
0	13633	109.207322991945	0.060341451065
0	13640	109.26766444301	0.129406683319
0	13646	109.397071126329	0.122256042085
0	13651	109.519327168414	0.01449267178
0	13656	109.533819840194	0.037177524366
0	13661	109.57099736456	0.008591867739
0	13666	109.579589232299	0.021865192802
0	13672	109.601454425101	0.077290310446
0	13678	109.678744735547	0.006407429295
0	13680	109.685152164842	0.180626727161
0	13691	109.865778892003	0.070304675853
0	13697	109.936083567856	0.003202175904
0	13699	109.93928574376	0.108150659953
0	13708	110.047436403713	0.005268174619
0	13710	110.052704578332	0.005282013778
0	13715	110.05798659211	0.019128793703
0	13725	110.077115385813	0.071144713074
0	13734	110.148260098887	0.037322223626
0	13741	110.185582322513	0.000860384657
0	13744	110.18644270717	0.060915638808
0	13753	110.247358345978	0.170645663134
0	13762	110.418004009112	0.155670134023
0	13769	110.573674143135	0.047733133411
0	13774	110.621407276546	0.006267943133
0	13776	110.627675219679	0.040197128387
0	13786	110.667872348066	0.022027289008
0	13791	110.689899637074	0.017545283585
0	13796	110.707444920659	0.015481661289
0	13802	110.722926581948	0.132459596193
[...]
24	12753	102.652369355125	8705
24	12759	102.665817881542	8694
24	12767	102.733966548127	8637
24	12772	102.782411568272	8597
24	12780	102.873980217277	8520
24	12785	102.92501034151	8478
24	12791	102.938004439114	8467
24	12800	103.086352255468	8558
24	12803	103.094531736655	8575
24	12812	103.168858956321	8728
24	12819	103.302596926014	9003
24	12827	103.396904367359	9154
24	12833	103.452453034677	9190
24	12839	103.48616144615	9212
24	12847	103.590650140534	9279
24	12852	103.600899889237	9285
24	12857	103.614123117333	9294
24	12868	103.887939059903	9484
24	12871	103.895319911864	9491
24	12876	103.902695320146	9499
24	12884	103.923317570793	9521
24	12890	103.955199156756	9555
24	12895	103.969763580926	9570
24	12901	103.977078105482	9578
24	12904	103.9843865206	9585
24	12910	104	9602
24	13522	108	9650
24	13525	108.002509532731	9651
24	13531	108.043894623819	9673
24	13536	108.094902626887	9699
24	13541	108.16045790007	9732
24	13546	108.197227012189	9751
24	13551	108.207939058279	9757
24	13556	108.233307191083	9770
24	13561	108.259863067039	9783
24	13568	108.334335035544	9822
24	13573	108.368831464134	9839
24	13578	108.376428307064	9843
24	13583	108.390389108978	9850
24	13590	108.561465946286	9111
24	13598	108.870175799934	9701
24	13603	108.96888413445	9875
24	13611	109.024486578768	9695
24	13616	109.072558434063	9207
24	13623	109.180171710692	8322
24	13626	109.18858315025	8865
24	13634	109.207322991945	9460
24	13641	109.26766444301	9149
24	13647	109.397071126329	8968
24	13652	109.519327168414	9057
24	13657	109.533819840194	9068
24	13662	109.57099736456	9095
24	13667	109.579589232299	9102
24	13673	109.601454425101	9118
24	13679	109.678744735547	9174
24	13683	109.686374994976	9180
24	13692	109.865778892003	9311
24	13698	109.936083567856	9363
24	13701	109.943559804105	9368
24	13709	110.047436403713	9444
24	13712	110.054848517224	9450
24	13717	110.062255924631	9455
24	13726	110.077115385813	9466
24	13735	110.148260098887	9486
24	13742	110.185582322513	9457
24	13746	110.192984247013	9452
24	13754	110.247358345978	9410
24	13763	110.418004009112	9277
24	13770	110.573674143135	9157
24	13775	110.621407276546	9120
24	13778	110.629082715142	9114
24	13787	110.667872348066	9084
24	13792	110.689899637074	9067
24	13797	110.707444920659	9053
24	13803	110.722926581948	9041
24	13808	110.855386178141	8939
24	13813	110.937747978293	8875
24	13820	110.953203862803	8863
24	13825	110.962133814956	8856
24	13830	111.050189492137	8788
24	13839	111.154902864514	8707
24	13849	111.365251695529	8784
24	13855	111.439548679704	8817
24	13862	111.516033051437	8852
24	13868	111.623663192419	8900
24	13874	111.660256544395	8917
24	13880	111.834216254291	8995
24	13883	111.841998355458	8999
24	13890	111.880234745909	9016
24	13895	111.912206895579	9030
24	13900	111.942869421655	9044
24	13905	111.97170486941	9057
24	13909	112	9070
24	14395	116	8913
24	14823	120	8487
24	15310	124	9245
24	15788	128	9273
24	16220	132	8079
24	16634	136	8795
24	17137	140	9516
24	17607	144	8304
24	18080	148	8461
24	18563	152	8460
24	19004	156	8271
24	19420	160	8960
24	19937	164	9287
24	20433	168	9468
24	20938	172	8660
24	21469	176	8753
24	22039	180	8903
24	22475	184	8697
24	22896	188	9241
24	23422	192	9056
24	23902	196	8566
24	24476	200	8333
24	24943	204	8918
24	25504	208	9169
24	26005	212	9170
24	26503	216	8294
24	26948	220	8721
24	27383	224	8844
24	27833	228	9444
24	28269	232	9204
24	28718	236	8588
24	29151	240	8673
24	29596	244	9088
24	30155	248	8678
24	30579	252	8391
24	31143	256	8571
24	31629	260	9496
24	32080	264	8464
24	32584	268	8606
24	33023	272	9447
24	33508	276	8341
24	33974	280	8838
24	34458	284	8318
24	34899	288	9616
24	35319	292	8696
24	35818	296	8347
24	36240	300	8725
24	36713	304	8470
24	37196	308	9381
24	37746	312	8952
24	38193	316	9081
24	38683	320	8588
24	39186	324	9323
24	39713	328	8350
24	40173	332	8291
24	40641	336	8200
24	41085	340	8768
24	41532	344	9598
24	41538	344.020137198358	9611
24	41547	344.092602012829	9660
24	41557	344.165108248578	9708
24	41565	344.269174582244	9777
24	41573	344.42303873342	9513
24	41583	344.571648565044	9035
24	41590	344.595031907353	9010
24	41598	344.675036499905	8925
24	41607	344.736588498834	8859
24	41612	344.74449006786	8851
24	41615	344.75239877874	8843
24	41629	344.915645922627	8669
24	41637	345.028477219851	8548
24	41642	345.047374177609	8528
24	41645	345.055582432768	8519
24	41655	345.160055429495	8472
24	41660	345.183389893597	8473
24	41664	345.191651430243	8473
24	41671	345.229706794342	8475
24	41679	345.283018062735	8477
24	41687	345.298315636536	8478
24	41693	345.31769184204	8479
24	41700	345.370078674855	8665
24	41707	345.449094562168	9137
24	41714	345.489514465421	9378
24	41717	345.496426344111	9419
24	41727	345.559541936399	9164
24	41734	345.595000261567	9425
24	41742	345.616858837771	9586
24	41752	345.817891826214	8941
24	41759	345.857376259848	9017
24	41766	345.922039149953	9142
24	41771	346.005654149141	9304
24	41775	346.013177794885	9318
24	41785	346.095670742478	9477
24	41791	346.149349745708	9581
24	41797	346.211979889986	9702
24	41805	346.267625087377	9390
24	41811	346.306662392988	8713
24	41821	346.394034595755	8398
24	41830	346.449964290541	8318
24	41836	346.467565138814	8315
24	41839	346.47236440279	8314
24	41844	346.480048809154	8312
24	41856	346.511917141664	8306
24	41863	346.605689802246	8288
24	41873	346.704046722899	8270
24	41882	346.726742002803	8265
24	41889	346.773485722959	8256
24	41897	346.802411954996	8251
24	41905	346.944505125237	8224
24	41921	347.105233324088	8244
24	41926	347.120435993167	8250
24	41933	347.151105787857	8263
24	41936	347.159577287312	8266
24	41941	347.168045712185	8269
24	41950	347.209682699088	8286
24	41956	347.263774584619	8308
24	41959	347.272200198485	8311
24	41973	347.331617391805	8335
24	41979	347.407811459772	8366
24	41984	347.439299370017	8378
24	41989	347.454134999975	8384
24	41997	347.514838708344	8409
24	42003	347.553529663941	8608
24	42008	347.578745772195	8993
24	42016	347.66214603009	9891
24	42022	347.777599771325	9857
24	42028	347.855166562557	9833
24	42036	347.928780220828	9811
24	42042	347.963036694334	9801
24	42047	347.97941399444	9796
24	42051	348	9790
24	42060	348.165580113071	9745
24	42066	348.1975274306	9743
24	42071	348.23194866386	9739
24	42077	348.295991308932	9734
24	42083	348.312332653358	9734
24	42089	348.350529889602	9759
24	42095	348.36853759956	9770
24	42102	348.405229787319	9794
24	42110	348.473288946202	9838
24	42117	348.565717678319	9890
24	42123	348.594450967699	9888
24	42130	348.647329734572	9885
24	42135	348.674461761263	9883
24	42147	348.815526403496	9875
24	42150	348.822615011091	9875
24	42157	348.832405667478	9874
24	42162	348.850617854961	9873
24	42165	348.857707898514	9872
24	42174	348.954313682401	9867
24	42179	348.964602388102	9866
24	42187	349.045958174785	9861
24	42193	349.056483591387	9861
24	42201	349.125105305424	9857
24	42206	349.165499409415	9854
24	42209	349.168317941299	9854
24	42219	349.202533272394	9852
24	42223	349.209638428707	9852
24	42231	349.248973869393	9849
24	42238	349.267633322852	9848
24	42243	349.278856577054	9848
24	42250	349.311022386171	9846
24	42255	349.324697104516	9845
24	42263	349.444950854405	9838
24	42266	349.452066121736	9837
24	42274	349.472159549267	9836
24	42277	349.479276263378	9836
24	42284	349.490462681924	9835
24	42292	349.512422900426	9834
24	42297	349.554755649949	9831
24	42304	349.623338656752	9827
24	42311	349.7464143543	9765
24	42316	349.806631568297	9687
24	42323	349.873724147675	9600
24	42329	349.928451789349	9529
24	42341	350.025580774429	9383
24	42344	350.033041074973	9366
24	42349	350.040514916528	9348
24	42359	350.185051024128	9001
24	42362	350.192827937804	8982
24	42369	350.212571468426	8934
24	42376	350.251842392461	8840
24	42382	350.280309947288	8772
24	42388	350.340072300583	8628
24	42394	350.420858497602	8434
24	42407	350.575899864197	8362
24	42410	350.584271067258	8372
24	42417	350.603923212667	8394
24	42422	350.613654211433	8405
24	42428	350.634929198949	8429
24	42435	350.654626678468	8452
24	42441	350.690895146996	8493
24	42453	350.783593657908	8599
24	42460	350.84134293983	8664
24	42466	350.89922639653	8730
24	42472	350.94096467284	8778
24	42478	350.96315374739	8803
24	42483	351.027346176613	8876
24	42491	351.162773042039	9030
24	42498	351.186700236504	9058
24	42506	351.263254995384	9145
24	42517	351.362351732438	9258
24	42520	351.369912760738	9266
24	42525	351.377467261062	9275
24	42533	351.402899426965	9304
24	42540	351.421882324836	9325
24	42546	351.44955764624	9357
24	42557	351.52384739768	9442
24	42562	351.53728059658	9457
24	42567	351.557729579368	9480
24	42575	351.574276699641	9499
24	42582	351.629431003957	9562
24	42589	351.686849530512	9153
24	42595	351.70381918823	8957
24	42600	351.717570547093	8869
24	42605	351.727928172919	8803
24	42611	351.795345462553	8374
24	42618	351.813231563195	8260
24	42625	351.844919565121	8109
24	42632	351.953934974932	8450
24	42635	351.962218998601	8476
24	42645	351.988976366848	8560
24	42650	352	8594
24	43105	356	8810
24	43537	360	9539
24	44115	364	9769
24	44118	364.021243371202	9757
24	44124	364.04923058597	9742
24	44129	364.063621430556	9734
24	44136	364.127996830104	9699
24	44145	364.287324395653	9613
24	44151	364.364029923768	9571
24	44159	364.437797657102	9531
24	44164	364.457848304817	9520
24	44169	364.475705027202	9510
24	44175	364.504360877773	9495
24	44182	364.552323545603	9469
24	44191	364.650866366324	9415
24	44196	364.66926384621	9405
24	44201	364.676706695758	9401
24	44204	364.684152712139	9397
24	44211	364.695823037428	9391
24	44218	364.782728853701	9344
24	44229	364.95925607916	9248
24	44234	365.014057914625	9218
24	44240	365.044702671049	9201
24	44246	365.092298650858	9175
24	44251	365.11829354904	9161
24	44256	365.125961183826	9157
24	44259	365.133605608856	9153
24	44266	365.151306226388	9143
24	44274	365.216560204756	9108
24	44281	365.321191032309	9051
24	44290	365.462774358316	8974
24	44295	365.471689109471	8969
24	44301	365.531512739626	8937
24	44304	365.539345345646	8933
24	44312	365.587525860284	8906
24	44317	365.598133040984	8901
24	44323	365.732577670976	8828
24	44328	365.746973776751	8820
24	44334	365.755337579692	8815
24	44342	365.831878743801	8774
24	44345	365.839856860965	8769
24	44352	365.88959818472	8742
24	44358	365.947454160132	8711
24	44365	365.955489976915	8706
24	44368	365.963530408801	8702
24	44371	365.971574536588	8698
24	44381	366.072778708067	8643
24	44386	366.114617627191	8620
24	44391	366.172354099241	8589
24	44396	366.222513628454	8561
24	44404	366.297226506453	8521
24	44408	366.305441504693	8516
24	44417	366.418052695874	8455
24	44424	366.465192408458	8430
24	44427	366.473496085801	8425
24	44434	366.483250488846	8420
24	44439	366.503797256086	8409
24	44444	366.524325259785	8397
24	44449	366.564715529984	8375
24	44454	366.590998245974	8361
24	44462	366.687149428802	8316
24	44465	366.69556693722	8315
24	44472	366.733920540477	8309
24	44480	366.898889057436	8282
24	44486	366.941572498235	8275
24	44495	367.123604494228	8640
24	44501	367.166159217749	8815
24	44506	367.195598727839	8936
24	44512	367.250390933639	9162
24	44519	367.265275296656	9223
24	44525	367.329660461684	9488
24	44534	367.488877469617	9734
24	44540	367.546802713844	9754
24	44545	367.632005914053	9783
24	44550	367.639440137792	9786
24	44558	367.703849288793	9808
24	44566	367.937383155759	9853
24	44571	367.968360502929	9837
24	44576	368	9820
24	44579	368.063895781591	9787
24	44584	368.090326485512	9773
24	44590	368.12231860408	9756
24	44596	368.197877315833	9717
24	44603	368.249441698045	9689
24	44608	368.286099931265	9670
24	44613	368.301650354056	9662
24	44619	368.355676519093	9634
24	44625	368.444247739117	9587
24	44630	368.486005514445	9565
24	44635	368.53194857201	9541
24	44640	368.59422051072	9508
24	44645	368.609452488614	9500
24	44648	368.616820909667	9497
24	44655	368.706284371319	9450
24	44662	368.729994681111	9408
24	44665	368.737435157301	9389
24	44670	368.744890690372	9370
24	44677	368.759047409032	9334
24	44682	368.772903899428	9298
24	44688	368.793484454864	9245
24	44693	368.804693176622	9216
24	44697	368.812288662733	9197
24	44706	368.846314655983	9109
24	44712	368.877523776555	9029
24	44715	368.885276573099	9009
24	44724	368.951046908064	8840
24	44731	369.117213753275	8412
24	44736	369.143357112917	8345
24	44741	369.179947752933	8251
24	44747	369.239300103372	8190
24	44751	369.247847111919	8409
24	44756	369.256171526237	8623
24	44765	369.310079569158	9750
24	44770	369.39781143207	9760
24	44775	369.413470866681	9761
24	44780	369.422816702014	9762
24	44784	369.429987363764	9763
24	44793	369.488869315962	9770
24	44802	369.577556558092	9780
24	44808	369.594092249908	9782
24	44813	369.605118823043	9783
24	44822	369.690055994905	9793
24	44825	369.697203957736	9794
24	44835	369.862698791704	9812
24	44839	369.869832913188	9813
24	44847	369.940663290841	9821
24	44853	370.005863584333	9829
24	44856	370.012985366813	9830
24	44864	370.061887113381	9835
24	44871	370.069004551103	9836
24	44874	370.076121265214	9837
24	44879	370.083237255862	9838
24	44882	370.090352523193	9838
24	44890	370.2146977354	9852
24	44895	370.275682868521	9859
24	44900	370.285539326899	9861
24	44906	370.293791364595	9861
24	44912	370.390116263336	9872
24	44917	370.433105968102	9877
24	44922	370.499208991565	9885
24	44927	370.511195284544	9886
24	44932	370.567542074579	9893
24	44937	370.597364362694	9896
24	44940	370.604437927771	9897
24	44950	370.700801450001	9818
24	44955	370.742981195522	9740
24	44962	370.761000746096	9707
24	44972	370.942072119977	9375
24	44978	370.999985838475	9242
24	44984	371.05197866964	9112
24	44991	371.08081636802	9039
24	44997	371.097880828192	8996
24	45000	371.105662064297	8977
24	45010	371.175902195452	8800
24	45015	371.198266184298	8744
24	45021	371.231468827257	8660
24	45028	371.323499529656	8529
24	45031	371.331706822422	8522
24	45041	371.510398814346	8373
24	45050	371.614844794694	8286
24	45059	371.708087653917	8209
24	45065	371.789703687526	8141
24	45070	371.798554175681	8134
24	45073	371.80716002766	8126
24	45081	371.821103354431	8115
24	45085	371.829729355663	8108
24	45092	371.912129978228	8039
24	45098	371.922585948803	8030
24	45105	371.962946099818	8006
24	45109	372	8013
24	45611	376	9794
24	45617	376.012996305198	9799
24	45629	376.273109704963	9553
24	45636	376.299846122164	9442
24	45642	376.323305911964	9346
24	45647	376.363655846942	9179
24	45652	376.394527902428	9051
24	45658	376.414687578815	8945
24	45663	376.422539785342	8903
24	45669	376.509872301538	8808
24	45676	376.571797200057	8957
24	45682	376.604096946536	9035
24	45688	376.631491625357	9101
24	45693	376.649743800237	9145
24	45699	376.730975222694	9341
24	45706	376.752179860309	9379
24	45712	376.79523409915	9270
24	45723	377.022004586332	9128
24	45726	377.029673297988	9123
24	45734	377.078357049286	9091
24	45740	377.098752043117	9077
24	45745	377.125106300159	9059
24	45752	377.207774788804	9004
24	45759	377.321352502976	8928
24	45765	377.379608361145	8890
24	45773	377.451934399774	8841
24	45778	377.501990344319	8808
24	45783	377.601971465346	8741
24	45788	377.657785535611	8704
24	45793	377.666569718369	8698
24	45800	377.713017861659	8667
24	45806	377.794097927199	8613
24	45811	377.845336890878	8579
24	45817	377.878044200761	8557
24	45822	377.926478841972	8525
24	45826	377.934689985667	8519
24	45833	377.968125043661	8497
24	45836	377.976363245379	8491
24	45844	378.043841266229	8446
24	45849	378.086436504788	8418
24	45854	378.1094980214	8402
24	45859	378.134107655858	8386
24	45864	378.166348211298	8364
24	45867	378.174717412637	8359
24	45874	378.195683222158	8345
24	45879	378.224350860871	8326
24	45885	378.236087033298	8318
24	45894	378.314633790304	9388
24	45900	378.3340560023	9373
24	45907	378.346160324465	9364
24	45910	378.353635762312	9358
24	45920	378.413094382858	9313
24	45925	378.432785611547	9298
24	45930	378.460568789815	9277
24	45935	378.485331423543	9258
24	45940	378.505258190616	9243
24	45943	378.512831489329	9237
24	45951	378.537203232664	9218
24	45957	378.549655483911	9209
24	45963	378.600172221193	9170
24	45968	378.614525784017	9160
24	45973	378.638664257471	9141
24	45978	378.65156849252	9131
24	45984	378.689688764275	9102
24	45990	378.71124496707	9086
24	45993	378.718949127317	9080
24	45998	378.726658378418	9074
24	46008	378.777489171968	9055
24	46013	378.843234643125	9056
24	46018	378.851042734356	9057
24	46023	378.872020038013	9057
24	46028	378.881271351912	9057
24	46031	378.889000180442	9057
24	46039	378.947429555335	9059
24	46044	378.992450396773	9060
24	46054	379.227852854829	9064
24	46059	379.237753953631	9065
24	46066	379.35471983732	9067
24	46069	379.362440141721	9067
24	46076	379.388279422868	9068
24	46081	379.397193438314	9068
24	46086	379.415228612886	9068
24	46091	379.442464524438	9069
24	46096	379.471905942544	9070
24	46101	379.531034281979	9071
24	46107	379.572051071961	9072
24	46115	379.623342526877	9073
24	46120	379.638667992906	9073
24	46123	379.646383191848	9073
24	46132	379.702880068294	9074
24	46140	379.781702148694	9076
24	46143	379.789414797438	9076
24	46151	379.803370937183	9076
24	46159	379.946259355217	9079
24	46164	380	9081
24	46651	384	9449
24	47117	388	8581
24	47613	392	9451
24	48170	396	9699
24	48176	396.090695180739	9698
24	48183	396.183171632565	9697
24	48186	396.190390360006	9697
24	48194	396.203881613168	9697
24	48200	396.269722967332	9696
24	48206	396.311037049242	9696
24	48211	396.368436107606	9695
24	48216	396.376042912243	9695
24	48224	396.455329603929	9694
24	48227	396.462550565348	9694
24	48236	396.504484356209	9694
24	48241	396.52583795142	9694
24	48246	396.543775566693	9693
24	48251	396.563825807033	9693
24	48257	396.58255614635	9693
24	48262	396.602494518279	9693
24	48270	396.711787960229	9692
24	48279	396.757719231733	8007
24	48284	396.779605702138	8038
24	48289	396.798594850572	8065
24	48294	396.882725918281	8185
24	48299	396.955935658121	8289
24	48304	397.028535895433	8392
24	48307	397.03687717284	8404
24	48314	397.068963829015	8450
24	48320	397.088600098043	8600
24	48329	397.210164068093	9078
24	48336	397.265475095783	9180
24	48341	397.283363079753	9185
24	48347	397.329545480661	9197
24	48352	397.337156658219	9199
24	48355	397.344766180993	9202
24	48364	397.407125109055	9219
24	48371	397.436069045957	9335
24	48379	397.508431065492	9600
24	48384	397.526927865846	9600
24	48390	397.537826753785	9600
24	48397	397.58779276911	9600
24	48404	397.672343218317	9600
24	48407	397.679634884984	9600
24	48415	397.777243855683	9600
24	48420	397.832762806458	9600
24	48425	397.88627807747	9600
24	48432	397.917443513427	9600
24	48438	397.954092012462	9600
24	48443	397.970163606897	9600
24	48449	398.019669907553	9600
24	48454	398.088476019961	9600
24	48460	398.139121428112	9600
24	48465	398.149528624276	9600
24	48472	398.244036712358	9600
24	48477	398.252294476015	9600
24	48483	398.265319641798	9600
24	48486	398.272611308465	9600
24	48495	398.390542425806	9600
24	48502	398.489314651384	9600
24	48509	398.638982729526	9600
24	48514	398.672882412623	9600
24	48519	398.685308629391	9600
24	48524	398.721666129573	9600
24	48527	398.72895779624	9600
24	48532	398.736249462907	9600
24	48540	398.789303326538	9600
24	48543	398.796594993205	9600
24	48548	398.803886659872	9600
24	48556	398.821303910281	9600
24	48561	398.835626126021	9600
24	48566	398.871933477626	9600
24	48571	398.880899071454	9600
24	48578	398.941243293188	9600
24	48584	399.038951349281	9600
24	48592	399.07353579668	9598
24	48599	399.1933340494	9554
24	48605	399.282392367383	9520
24	48610	399.301185599189	9513
24	48615	399.324877534648	9504
24	48620	399.345028675018	9497
24	48624	399.352399423675	9494
24	48631	399.377656840074	9485
24	48636	399.405426400375	9474
24	48639	399.412815042976	9472
24	48644	399.420205245679	9469
24	48653	399.493114189218	9442
24	48660	399.512548602576	9434
24	48666	399.550630154232	9420
24	48675	399.761133708424	9341
24	48680	399.778733191947	9335
24	48685	399.876102745463	9298
24	48693	399.908983471941	9286
24	48698	399.922472679383	9281
24	48703	399.967396754161	9264
24	48709	399.990973989844	9255
24	48713	400	9252

