file 1891325 1613479581                                         
version 2
run Exponential-capacity-38-20210216-13:46:20-16904
attr configname Exponential-capacity
attr datetime 20210216-13:46:20
attr experiment Exponential-capacity
attr inifile aerocom.ini
attr iterationvars "$0=2, $1=50, $2=0.5, $3=0.5"
attr iterationvarsf 2,50,0.5,0.5-
attr measurement "$0=2, $1=50, $2=0.5, $3=0.5"
attr network Aerocom
attr processid 16904
attr repetition 2
attr replication #2
attr resultdir results
attr runnumber 38
attr seedset 2
param **.t 2s
param **.k 50ms
param **.X 0.5s
param **.m 0.5s
param **.tDistribution "\"exponential\""
param **.operationMode 0
param **.s "70 byte"
param **.dimPoolMax 10000
param **.dimPoolMin 8000
param **.nDL 10
param **.nA 1
param **.DLMaxCapacity 0
param **.trasmitting false

vector 0 Aerocom.aircraft[0].dataLink[0] actualCapacity:vector ETV
attr "" ""
attr source computeActualCapacity
vector 1 Aerocom.aircraft[0].dataLink[1] actualCapacity:vector ETV
attr "" ""
attr source computeActualCapacity
vector 2 Aerocom.aircraft[0].dataLink[2] actualCapacity:vector ETV
attr "" ""
attr source computeActualCapacity
vector 3 Aerocom.aircraft[0].dataLink[3] actualCapacity:vector ETV
attr "" ""
attr source computeActualCapacity
vector 4 Aerocom.aircraft[0].dataLink[4] actualCapacity:vector ETV
attr "" ""
attr source computeActualCapacity
vector 5 Aerocom.aircraft[0].dataLink[5] actualCapacity:vector ETV
attr "" ""
attr source computeActualCapacity
vector 6 Aerocom.aircraft[0].dataLink[6] actualCapacity:vector ETV
attr "" ""
attr source computeActualCapacity
vector 7 Aerocom.aircraft[0].dataLink[7] actualCapacity:vector ETV
attr "" ""
attr source computeActualCapacity
vector 8 Aerocom.aircraft[0].dataLink[8] actualCapacity:vector ETV
attr "" ""
attr source computeActualCapacity
vector 9 Aerocom.aircraft[0].dataLink[9] actualCapacity:vector ETV
attr "" ""
attr source computeActualCapacity
vector 10 Aerocom.aircraft[0].packetGenerator arrivalTime:vector ETV
attr "" ""
attr source computeArrivalTime
vector 11 Aerocom.aircraft[0].linkSelector waitingTime:vector ETV
attr "" ""
attr source computeWaitingTime
vector 12 Aerocom.aircraft[0].linkSelector queueLength:vector ETV
attr "" ""
attr source computeQueueLength
vector 13 Aerocom.aircraft[0].linkSelector serviceTime:vector ETV
attr "" ""
attr source computeServiceTime
vector 14 Aerocom.aircraft[0].linkSelector responseTime:vector ETV
attr "" ""
attr source computeResponseTime
vector 15 Aerocom.aircraft[0].dataLink[0] tDistribution:vector ETV
attr "" ""
attr source computeTDistribution
vector 16 Aerocom.aircraft[0].dataLink[5] tDistribution:vector ETV
attr "" ""
attr source computeTDistribution
vector 17 Aerocom.aircraft[0].dataLink[2] tDistribution:vector ETV
attr "" ""
attr source computeTDistribution
vector 18 Aerocom.aircraft[0].dataLink[9] tDistribution:vector ETV
attr "" ""
attr source computeTDistribution
vector 19 Aerocom.aircraft[0].dataLink[8] tDistribution:vector ETV
attr "" ""
attr source computeTDistribution
vector 20 Aerocom.aircraft[0].dataLink[1] tDistribution:vector ETV
attr "" ""
attr source computeTDistribution
vector 21 Aerocom.aircraft[0].dataLink[6] tDistribution:vector ETV
attr "" ""
attr source computeTDistribution
vector 22 Aerocom.aircraft[0].dataLink[3] tDistribution:vector ETV
attr "" ""
attr source computeTDistribution
vector 23 Aerocom.aircraft[0].dataLink[7] tDistribution:vector ETV
attr "" ""
attr source computeTDistribution
vector 24 Aerocom.aircraft[0].dataLink[4] tDistribution:vector ETV
attr "" ""
attr source computeTDistribution
0	3622 34519 1086 43831 10 400 1434 8011 9984 13349869 124658435205
1	38141 31820 1086 43831 10 400 1350 8058 9992 12533872 116704116284
2	69961 34097 1086 43831 10 400 1425 8019 9972 13269617 123886675205
3	104058 43598 1086 43831 10 400 1732 8035 9993 16226443 152447653859
4	147656 30588 1086 43831 10 400 1309 8050 9948 12120755 112541982645
5	178244 41123 1086 43831 10 400 1650 8009 9963 15455622 145174851688
6	219367 51391 1086 43831 10 400 2002 8014 9985 18929216 179400132418
7	270758 40885 1086 43831 10 400 1647 8050 9977 15368947 143786418549
8	311643 37639 1086 43831 10 400 1549 8018 9985 14495861 135972519457
9	349282 31986 1086 43831 10 400 1355 8064 9975 12528994 116167205158
10	381268 315912 1088 43823 10.009046581726 399.97097773048 7643 1.717179e-006 0.55693822094 390.06880740153 39.713779780724
11	697180 231707 1089 43825 10.009046581726 399.972579627325 7643 0 0.024965138228 4.524079185899 0.027289161745876
12	928887 217370 1089 43825 10.009046581726 399.972579627325 7643 0 3 91 107
13	1146257 346369 1089 43825 10.009046581726 399.972579627325 7643 0.0070049034324027 0.008695652173913 55.393721711085 0.40170490752416
14	1492626 316056 1090 43828 10.016112292839 399.979711568232 7643 0.007004903432 0.032363151333 59.917800896805 0.49451043661329
15	1808682 7189 1098 43820 10.03811018219 399.878397220879 168 0.0036094664976787 17.797918339339 389.98354667749 1937.7865044186
16	1815871 8533 1109 43654 10.07210134922 398.753699240805 200 0.011384425402896 10.683453574358 394.16238826281 1446.9060972634
17	1824404 8728 1115 43708 10.156399251049 399.320729344979 204 0.0064162123800635 8.0914965480683 392.4426179407 1374.3217599403
18	1833132 8524 1188 43426 10.819748911723 396.842962390983 199 0.0071136829881651 9.1989595010915 389.72029710402 1442.2024279013
19	1841656 8670 1194 43762 10.883653582273 399.55147264292 203 0.0018564521835412 10.292266746282 390.76148241442 1466.2212869651
20	1850326 8624 1338 43626 12.301861684204 398.479601218204 202 0.023568902198615 11.397805116473 391.6546106686 1444.1664301061
21	1858950 7522 1448 43584 13.016051670226 398.145200931154 176 0.016686175152747 15.414290325557 387.40772536497 1777.326920931
22	1866472 8959 1512 43819 13.464600362358 399.878088104899 209 0.0043568394680401 11.699003843561 386.84841633071 1536.7232396436
23	1875431 7837 1629 43526 14.88013127667 397.630326923909 183 0.0014883428637058 11.688337911536 387.76154702311 1680.6119957314
24	1883268 8055 1931 43763 17.359049821192 399.590343441671 188 0.0023583069883165 11.802727022865 383.97632185082 1559.2537441288

