version 2
run Exponential-capacity-6-20210215-11:02:28-8188
attr configname Exponential-capacity
attr datetime 20210215-11:02:28
attr experiment Exponential-capacity
attr inifile aerocom.ini
attr iterationvars "$0=35, $1=1"
attr iterationvarsf 35,1-
attr measurement "$0=35, $1=1"
attr network Aerocom
attr processid 8188
attr repetition 0
attr replication #0
attr resultdir results
attr runnumber 6
attr seedset 0
param **.t 1s
param **.k 35ms
param **.X 0.4s
param **.m 1s
param **.tDistribution "\"exponential\""
param **.operationMode 0
param **.s "70 byte"
param **.dimPoolMax 10000
param **.dimPoolMin 8000
param **.nDL 1
param **.nA 1
param **.DLMaxCapacity 0
param **.trasmitting false

vector 0 Aerocom.aircraft[0].dataLink[0] actualCapacity:vector ETV
attr "" ""
attr source computeActualCapacity
vector 1 Aerocom.aircraft[0].packetGenerator arrivalTime:vector ETV
attr "" ""
attr source computeArrivalTime
vector 2 Aerocom.aircraft[0].dataLink[0] tDistribution:vector ETV
attr "" ""
attr source computeTDistribution
vector 3 Aerocom.aircraft[0].linkSelector waitingTime:vector ETV
attr "" ""
attr source computeWaitingTime
vector 4 Aerocom.aircraft[0].linkSelector queueLength:vector ETV
attr "" ""
attr source computeQueueLength
vector 5 Aerocom.aircraft[0].linkSelector serviceTime:vector ETV
attr "" ""
attr source computeServiceTime
vector 6 Aerocom.aircraft[0].linkSelector responseTime:vector ETV
attr "" ""
attr source computeResponseTime
0	1491	10	8763
0	1511	10.4	8799
0	1512	10.407955449483	8804
0	1515	10.415906380878	8808
0	1520	10.423853701496	8812
0	1523	10.431797414614	8817
0	1528	10.439736622962	8821
0	1531	10.44767223117	8825
0	1534	10.455604242501	8829
0	1537	10.463532660215	8834
0	1540	10.471456590484	8838
0	1543	10.479376934453	8842
0	1548	10.487293695367	8847
0	1555	10.502838141564	8855
0	1560	10.739626809762	8983
0	1565	10.80401745724	9018
0	1568	10.811779710511	9022
0	1575	10.891939115416	9065
0	1580	10.962845924015	9103
0	1585	10.970535696617	9107
0	1588	10.978222091698	9112
0	1595	10.995239348549	9121
0	1596	11	9123
0	1627	11.402913945633	9336
0	1628	11.410411803388	9332
0	1631	11.41791287497	9328
0	1634	11.425417163135	9323
0	1637	11.43292547591	9319
0	1640	11.440437011482	9315
0	1643	11.44795177262	9311
0	1646	11.455469762095	9306
0	1649	11.462991790894	9302
0	1652	11.470517054278	9298
0	1655	11.478045555031	9294
0	1658	11.485577295939	9289
0	1661	11.493113090965	9285
0	1668	11.503229368264	9279
0	1673	11.545069718084	9256
0	1678	11.561424257908	9246
0	1683	11.582574725423	9234
0	1688	11.601644724908	9224
0	1693	11.646456422041	9198
0	1696	11.654066772117	9194
0	1703	11.718720407134	9157
0	1708	11.734642321702	9148
0	1721	11.864490942419	9075
0	1724	11.870517054278	9072
0	1737	11.932858017541	9036
0	1742	11.942039543362	9031
0	1745	11.949790622977	9027
0	1755	11.993124749349	9002
0	1756	12	8998
0	1762	12.009233623434	8993
0	1769	12.109705009391	8936
0	1776	12.155530452132	8910
0	1781	12.204050649453	8883
0	1784	12.211930870099	8879
0	1791	12.225152412579	8871
0	1796	12.250917001079	8857
0	1802	12.274453119168	8843
0	1805	12.278233103661	8841
0	1813	12.290897833313	8834
0	1816	12.298821763582	8829
0	1823	12.306750181296	8825
0	1828	12.314682192627	8821
0	1831	12.322617800835	8816
0	1842	12.368093688389	8825
0	1847	12.389884595428	9009
0	1852	12.398757295108	9084
0	1859	12.471418382223	9697
0	1864	12.48624638077	9822
0	1872	12.587205430864	9658
0	1881	12.679333091053	9453
0	1890	12.712132946173	9380
0	1898	12.75479083429	9285
0	1904	12.786569575246	9214
0	1907	12.794166710041	9197
0	1916	12.841281156328	9092
0	1920	12.848980232439	9077
0	1927	12.871841655216	9098
0	1934	12.905843530749	9130
0	1937	12.913510562512	9137
0	1944	12.937784759736	9160
0	1949	12.979818741465	9198
0	1954	12.989327123927	9207
0	1959	13	9217
0	1963	13.160096775007	9365
0	1972	13.255343963964	9454
0	1978	13.266227837138	9464
0	1984	13.299541876902	9495
0	1991	13.339322754236	9531
0	1997	13.366170542146	9556
0	2005	13.436071561008	9621
0	2010	13.4672698112	9650
0	2016	13.515908508432	9681
0	2021	13.56175099643	9555
0	2026	13.678578698115	9233
0	2031	13.691664725472	9197
0	2036	13.719944027341	9120
0	2041	13.737719306635	9071
0	2046	13.746075657185	9048
0	2051	13.754319017255	9025
0	2056	13.763124968714	9001
0	2059	13.77090188239	8979
0	2066	13.778976164819	8957
0	2072	13.880093810535	8825
0	2077	13.909598067675	8819
0	2082	13.956685227838	8809
0	2087	13.977743992366	8805
0	2091	14	8800
0	2118	14.4	8715
0	2119	14.408032128514	8714
0	2122	14.416065178778	8712
0	2125	14.424100073177	8710
0	2128	14.432136812557	8708
0	2131	14.440175397766	8707
0	2134	14.448214906207	8705
0	2137	14.45625626175	8703
0	2140	14.464299465243	8702
0	2143	14.47234359303	8700
0	2146	14.480389570041	8698
0	2149	14.488437397128	8697
0	2154	14.496486149571	8695
0	2157	14.504536753366	8693
0	2162	14.512589209365	8691
0	2169	14.54488920531	8685
0	2172	14.552949078655	8683
0	2179	14.579187226278	8677
0	2182	14.587254530646	8676
0	2189	14.647554423435	8663
0	2192	14.655634765118	8661
0	2199	14.697658652274	8652
0	2204	14.737472499968	8644
0	2209	14.760265575585	8639
0	2214	14.781425918227	8635
0	2219	14.820988362334	8626
0	2225	14.847907555372	8644
0	2230	14.880599667013	8669
0	2235	14.960044067565	8730
0	2239	15	8760
0	2262	15.4	9067
0	2263	15.407720304401	9073
0	2268	15.415435503343	9079
0	2271	15.423145603574	9085
0	2274	15.430850611829	9091
0	2277	15.43855053483	9096
0	2280	15.446246225243	9102
0	2283	15.45393684269	9108
0	2286	15.461622393854	9114
0	2289	15.469302885405	9120
0	2292	15.476978324001	9126
0	2295	15.484648716287	9132
0	2300	15.492314068893	9138
0	2307	15.502963590098	9146
0	2312	15.585138121748	9209
0	2317	15.60206546531	9222
0	2322	15.638390217952	9250
0	2327	15.669452785449	9273
0	2332	15.683192841436	9284
0	2337	15.745427858225	9332
0	2342	15.771095726786	9351
0	2348	15.805798377037	9367
0	2351	15.813271420701	9366
0	2358	15.877929057784	9354
0	2363	15.891010773068	9351
0	2368	15.902195885989	9349
0	2373	15.921591865006	9346
0	2378	15.97758204547	9335
0	2382	16	9331
0	2401	16.4	9256
0	2402	16.407562662057	9254
0	2405	16.415126958577	9253
0	2408	16.422692072594	9251
0	2411	16.430258822135	9250
0	2414	16.437826389703	9248
0	2417	16.445395593855	9247
0	2420	16.452965616565	9246
0	2425	16.46053645801	9244
0	2430	16.468108937456	9243
0	2433	16.475682236169	9241
0	2440	16.513467905667	9234
0	2445	16.587764038555	9220
0	2450	16.598017339602	9218
0	2455	16.611192366905	9216
0	2460	16.619589690085	9214
0	2465	16.730088034035	9193
0	2470	16.755646002318	9189
0	2475	16.777982603514	9184
0	2478	16.785604554734	9183
0	2485	16.822409801824	9176
0	2490	16.830548177467	9174
0	2493	16.838178436896	9173
0	2500	16.855738132883	9170
0	2505	16.901622165769	9161
0	2510	16.918025842428	9158
0	2515	16.954398039708	9151
0	2520	16.97619706555	9147
0	2525	16.984664253117	9145
0	2530	16.996046813746	9143
0	2531	17	9143
0	2561	17.403702944119	9067
0	2564	17.41142324852	9065
0	2567	17.419145256242	9064
0	2570	17.426868115907	9062
0	2575	17.434592680021	9061
0	2578	17.442318096642	9059
0	2581	17.450045218841	9058
0	2586	17.457773194111	9056
0	2589	17.46550287609	9055
0	2592	17.473233411706	9053
0	2595	17.480965655161	9052
0	2598	17.488698752819	9051
0	2601	17.496432704868	9049
0	2605	17.504168366267	9045
0	2608	17.511907448633	9038
0	2611	17.519652524977	9032
0	2616	17.527402746412	9025
0	2621	17.535158979099	9018
0	2628	17.54292123237	9012
0	2633	17.550688653586	9005
0	2636	17.558462112775	8999
0	2643	17.572000610468	8987
0	2646	17.579789639065	8980
0	2653	17.59204847095	8970
0	2658	17.636863323339	8932
0	2663	17.735585581534	8848
0	2666	17.743496973939	8841
0	2673	17.787402418914	8804
0	2682	17.835504424419	8763
0	2693	17.883838132767	8722
0	2696	17.888698752819	8717
0	2714	17.969156220133	8649
0	2719	17.977738153375	8642
0	2723	17.985838130232	8635
0	2731	18	8623
0	2734	18.044700313935	8585
0	2739	18.057321741797	8574
0	2744	18.103368660837	8535
0	2749	18.134106188592	8509
0	2752	18.142332772209	8502
0	2763	18.250137633649	8410
0	2767	18.258461058144	8410
0	2774	18.270443773803	8415
0	2779	18.282279188823	8420
0	2785	18.291922666619	8424
0	2791	18.331504813391	8440
0	2798	18.339798652254	8444
0	2801	18.348088562249	8447
0	2804	18.356375528036	8451
0	2811	18.366452563836	8455
0	2820	18.459292111879	8493
0	2823	18.467534193593	8497
0	2830	18.498411359129	8510
0	2835	18.561060995286	8536
0	2840	18.614885000293	8558
0	2845	18.760343988638	8619
0	2850	18.771925834479	8623
0	2855	18.814475001047	8641
0	2860	18.84537582012	8654
0	2863	18.853464565209	8657
0	2868	18.861550507221	8661
0	2875	18.879843144126	8668
0	2880	18.90311141536	8678
0	2885	18.933511215961	8691
0	2889	19	8718
0	2908	19.4	8885
0	2910	19.40787844682	8922
0	2913	19.41572422131	8969
0	2916	19.423528881807	9016
0	2919	19.431292856962	9063
0	2922	19.439016568757	9109
0	2925	19.446701276189	9155
0	2928	19.454347371219	9201
0	2931	19.461955239929	9247
0	2936	19.469525262639	9293
0	2944	19.572233790224	9707
0	2949	19.595956860296	9662
0	2954	19.695239267064	9476
0	2959	19.739242561909	9393
0	2964	19.795433618616	9288
0	2969	19.818738105648	9244
0	2974	19.853579333166	9178
0	2979	19.896730149372	9097
0	2984	19.969311800581	8961
0	2989	19.993442009406	8916
0	2990	20	8903
0	3013	20.40129306369	8366
0	3014	20.409660264264	8361
0	3017	20.418032468546	8357
0	3020	20.426408680105	8352
0	3023	20.434789906159	8347
0	3028	20.443176152715	8342
0	3033	20.451567425791	8338
0	3036	20.459962724424	8333
0	3039	20.468363060437	8328
0	3042	20.47676843988	8324
0	3045	20.485177858429	8319
0	3052	20.50161777496	8310
0	3057	20.641896012881	8231
0	3062	20.7889610928	8148
0	3068	20.811738999783	8135
0	3079	20.860762649177	8108
0	3086	20.884840670923	8094
0	3089	20.885177858429	8094
0	3099	20.920689190247	8074
0	3104	20.931679116679	8068
0	3109	20.947771812801	8059
0	3115	20.966268165792	8064
0	3118	20.974948721348	8074
0	3125	20.990986310548	8092
0	3129	21	8102
0	3132	21.051418478839	8161
0	3137	21.063794358973	8176
0	3140	21.072356002809	8185
0	3147	21.089108036552	8205
0	3152	21.114169622682	8233
0	3155	21.122671991199	8243
0	3160	21.131164045063	8253
0	3169	21.265727493594	8407
0	3172	21.269396097623	8412
0	3180	21.287569145062	8432
0	3190	21.356935307001	8512
0	3197	21.3864100776	8546
0	3204	21.512723012774	8691
0	3209	21.527457778206	8708
0	3214	21.640856482048	8838
0	3219	21.69529178466	8900
0	3224	21.778255349981	8995
0	3229	21.796804005256	9017
0	3235	21.848864046658	9078
0	3240	21.864444273537	9099
0	3245	21.878625674419	9117
0	3250	21.896475353604	9141
0	3253	21.904133159096	9152
0	3260	21.912010922495	9162
0	3265	21.930314790373	9186
0	3270	21.98255691612	9256
0	3275	21.991806382365	9268
0	3279	22	9279
0	3305	22.4	9475
0	3306	22.407387862797	9478
0	3309	22.414773387169	9481
0	3312	22.422156574596	9484
0	3317	22.429537426557	9487
0	3322	22.436915944529	9490
0	3327	22.444292129987	9492
0	3332	22.451666761255	9495
0	3335	22.459039062466	9498
0	3338	22.466409035092	9501
0	3341	22.473776680603	9504
0	3344	22.481142000468	9506
0	3349	22.488505770718	9509
0	3352	22.495867217768	9512
0	3355	22.503226343083	9515
0	3358	22.510583148128	9518
0	3361	22.517937634365	9521
0	3366	22.525289803255	9523
0	3373	22.581427749758	9545
0	3378	22.591281090544	9549
0	3383	22.611087399501	9556
0	3388	22.630185419518	9564
0	3393	22.679005837712	9582
0	3398	22.707531479293	9593
0	3403	22.769468173105	9617
0	3408	22.838420187901	9643
0	3413	22.855096938292	9650
0	3418	22.900542535538	9667
0	3421	22.907783665154	9670
0	3428	22.915126829481	9673
0	3433	22.925483395045	9677
0	3436	22.932717041836	9679
0	3443	22.961788793176	9690
0	3446	22.969012735384	9693
0	3453	22.986433736454	9700
0	3458	22.998997382597	9705
0	3459	23	9705
0	3492	23.406210159516	9769
0	3495	23.413375683111	9764
0	3498	23.420544876065	9760
0	3501	23.427717007213	9755
0	3504	23.434892814491	9751
0	3507	23.442071565388	9746
0	3510	23.449253999207	9741
0	3513	23.456440119729	9737
0	3516	23.463629192339	9732
0	3523	23.470821958471	9727
0	3528	23.478018421923	9723
0	3531	23.485217845969	9718
0	3534	23.492420974185	9713
0	3537	23.499627810384	9709
0	3540	23.506837615719	9704
0	3545	23.514051135917	9699
0	3548	23.521268374808	9695
0	3551	23.528488591414	9690
0	3554	23.535712533622	9685
0	3561	23.551909386227	9675
0	3566	23.560009120245	9670
0	3571	23.612796653352	9636
0	3576	23.678565798549	9593
0	3581	23.731150246329	9559
0	3586	23.77117941805	9533
0	3591	23.78169079586	9527
0	3594	23.789038334435	9522
0	3601	23.804950687729	9512
0	3604	23.812309813044	9507
0	3615	23.838486979194	9490
0	3618	23.842071565388	9488
0	3627	23.849978153197	9483
0	3642	23.927891092827	9432
0	3650	23.944109743791	9422
0	3653	23.951539164296	9417
0	3658	23.958972529487	9412
0	3666	24	9386
0	3669	24.020061078425	9373
0	3674	24.031228316145	9366
0	3680	24.121964017452	9307
0	3683	24.129485238039	9302
0	3691	24.167517621136	9278
0	3701	24.223812245854	9241
0	3707	24.247435529932	9226
0	3711	24.255022783346	9221
0	3719	24.272425914317	9210
0	3724	24.298030001187	9193
0	3733	24.373038490702	9145
0	3738	24.385864285916	9137
0	3744	24.409322401596	9122
0	3749	24.439480763809	9102
0	3754	24.458219916097	9090
0	3759	24.570388225133	9018
0	3762	24.578150478404	9013
0	3769	24.613387165033	8990
0	3774	24.635958962224	8975
0	3777	24.643758405121	8970
0	3784	24.690798755928	8940
0	3789	24.710497637992	8927
0	3794	24.738949080633	8909
0	3799	24.763917530531	8893
0	3802	24.771788890027	8888
0	3809	24.796903228109	8872
0	3812	24.804793219092	8866
0	3819	24.842371061871	8842
0	3825	24.879061180544	8840
0	3830	24.890442161011	8843
0	3835	24.917561644294	8850
0	3838	24.925471248814	8852
0	3845	24.93618202243	8855
0	3850	24.95363625408	8860
0	3853	24.961536931281	8862
0	3859	25	8872
0	3881	25.4	8939
0	3882	25.407830853563	8940
0	3889	25.415660831192	8941
0	3892	25.423489933082	8942
0	3895	25.43131815943	8943
0	3900	25.439145510431	8943
0	3903	25.446972861432	8944
0	3906	25.454799337282	8945
0	3909	25.462624938176	8946
0	3912	25.470449664311	8947
0	3915	25.478273515881	8948
0	3918	25.486096493083	8948
0	3923	25.493919470285	8949
0	3926	25.501741573313	8950
0	3933	25.536843385663	8954
0	3938	25.610225655236	8962
0	3943	25.628047742276	8963
0	3946	25.635857627359	8964
0	3953	25.713517362996	8972
0	3958	25.732965424957	8974
0	3963	25.77395965428	8979
0	3968	25.796393728364	8981
0	3973	25.838488710798	8986
0	3978	25.868867660169	8989
0	3983	25.88276549342	8990
0	3988	25.926852934392	8995
0	3993	25.976335350926	9000
0	3996	25.984113128704	9001
0	4002	26	9003
0	4029	26.4	9045
0	4030	26.407739082366	9046
0	4033	26.415477309207	9047
0	4036	26.423214680711	9047
0	4039	26.430952052215	9048
0	4042	26.438688568572	9049
0	4045	26.446424229971	9050
0	4048	26.454159036601	9051
0	4051	26.46189298865	9051
0	4054	26.469626940699	9052
0	4057	26.477360038357	9053
0	4060	26.485092281812	9054
0	4063	26.492823671253	9055
0	4068	26.500554206869	9055
0	4075	26.568601092779	9063
0	4080	26.597161742518	9066
0	4085	26.618548757163	9068
0	4088	26.626268210185	9069
0	4095	26.728326063452	9080
0	4100	26.762346444639	9083
0	4105	26.79235667323	9086
0	4110	26.86193455415	9094
0	4115	26.922101980063	9100
0	4118	26.929794287755	9101
0	4124	27	9108
0	4144	27.4	9012
0	4145	27.407767421216	9010
0	4148	27.41553656661	9007
0	4151	27.423308299706	9005
0	4154	27.431081758895	9002
0	4157	27.438857808662	9000
0	4160	27.44663558644	8997
0	4167	27.454415957675	8995
0	4170	27.462198058842	8992
0	4173	27.469982756351	8990
0	4176	27.477769185717	8987
0	4183	27.545552177144	8965
0	4188	27.564861803585	8959
0	4193	27.585619659491	8952
0	4198	27.596096152876	8949
0	4203	27.641625462837	8934
0	4208	27.707800983242	8913
0	4213	27.755251131227	8897
0	4216	27.763118951841	8895
0	4221	27.770988541498	8892
0	4229	27.881052992087	8850
0	4232	27.888962596607	8843
0	4239	27.900885761666	8833
0	4244	27.9214226699	8816
0	4249	27.936863088276	8803
0	4254	27.954265413298	8788
0	4257	27.962230820672	8781
0	4264	27.981405395336	8765
0	4267	27.98939170452	8758
0	4273	28	8749
0	4292	28.4	8408
0	4293	28.408325404377	8401
0	4296	28.416657745765	8394
0	4299	28.424997035734	8387
0	4302	28.433343285883	8379
0	4305	28.441697504764	8372
0	4312	28.450058708777	8365
0	4315	28.458426909614	8358
0	4318	28.466802118994	8351
0	4325	28.475184348667	8344
0	4328	28.483573610412	8337
0	4335	28.491969916038	8330
0	4340	28.500373277383	8322
0	4345	28.508784716941	8315
0	4348	28.517203237687	8308
0	4351	28.525628851553	8301
0	4354	28.534061570503	8294
0	4359	28.542501406529	8286
0	4367	28.604287581029	8443
0	4370	28.612578472892	8469
0	4377	28.631326968959	8526
0	4380	28.639537149583	8551
0	4387	28.65706505971	8605
0	4392	28.676665352777	8664
0	4397	28.713392328584	8777
0	4400	28.721367718808	8801
0	4407	28.743389464993	8868
0	4412	28.753549034522	8899
0	4415	28.761415086887	8923
0	4420	28.769259982102	8947
0	4427	28.793827618028	9022
0	4432	28.804045730539	9054
0	4437	28.855650508406	9211
0	4440	28.863250117569	9234
0	4447	28.877086041571	9277
0	4450	28.884631584311	9300
0	4457	28.901147320604	9350
0	4460	28.90863395162	9373
0	4466	29	9652
0	4482	29.4	9620
0	4483	29.407276507277	9614
0	4486	29.414557555748	9608
0	4491	29.421843151085	9602
0	4496	29.429133298971	9597
0	4501	29.436427244996	9591
0	4504	29.443725754015	9585
0	4507	29.451028831741	9579
0	4510	29.458336483897	9573
0	4513	29.465648716217	9568
0	4520	29.497405549577	9543
0	4525	29.533043164835	9514
0	4530	29.590624584783	9469
0	4535	29.614212605331	9450
0	4540	29.64997274749	9422
0	4545	29.809146582305	9296
0	4550	29.825212559767	9283
0	4553	29.8327532255	9277
0	4560	29.840703423267	9271
0	4565	29.894216283742	9229
0	4570	29.950869421067	9184
0	4575	29.962777723753	9175
0	4578	29.970407151546	9169
0	4583	29.978041571875	9163
0	4589	30	9145
0	4612	30.4	8829
0	4613	30.407928417714	8823
0	4618	30.415862227076	8816
0	4621	30.423802335969	8810
0	4626	30.431747852428	8804
0	4629	30.439698783823	8798
0	4634	30.44765513754	8791
0	4637	30.455617826654	8785
0	4640	30.463585954144	8779
0	4643	30.471559527444	8772
0	4646	30.479539463605	8766
0	4649	30.487524861734	8760
0	4652	30.495515729314	8753
0	4657	30.503512987397	8747
0	4660	30.511515731195	8741
0	4667	30.544407218685	8715
0	4672	30.591316877354	8678
0	4677	30.610073335191	8663
0	4682	30.630816344819	8646
0	4687	30.64646624141	8634
0	4692	30.767938819229	8538
0	4697	30.829681877956	8489
0	4702	30.845475235903	8477
0	4707	30.936119150995	8405
0	4713	30.953854463481	8429
0	4716	30.962159125956	8479
0	4722	31	8704
0	4743	31.4	9592
0	4744	31.407297748123	9592
0	4747	31.414595496246	9591
0	4750	31.421894005265	9591
0	4753	31.429192514284	9591
0	4756	31.436491023303	9590
0	4759	31.443790293376	9590
0	4762	31.451089563449	9590
0	4765	31.458388833522	9589
0	4772	31.500521801734	9587
0	4777	31.542328949757	9585
0	4782	31.62469566664	9581
0	4787	31.704275417474	9577
0	4792	31.716587275964	9577
0	4795	31.723896454204	9576
0	4802	31.890143832254	9568
0	4807	31.899820377333	9568
0	4812	31.909862195671	9567
0	4817	31.918931124627	9567
0	4820	31.926247942856	9566
0	4827	31.946382585138	9565
0	4831	32	9563
0	4852	32.4	9543
0	4853	32.407335219533	9543
0	4856	32.414670439066	9543
0	4859	32.422005658599	9542
0	4864	32.429341646861	9542
0	4867	32.436677635123	9542
0	4870	32.444013623385	9541
0	4873	32.451350380538	9541
0	4876	32.458687137691	9541
0	4881	32.466023894844	9540
0	4886	32.473361421049	9540
0	4891	32.480698947254	9539
0	4894	32.488037242673	9539
0	4899	32.495375538092	9539
0	4902	32.502713833511	9538
0	4909	32.51053752345	9538
0	4914	32.526948258897	9537
0	4919	32.540673904034	9537
0	4924	32.589024971829	9534
0	4929	32.628917811062	9532
0	4934	32.638422263771	9532
0	4939	32.69397976681	9529
0	4942	32.701325763242	9529
0	4949	32.725116124985	9528
0	4954	32.745995372076	9527
0	4959	32.75829161693	9526
0	4964	32.770999376336	9525
0	4969	32.846992282183	9522
0	4974	32.910955701557	9519
0	4979	32.926133971495	9518
0	4984	32.93563542032	9517
0	4989	32.982566980681	9515
0	4993	33	9514
0	5010	33.4	9495
0	5013	33.407372301211	9494
0	5016	33.414745378944	9494
0	5021	33.422118456677	9494
0	5024	33.42949153441	9493
0	5027	33.436865388829	9493
0	5030	33.444239243248	9493
0	5033	33.451613097667	9492
0	5036	33.458987728935	9492
0	5043	33.466362360203	9492
0	5046	33.473736991471	9491
0	5049	33.481112399753	9491
0	5056	33.507801961672	9489
0	5059	33.515178924471	9489
0	5066	33.633874993596	9483
0	5069	33.641256623882	9483
0	5076	33.820303282348	9474
0	5081	33.863378442134	9472
0	5086	33.884418854757	9471
0	5091	33.927632650419	9469
0	5094	33.93502519451	9469
0	5101	33.963318934573	9467
0	5106	33.975444101035	9467
0	5110	34	9466
0	5137	34.4	9446
0	5138	34.407410544146	9446
0	5141	34.414821088292	9445
0	5144	34.422232417037	9445
0	5147	34.429643745782	9445
0	5150	34.437055074527	9444
0	5153	34.444467188038	9444
0	5156	34.451879301549	9444
0	5159	34.45929141506	9443
0	5162	34.466704313503	9443
0	5165	34.474117211946	9442
0	5168	34.481530895488	9442
0	5171	34.48894457903	9442
0	5178	34.496358262572	9441
0	5181	34.503772731378	9441
0	5188	34.519339452943	9440
0	5193	34.655521306107	9434
0	5198	34.666768216707	9433
0	5201	34.674188973624	9433
0	5208	34.703790623621	9431
0	5213	34.714267978724	9431
0	5219	34.793742832483	9483
0	5224	34.802238922791	9489
0	5229	34.820512818445	9502
0	5234	34.850868039104	9524
0	5239	34.878977826121	9544
0	5243	35	9631
0	5272	35.4	9918
0	5273	35.407057874571	9923
0	5276	35.414112192822	9928
0	5279	35.421162958334	9933
0	5283	35.428210174684	9932
0	5286	35.43525810058	9925
0	5289	35.442310997305	9918
0	5292	35.449368871876	9912
0	5295	35.456431018769	9905
0	5298	35.463498156578	9898
0	5303	35.470570292363	9892
0	5306	35.477646717757	9885
0	5309	35.484728154277	9879
0	5312	35.4918138917	9872
0	5319	35.49890465345	9865
0	5322	35.506000446658	9859
0	5325	35.513100558231	9852
0	5332	35.544018714383	9823
0	5337	35.578407206378	9791
0	5342	35.592607628413	9777
0	5347	35.60660046295	9764
0	5352	35.696869422528	9679
0	5358	35.816391794113	9026
0	5364	35.885790234423	8571
0	5367	35.893957309443	8561
0	5372	35.902133924324	8550
0	5379	35.97511224825	8455
0	5384	35.985351519292	8442
0	5389	35.999364872893	8424
0	5390	36	8423
0	5417	36.407674464536	8666
0	5418	36.415752008962	8683
0	5421	36.423813738779	8700
0	5424	36.43185971579	8717
0	5429	36.439890001439	8735
0	5432	36.447903739275	8752
0	5435	36.455901911121	8769
0	5438	36.463884577332	8786
0	5441	36.47185179791	8803
0	5446	36.479803632512	8820
0	5449	36.487740140449	8837
0	5452	36.495661380689	8854
0	5455	36.503567411861	8871
0	5462	36.553704252732	8979
0	5467	36.561730353739	8996
0	5472	36.60129635568	9081
0	5477	36.615929563743	9112
0	5482	36.651592925081	9189
0	5487	36.691064540256	9274
0	5492	36.718885089518	9333
0	5498	36.792871828031	9241
0	5503	36.804015583593	9210
0	5510	36.831475067985	9132
0	5514	36.839140420591	9111
0	5523	36.848721133568	9084
0	5537	36.916622820914	9394
0	5540	36.924074385743	9446
0	5547	36.952977856886	9650
0	5555	36.996344134644	9748
0	5556	37	9748
0	5562	37.009004757838	9747
0	5565	37.01618645477	9746
0	5573	37.030667732225	9745
0	5578	37.04698812815	9743
0	5581	37.054172773536	9742
0	5589	37.074323109094	9740
0	5595	37.102903853204	9737
0	5602	37.192240530478	9740
0	5608	37.207923609371	9747
0	5611	37.211616017904	9748
0	5619	37.23565538315	9759
0	5626	37.25388264342	9767
0	5632	37.261049634308	9770
0	5635	37.268214424482	9773
0	5642	37.279981369065	9778
0	5647	37.294663145386	9784
0	5656	37.377483304621	9774
0	5662	37.411554843649	9768
0	5665	37.41618645477	9767
0	5670	37.423306387648	9766
0	5684	37.544735172005	9742
0	5689	37.552974377333	9741
0	5694	37.594066832121	9733
0	5697	37.599427388794	9732
0	5702	37.602035451532	9731
0	5712	37.632160466295	9725
0	5718	37.644136580502	9723
0	5726	37.685728101112	9715
0	5733	37.71283618869	9710
0	5738	37.751847573795	9702
0	5744	37.796923732164	9694
0	5752	37.900986024046	9674
0	5757	37.918221472219	9670
0	5760	37.925460355363	9669
0	5765	37.932699987176	9668
0	5774	37.96379623942	9662
0	5779	37.985031173744	9658
0	5784	38	9634
0	5789	38.017135686636	9606
0	5798	38.14238324704	9401
0	5804	38.173481751971	9350
0	5810	38.236295310961	9247
0	5819	38.35146802002	9058
0	5827	38.437660569449	8917
0	5830	38.445510743274	8904
0	5837	38.476772514847	8853
0	5842	38.518503566945	8785
0	5847	38.538838869886	8751
0	5852	38.597648753889	8655
0	5857	38.638090369395	8589
0	5862	38.663043846164	8548
0	5867	38.699647731412	8488
0	5872	38.713872181748	8464
0	5875	38.722142503109	8451
0	5882	38.769668774413	8373
0	5887	38.857864878698	8229
0	5890	38.866371380095	8215
0	5897	38.888811395842	8178
0	5903	38.909232501873	8197
0	5907	39	8359
0	5932	39.4	9073
0	5933	39.407715198942	9087
0	5936	39.415418511366	9100
0	5939	39.423110819058	9114
0	5942	39.430791310609	9128
0	5945	39.438460022265	9142
0	5948	39.446116990106	9155
0	5951	39.453763085136	9169
0	5954	39.461397505465	9183
0	5959	39.469020286691	9196
0	5962	39.476632291911	9210
0	5965	39.484232726222	9223
0	5968	39.491822447571	9237
0	5975	39.544052963434	9330
0	5980	39.618293369424	9463
0	5985	39.652050861086	9523
0	5990	39.665979054899	9548
0	5993	39.673310433198	9561
0	6000	39.689130734215	9589
0	6006	39.827081788177	9047
0	6011	39.854615697218	8878
0	6016	39.926507534153	8434
0	6021	39.96052924805	8224
0	6027	39.984980372893	8079
0	6031	40	8107
0	6052	40.4	8331
0	6053	40.408402352659	8329
0	6056	40.416806722932	8328
0	6059	40.425212102375	8327
0	6062	40.433618491231	8326
0	6065	40.442025889742	8324
0	6068	40.450435308291	8323
0	6071	40.458845737223	8322
0	6074	40.467257176781	8320
0	6079	40.475670638319	8319
0	6084	40.484085111212	8318
0	6091	40.564559210551	8306
0	6096	40.572986853219	8304
0	6103	40.581416525666	8303
0	6106	40.589847213369	8302
0	6111	40.598278916573	8301
0	6114	40.606711635523	8299
0	6119	40.615146386698	8298
0	6124	40.623582154353	8297
0	6131	40.727684683805	8281
0	6136	40.756641091131	8277
0	6141	40.769126159975	8275
0	6146	40.85201442183	8262
0	6149	40.860486946642	8261
0	6156	40.888507710936	8257
0	6161	40.964605862686	8245
0	6166	40.996495965968	8240
0	6167	41	8240
0	6199	41.404991111599	8178
0	6200	41.413550661611	8177
0	6205	41.422111258407	8176
0	6208	41.430672902243	8175
0	6211	41.439235593374	8173
0	6214	41.447800379866	8172
0	6217	41.456366214423	8171
0	6220	41.464933097301	8169
0	6223	41.473502077592	8168
0	6226	41.482072106975	8167
0	6233	41.490643185706	8165
0	6236	41.499216363906	8164
0	6239	41.507790592225	8163
0	6246	41.516365870922	8162
0	6249	41.524942200253	8160
0	6252	41.533520631626	8159
0	6259	41.542100114406	8158
0	6262	41.550680648851	8156
0	6265	41.559263287399	8155
0	6270	41.567846978386	8154
0	6273	41.57643172207	8152
0	6276	41.585018571923	8151
0	6283	41.64486909866	8142
0	6286	41.653466494877	8141
0	6293	41.699133542136	8134
0	6298	41.719101251719	8131
0	6303	41.799020042924	8119
0	6307	41.807641794371	8122
0	6318	41.845367808016	8370
0	6328	41.889327653973	8659
0	6336	41.915674591794	8833
0	6344	41.941583418494	9003
0	6351	41.954290068898	9087
0	6357	41.96781736527	9176
0	6365	42	9388
0	6372	42.184674219425	9693
0	6375	42.191895925811	9690
0	6382	42.200522839791	9686
0	6389	42.232357814462	9670
0	6395	42.254621435365	9660
0	6400	42.291273164307	9642
0	6406	42.307905494664	9634
0	6409	42.315171427817	9631
0	6421	42.444190169609	9568
0	6426	42.567179428412	9509
0	6429	42.574540875462	9506
0	6436	42.612056550506	9487
0	6441	42.625968318303	9481
0	6446	42.638110829213	9475
0	6451	42.678029185837	9456
0	6456	42.685855152879	9452
0	6459	42.693260992913	9448
0	6466	42.779128992314	9407
0	6471	42.811839306886	9391
0	6476	42.824788578177	9385
0	6481	42.847517953615	9374
0	6486	42.865585074538	9365
0	6491	42.877277702445	9360
0	6496	42.912367386736	9343
0	6502	42.921899679658	9327
0	6507	42.999362632762	9121
0	6508	43	9120
0	6535	43.407037229846	8516
0	6538	43.415257051358	8561
0	6543	43.423433666239	8605
0	6546	43.431568471585	8649
0	6549	43.43966189279	8692
0	6552	43.447715275211	8736
0	6555	43.455728095724	8779
0	6560	43.463701669024	8822
0	6565	43.471636377707	8865
0	6568	43.479532598801	8907
0	6571	43.487391586114	8949
0	6574	43.495213689142	8992
0	6577	43.502998386651	9034
0	6582	43.510746892296	9075
0	6585	43.518460390919	9117
0	6588	43.526138355162	9158
0	6596	43.538755328778	9181
0	6601	43.599109044769	9148
0	6606	43.636782710849	9128
0	6611	43.654823375099	9118
0	6616	43.672542613947	9108
0	6619	43.680228165111	9104
0	6641	43.927054117717	8970
0	6647	44	8930
0	6652	44.073194643865	8890
0	6659	44.088374125329	8882
0	6664	44.109180435913	8870
0	6669	44.153910510434	8846
0	6675	44.251026922189	8939
0	6680	44.286550485732	8978
0	6685	44.325570825624	9021
0	6691	44.384263541279	9085
0	6696	44.395120405593	9097
0	6702	44.525990602324	9240
0	6707	44.555049724961	9272
0	6713	44.632238753094	9374
0	6718	44.742313667439	9653
0	6723	44.792934432464	9782
0	6726	44.800090433282	9800
0	6733	44.839085770411	9899
0	6739	44.850207697359	9906
0	6744	44.864512815257	9881
0	6747	44.871597118465	9869
0	6752	44.878690035681	9857
0	6759	44.923828800798	9779
0	6764	44.930986996933	9766
0	6769	44.938154721692	9754
0	6774	44.945331264649	9742
0	6777	44.952516647527	9729
0	6784	44.96153481341	9714
0	6789	44.972103238532	9695
0	6794	44.997938024521	9651
0	6795	45	9647
0	6819	45.405191158911	8948
0	6820	45.413014136113	8934
0	6823	45.420849372289	8921
0	6826	45.428696026252	8907
0	6829	45.436555013565	8893
0	6834	45.444426373061	8880
0	6837	45.452309255944	8866
0	6840	45.46020458642	8853
0	6843	45.468111510626	8839
0	6846	45.476030958527	8825
0	6850	45.483962969858	8824
0	6855	45.491895880103	8826
0	6862	45.587118489787	8849
0	6867	45.653088751284	8864
0	6870	45.660985863197	8866
0	6877	45.751095360217	8887
0	6882	45.782835568973	8895
0	6899	45.926333269216	8929
0	6904	46	8947
0	6909	46.060985863197	8961
0	6910	46.068797491363	8963
0	6916	46.076607376446	8965
0	6923	46.091926098643	8968
0	6928	46.100244404132	8970
0	6931	46.108048194544	8972
0	6938	46.156527565937	8984
0	6945	46.196951674612	8993
0	6948	46.204735506481	8995
0	6955	46.241713018655	9004
0	6960	46.321872021352	9023
0	6966	46.391205456716	9040
0	6973	46.398948819548	9041
0	6976	46.4	9042
0	6977	46.406691325908	9043
0	6987	46.422515317374	9047
0	6992	46.456305570363	9055
0	6997	46.486758367226	9062
0	7003	46.503627639561	9063
0	7008	46.513304708505	9057
0	7011	46.521033537035	9052
0	7016	46.528766634693	9048
0	7023	46.670173779051	8958
0	7028	46.738883094185	8915
0	7033	46.818297012217	8865
0	7036	46.826193233311	8860
0	7041	46.834093910512	8855
0	7048	46.853738208242	8842
0	7053	46.876170248054	8828
0	7056	46.884099563867	8823
0	7063	46.903349978066	8811
0	7068	46.924726374186	8797
0	7073	46.949578836284	8782
0	7077	47	8750
0	7102	47.4	8497
0	7107	47.408238201718	8492
0	7110	47.416481254003	8487
0	7113	47.424729162569	8482
0	7116	47.432981933142	8476
0	7119	47.441240545695	8471
0	7124	47.449504032887	8466
0	7129	47.457772400475	8461
0	7134	47.466045654228	8455
0	7137	47.474324779006	8450
0	7140	47.482608802675	8445
0	7143	47.490897731035	8440
0	7146	47.499191569898	8435
0	7149	47.507490325085	8429
0	7152	47.51579498756	8424
0	7155	47.524104579203	8419
0	7158	47.532419105869	8414
0	7163	47.540738573423	8408
0	7171	47.576279227924	8415
0	7176	47.594138726846	8442
0	7181	47.629817558428	8495
0	7186	47.646627771911	8520
0	7191	47.664457769769	8547
0	7194	47.672647777959	8559
0	7201	47.68501782981	8578
0	7206	47.701454110934	8603
0	7211	47.734819118527	8652
0	7216	47.772743305117	8709
0	7219	47.780780967306	8721
0	7226	47.809647338847	8765
0	7231	47.870136416901	8855
0	7236	47.956002121354	8984
0	7241	47.993089694366	9039
0	7242	48	9050
0	7277	48.400833913859	9291
0	7278	48.408368086714	9288
0	7281	48.415904693088	9284
0	7284	48.423444546599	9280
0	7287	48.430987650047	9276
0	7292	48.438534006235	9272
0	7295	48.446083617969	9268
0	7300	48.45363648806	9264
0	7305	48.461192619321	9261
0	7308	48.468751198308	9257
0	7311	48.476313043398	9253
0	7316	48.483878157415	9249
0	7319	48.491446543186	9245
0	7322	48.499018203543	9241
0	7325	48.50659314132	9237
0	7330	48.514171359356	9234
0	7335	48.521752039451	9230
0	7338	48.529336004781	9226
0	7341	48.536923258195	9222
0	7344	48.544513802545	9218
0	7347	48.552107640688	9214
0	7352	48.559704775483	9210
0	7359	48.597544380405	9191
0	7364	48.632798924499	9173
0	7367	48.640430015745	9169
0	7374	48.745769878852	9115
0	7381	48.822798469455	9076
0	7385	48.830511118199	9072
0	7397	48.866727315909	9054
0	7412	48.937380547506	9018
0	7420	49	8986
0	7423	49.015055890768	8978
0	7428	49.02285272748	8974
0	7431	49.030653039492	8970
0	7439	49.042928915544	8964
0	7445	49.139812417563	8914
0	7451	49.15793973814	8905
0	7458	49.269149809891	8848
0	7464	49.29514514113	8835
0	7470	49.350837220347	8807
0	7475	49.366737285544	8798
0	7481	49.536052846261	8712
0	7484	49.54408774066	8708
0	7491	49.558812483581	8700
0	7494	49.566858460592	8696
0	7501	49.625502296002	8666
0	7506	49.651056566711	8653
0	7511	49.7025980169	8627
0	7516	49.767351139595	8594
0	7522	49.811970940434	8580
0	7527	49.82832130336	8581
0	7532	49.863444656936	8583
0	7537	49.872269545611	8584
0	7542	49.885123931473	8585
0	7545	49.893277688025	8586
0	7552	49.915034620002	8587
0	7555	49.923186477461	8588
0	7560	49.931337385705	8588
0	7567	49.939488293949	8589
0	7574	49.947638253199	8590
0	7579	49.955787263676	8590
0	7586	49.963936274153	8591
0	7589	49.972084336078	8591
0	7592	49.980232398003	8592
0	7597	49.988379511597	8593
0	7602	49.996525677081	8593
0	7607	50	8593
0	7629	50.404671842565	8623
0	7630	50.412789666988	8624
0	7633	50.420906550105	8625
0	7636	50.429022492134	8625
0	7641	50.437138434163	8626
0	7646	50.445253435322	8626
0	7651	50.453368436481	8627
0	7656	50.461482496989	8628
0	7659	50.469595617063	8628
0	7662	50.477708737137	8629
0	7665	50.485820916996	8629
0	7668	50.493933096855	8630
0	7672	50.502044336716	8630
0	7677	50.510155576577	8628
0	7680	50.518268696651	8625
0	7685	50.52638463868	8623
0	7688	50.534502463103	8620
0	7695	50.543163945714	8617
0	7700	50.569458478792	8609
0	7705	50.582026827691	8605
0	7710	50.597074104787	8600
0	7713	50.605213639671	8597
0	7720	50.652860200588	8582
0	7725	50.672037135908	8576
0	7730	50.720700762361	8561
0	7735	50.737904849917	8555
0	7743	50.829611905108	8526
0	7748	50.837138434163	8523
0	7749	50.837822085732	8523
0	7760	50.851847537217	8519
0	7775	50.930961552875	8494
0	7778	50.934502463103	8492
0	7788	50.951927317823	8487
0	7794	51	8471
0	7798	51.023633147598	8464
0	7805	51.097370872004	8440
0	7811	51.135919734745	8428
0	7817	51.176999855221	8415
0	7820	51.185318334128	8412
0	7831	51.337442723334	8364
0	7840	51.425018252723	8336
0	7845	51.47486283827	8320
0	7850	51.505198775743	8310
0	7855	51.521068245385	8305
0	7860	51.542369922777	8298
0	7865	51.566704575112	8291
0	7871	51.602691761252	8313
0	7876	51.619219767455	8350
0	7881	51.629476989878	8373
0	7886	51.645366690514	8408
0	7891	51.673398494414	8471
0	7896	51.683979979246	8494
0	7899	51.692221090619	8512
0	7906	51.712910005649	8559
0	7909	51.721088531178	8577
0	7916	51.760813638405	8665
0	7921	51.786071694574	8721
0	7926	51.797440282737	8747
0	7929	51.805443026535	8765
0	7936	51.827040304734	8813
0	7941	51.893874730382	8961
0	7944	51.901686358548	8979
0	7951	51.915864774447	9010
0	7954	51.923633919841	9028
0	7959	51.931387575136	9045
0	7964	51.939126657502	9062
0	7971	51.963744593034	9117
0	7975	52	9198
0	7999	52.4	9438
0	8000	52.407416825599	9439
0	8003	52.414832865434	9441
0	8006	52.42224733424	9442
0	8009	52.429661017782	9444
0	8012	52.437073131293	9445
0	8015	52.444484460038	9447
0	8018	52.45189421975	9448
0	8021	52.459303195195	9450
0	8024	52.466710602602	9451
0	8027	52.47411722624	9453
0	8034	52.495374115139	9457
0	8039	52.53988046522	9466
0	8044	52.572710749266	9473
0	8049	52.691463324278	9497
0	8054	52.705395459453	9500
0	8059	52.730194222093	9505
0	8064	52.78699887269	9517
0	8069	52.799502685524	9519
0	8074	52.862856570925	9532
0	8079	52.890765517579	9538
0	8084	52.909547290483	9541
0	8088	53	9560
0	8116	53.4	9590
0	8117	53.407299270073	9590
0	8120	53.414598540146	9591
0	8123	53.421897049165	9591
0	8126	53.429195558184	9592
0	8129	53.436493306307	9592
0	8132	53.44379105443	9593
0	8135	53.451088041817	9593
0	8140	53.458385029204	9594
0	8143	53.465681256012	9594
0	8148	53.47297748282	9595
0	8151	53.480272949209	9595
0	8154	53.487568415598	9595
0	8157	53.494863881987	9596
0	8162	53.502158588115	9596
0	8165	53.509453294243	9597
0	8172	53.569981846675	9601
0	8177	53.606099071277	9603
0	8182	53.627568703591	9605
0	8187	53.643433660069	9606
0	8192	53.664015193478	9607
0	8197	53.702576860584	9610
0	8202	53.716913811187	9610
0	8207	53.746603149531	9612
0	8212	53.821010719479	9617
0	8217	53.873169437513	9621
0	8222	53.974701253954	9627
0	8226	54	9629
0	8237	54.4	9655
0	8238	54.407250129467	9656
0	8241	54.414499508092	9656
0	8244	54.421748886717	9656
0	8247	54.428998265342	9657
0	8254	54.45601969725	9659
0	8257	54.463266824282	9659
0	8264	54.513312433513	9662
0	8269	54.553796908652	9665
0	8274	54.593208756571	9668
0	8279	54.602405195919	9668
0	8285	54.612236386361	9667
0	8290	54.639328907855	9663
0	8295	54.6478664463	9661
0	8300	54.699770024053	9652
0	8303	54.707022406979	9650
0	8310	54.754170636875	9642
0	8315	54.843798423892	9626
0	8320	54.888531444178	9618
0	8325	54.900720146374	9616
0	8330	54.923802744376	9611
0	8335	54.944924502111	9608
0	8340	54.952473996556	9606
0	8345	54.976313731289	9602
0	8350	54.984368133174	9600
0	8354	55	9598
0	8375	55.4	9526
0	8376	55.407348309889	9524
0	8379	55.414698162892	9523
0	8382	55.422048787695	9522
0	8385	55.42940018446	9520
0	8388	55.436753125636	9519
0	8393	55.444106839261	9518
0	8396	55.451461325498	9517
0	8399	55.458816584508	9515
0	8402	55.466173389553	9514
0	8405	55.473530967859	9513
0	8412	55.488203457343	9510
0	8415	55.495564130319	9509
0	8422	55.62169474199	9486
0	8425	55.629074037794	9485
0	8432	55.68097519991	9475
0	8437	55.693669389677	9473
0	8442	55.703600643266	9471
0	8447	55.710991626267	9470
0	8450	55.718383389731	9469
0	8457	55.726994476208	9467
0	8462	55.745279499725	9464
0	8465	55.752675949429	9462
0	8472	55.822823898174	9450
0	8477	55.852218070722	9444
0	8482	55.872014872958	9441
0	8487	55.881923436973	9439
0	8492	55.893620276497	9437
0	8497	55.925379728695	9431
0	8501	56	9418
0	8518	56.4	9346
0	8519	56.407489835224	9345
0	8522	56.414980471928	9343
0	8525	56.422472712108	9342
0	8528	56.429965754283	9341
0	8531	56.437459598625	9339
0	8534	56.444955047817	9338
0	8539	56.452451299691	9337
0	8544	56.459948354419	9335
0	8547	56.467447015372	9334
0	8554	56.495416444024	9329
0	8559	56.505503904901	9327
0	8564	56.514401068096	9325
0	8569	56.537517654396	9321
0	8576	56.545027578224	9320
0	8579	56.552538307838	9319
0	8582	56.56004984341	9317
0	8589	56.575814929195	9314
0	8594	56.667613822461	9298
0	8599	56.685980438004	9295
0	8604	56.727329626955	9287
0	8609	56.74391478222	9284
0	8614	56.786659588412	9276
0	8619	56.844668396635	9266
0	8624	56.876395941338	9260
0	8629	56.91960532678	9253
0	8634	56.946574133007	9248
0	8638	57	9238
0	8661	57.4	9166
0	8662	57.407636919049	9165
0	8665	57.415274671368	9163
0	8670	57.422914090772	9162
0	8675	57.430554343992	9161
0	8680	57.43819543121	9159
0	8683	57.445838186969	9158
0	8686	57.453481777273	9157
0	8689	57.461126202303	9155
0	8692	57.468772297333	9154
0	8695	57.476419227637	9152
0	8698	57.484067829036	9151
0	8701	57.491717266256	9150
0	8704	57.49936753948	9148
0	8709	57.50701948526	9147
0	8714	57.514672267593	9146
0	8721	57.522325886661	9144
0	8726	57.529981179749	9143
0	8729	57.537637310122	9141
0	8734	57.545295115614	9140
0	8739	57.55295375894	9139
0	8746	57.583487658293	9133
0	8751	57.601543518581	9130
0	8756	57.617583128288	9127
0	8761	57.665442328453	9118
0	8766	57.71078331169	9110
0	8771	57.736979559912	9106
0	8776	57.776648149022	9098
0	8781	57.800056102968	9094
0	8786	57.807753485858	9093
0	8791	57.815451715265	9091
0	8794	57.823151638266	9090
0	8801	57.831377492752	9089
0	8806	57.839079110092	9087
0	8811	57.846782422516	9086
0	8814	57.854486582763	9084
0	8819	57.862192439214	9083
0	8826	57.869913103144	9082
0	8831	57.964205122118	9065
0	8834	57.97192712984	9063
0	8839	57.979650841635	9062
0	8845	58	9058
0	8870	58.4	8986
0	8871	58.407789895393	8985
0	8874	58.415580657775	8984
0	8877	58.423372287339	8982
0	8880	58.431165651846	8981
0	8885	58.438959884114	8979
0	8888	58.446755852485	8978
0	8891	58.454552689197	8977
0	8894	58.462350394444	8975
0	8897	58.470149837341	8974
0	8902	58.477950149353	8972
0	8905	58.485752200178	8971
0	8908	58.4935551207	8970
0	8913	58.501358911112	8968
0	8916	58.509164441888	8967
0	8923	58.559766754855	8958
0	8926	58.567580999106	8956
0	8933	58.583526070348	8953
0	8936	58.591344678636	8952
0	8943	58.671814399219	8938
0	8948	58.679646128912	8936
0	8951	58.687479611455	8935
0	8958	58.701987168065	8932
0	8963	58.714117013385	8930
0	8968	58.76335958247	8921
0	8973	58.807300355972	8913
0	8976	58.815154052819	8912
0	8983	58.827400087665	8910
0	8988	58.84875256536	8906
0	8991	58.856612435111	8904
0	8998	58.916362267622	8894
0	9001	58.924232742099	8892
0	9008	58.958987071073	8886
0	9012	59	8878
0	9036	59.4	8734
0	9037	59.40801465537	8727
0	9040	59.416035739362	8719
0	9043	59.424064182991	8712
0	9048	59.43209907739	8705
0	9051	59.440140432933	8697
0	9054	59.448189185376	8690
0	9059	59.456244421279	8683
0	9062	59.464306151096	8675
0	9067	59.472375315361	8668
0	9070	59.480450996026	8661
0	9073	59.488533203623	8653
0	9076	59.496622883503	8646
0	9079	59.504719112973	8639
0	9086	59.544403437693	8603
0	9091	59.670706363286	8488
0	9096	59.717489499642	8445
0	9101	59.78952269086	8380
0	9106	59.797875912817	8372
0	9109	59.80623711683	8364
0	9116	59.837130733701	8336
0	9121	59.877465119379	8300
0	9126	59.965650774942	8219
0	9129	59.97416762614	8212
0	9135	60	8188
0	9162	60.4	8916
0	9163	60.407851054284	8979
0	9166	60.415647022655	9042
0	9169	60.423388672732	9105
0	9172	60.431076756203	9167
0	9175	60.438712842164	9229
0	9178	60.446297629248	9290
0	9181	60.453832613102	9351
0	9184	60.461318443494	9412
0	9189	60.468755757561	9472
0	9193	60.476145960264	9493
0	9196	60.483519814683	9482
0	9199	60.490902223458	9470
0	9204	60.498293986922	9459
0	9211	60.508580295274	9442
0	9216	60.549997178592	9378
0	9221	60.564520658987	9355
0	9224	60.572003288597	9343
0	9231	60.600541179115	9298
0	9236	60.623223641704	9263
0	9242	60.73880008004	9311
0	9247	60.769631846645	9330
0	9250	60.777134526173	9335
0	9257	60.785468075332	9340
0	9262	60.795861222389	9346
0	9267	60.803715474513	9351
0	9272	60.876094155544	9394
0	9277	60.911644099101	9416
0	9282	60.935341259033	9430
0	9287	60.985398936222	9460
0	9291	61	9469
0	9320	61.4	9711
0	9323	61.407208320461	9715
0	9326	61.414413673009	9720
0	9331	61.4216153191	9724
0	9334	61.428814002769	9728
0	9337	61.436009726453	9733
0	9340	61.443201753577	9737
0	9343	61.450390826187	9741
0	9346	61.457576946709	9746
0	9349	61.464759380528	9750
0	9352	61.471938867707	9754
0	9355	61.479115410664	9759
0	9358	61.486288276736	9763
0	9361	61.493458204012	9767
0	9364	61.5006251949	9772
0	9369	61.507788518682	9776
0	9372	61.514948911481	9780
0	9379	61.637501114301	9854
0	9384	61.683554612413	9882
0	9387	61.690638198732	9887
0	9394	61.730713436696	9911
0	9399	61.738078028309	9915
0	9404	61.750060922759	9922
0	9409	61.775813689204	9938
0	9414	61.805985846159	9956
0	9419	61.822491696375	9966
0	9425	61.875355865029	9964
0	9430	61.885057985377	9961
0	9435	61.940625010442	9942
0	9440	61.98100674216	9928
0	9445	61.995790862889	9923
0	9446	62	9921
0	9462	62.40284518114	9783
0	9463	62.410000450485	9781
0	9466	62.417157182925	9778
0	9469	62.424316111131	9776
0	9472	62.43147650393	9773
0	9475	62.438639094741	9771
0	9482	62.536743229374	9737
0	9487	62.607076030959	9713
0	9492	62.622854374331	9708
0	9497	62.643230711191	9701
0	9500	62.650446462145	9698
0	9507	62.668172424559	9692
0	9512	62.681944308453	9688
0	9517	62.702764977409	9680
0	9522	62.726809824666	9672
0	9527	62.756173889569	9662
0	9530	62.763418766406	9660
0	9537	62.796761438829	9648
0	9540	62.804016828547	9646
0	9549	62.824006393778	9639
0	9557	62.845104775558	9632
0	9563	62.91565838681	9607
0	9568	63	9578
0	9571	63.014282867158	9574
0	9577	63.044676496174	9563
0	9586	63.095090202349	9546
0	9592	63.113052495692	9540
0	9597	63.126115186184	9535
0	9603	63.144981568983	9529
0	9612	63.22179841569	9502
0	9619	63.280078831148	9482
0	9624	63.321901315816	9468
0	9630	63.336881496082	9463
0	9635	63.358665426934	9455
0	9640	63.366980220937	9453
0	9645	63.377738075483	9449
0	9648	63.385146266826	9446
0	9656	63.409873064159	9438
0	9661	63.482942223369	9413
0	9666	63.49052987427	9410
0	9671	63.578300156004	9380
0	9676	63.625613929016	9364
0	9679	63.633089366863	9361
0	9686	63.726814552507	9329
0	9691	63.741065753826	9324
0	9697	63.778748806536	9322
0	9700	63.786257924751	9322
0	9707	63.83068130584	9325
0	9710	63.838188008253	9325
0	9715	63.845694710666	9325
0	9722	63.921826478755	9329
0	9727	63.970099016031	9332
0	9730	63.977600087613	9332
0	9737	63.996224192724	9333
0	9738	64	9333
0	9764	64.403724460591	9355
0	9765	64.411207090201	9355
0	9768	64.418689719811	9355
0	9771	64.426172349421	9356
0	9774	64.433654179263	9356
0	9777	64.441136009105	9357
0	9780	64.44861703935	9357
0	9783	64.456098069595	9357
0	9786	64.46357909984	9358
0	9789	64.471059330659	9358
0	9792	64.478539561478	9359
0	9799	64.533352791032	9361
0	9804	64.582919562849	9364
0	9809	64.612788236867	9366
0	9814	64.626008216561	9366
0	9819	64.72749066944	9372
0	9824	64.764974096063	9374
0	9829	64.79369046094	9375
0	9836	64.819184950079	9376
0	9844	64.848292453424	9378
0	9853	64.871515712397	9379
0	9856	64.878539561478	9380
0	9866	64.954353747011	9384
0	9869	64.961813252552	9384
0	9876	64.986511273245	9385
0	9881	65	9386
0	9884	65.020262078422	9387
0	9890	65.081246383768	9390
0	9895	65.127285471008	9393
0	9902	65.172542988834	9395
0	9907	65.182334476918	9395
0	9910	65.189785248605	9396
0	9922	65.30003536009	9402
0	9927	65.351950517031	9404
0	9935	65.399265157022	9407
0	9941	65.407821148263	9407
0	9946	65.417334971428	9408
0	9951	65.4990455592	9412
0	9956	65.535235762996	9414
0	9959	65.542671497009	9414
0	9966	65.551301430531	9415
0	9971	65.565478993552	9416
0	9976	65.610980603873	9418
0	9979	65.618413179791	9418
0	9986	65.645405180192	9420
0	9991	65.667996972178	9421
0	9996	65.717461415713	9423
0	10001	65.777483724357	9427
0	10006	65.787620973784	9427
0	10011	65.800014081787	9428
0	10016	65.894255077155	9433
0	10019	65.901675834072	9433
0	10025	66	9438
0	10054	66.4	9459
0	10055	66.407400359446	9460
0	10058	66.414799936613	9460
0	10061	66.42219951378	9460
0	10064	66.429599090947	9461
0	10067	66.436997886	9461
0	10070	66.444396681053	9462
0	10073	66.451794694158	9462
0	10076	66.459192707263	9462
0	10079	66.466590720368	9463
0	10082	66.47398795169	9463
0	10085	66.481385183012	9464
0	10088	66.488781632716	9464
0	10091	66.49617808242	9464
0	10098	66.52839709298	9466
0	10103	66.54142695539	9467
0	10108	66.565950441866	9468
0	10113	66.610332959201	9470
0	10118	66.627773067803	9471
0	10123	66.642103443746	9472
0	10128	66.659514892956	9473
0	10133	66.705053835281	9475
0	10138	66.760435758041	9478
0	10143	66.819532482022	9481
0	10148	66.862385888281	9483
0	10153	66.870977320156	9484
0	10158	66.884419825165	9485
0	10162	67	9491
0	10188	67.4	9106
0	10189	67.407687239183	9096
0	10192	67.415382929596	9086
0	10197	67.423087089843	9077
0	10200	67.430798888896	9067
0	10203	67.438519193297	9057
0	10206	67.446248021827	9047
0	10209	67.453985393331	9038
0	10212	67.461730469675	9028
0	10217	67.46948412497	9018
0	10220	67.477246378241	9008
0	10223	67.485017248578	8998
0	10226	67.492796755135	8989
0	10229	67.500584050718	8979
0	10236	67.532271229377	8939
0	10241	67.564700021246	8898
0	10246	67.641779416836	8800
0	10251	67.665734079791	8770
0	10256	67.674434888141	8759
0	10259	67.682426668025	8749
0	10266	67.712964266853	8710
0	10271	67.766719537155	8643
0	10274	67.77481857684	8632
0	10281	67.794533549776	8607
0	10287	67.816033359528	8595
0	10292	67.883406113846	8591
0	10297	67.89702461589	8591
0	10300	67.905172677815	8590
0	10307	67.91541172045	8590
0	10311	68	8585
0	10336	68.4	8565
0	10337	68.408172796264	8564
0	10340	68.416346546848	8564
0	10343	68.424520297432	8563
0	10346	68.432695002559	8563
0	10349	68.440869707686	8562
0	10352	68.449045367579	8562
0	10355	68.457221027472	8562
0	10358	68.465396687365	8561
0	10361	68.473573302246	8561
0	10364	68.481749917127	8560
0	10369	68.48992748722	8560
0	10373	68.498105057313	8561
0	10380	68.585750757516	8680
0	10385	68.606302945511	8707
0	10390	68.63100776534	8741
0	10395	68.647015292241	8763
0	10401	68.946650931317	8955
0	10405	69	8972
0	10432	69.4	9096
0	10435	69.407695690413	9099
0	10440	69.415388843507	9101
0	10443	69.423080305984	9104
0	10446	69.430769233928	9106
0	10449	69.438456473111	9108
0	10452	69.446142024275	9111
0	10455	69.4538250448	9113
0	10460	69.461506379158	9116
0	10463	69.469185185652	9118
0	10466	69.476862307828	9120
0	10469	69.484537746424	9123
0	10472	69.492210661035	9125
0	10477	69.499881893912	9127
0	10480	69.507551445791	9130
0	10483	69.515218477554	9132
0	10486	69.52288383016	9135
0	10491	69.530546665409	9137
0	10498	69.558755969276	9146
0	10503	69.648176796917	9174
0	10508	69.690321037521	9187
0	10513	69.714050530781	9194
0	10518	69.729721720398	9199
0	10523	69.802176702234	9222
0	10528	69.836916621359	9232
0	10533	69.899764614218	9252
0	10538	69.919736410748	9258
0	10543	69.928157026719	9261
0	10548	69.946850386298	9267
0	10553	69.998476027308	9283
0	10554	70	9283
0	10594	70.406016693041	9410
0	10595	70.413455587834	9412
0	10598	70.420892901901	9414
0	10603	70.428328635914	9417
0	10606	70.435762001105	9419
0	10609	70.443193787919	9421
0	10612	70.450623997026	9424
0	10615	70.458051840829	9426
0	10618	70.465478108599	9428
0	10623	70.472902801005	9430
0	10626	70.480325918714	9433
0	10629	70.487746675631	9435
0	10632	70.495165859521	9437
0	10635	70.50258347105	9440
0	10638	70.509998725287	9442
0	10641	70.517412408829	9444
0	10644	70.52482452234	9447
0	10647	70.532234282052	9449
0	10650	70.539642473395	9451
0	10653	70.547049097033	9454
0	10658	70.554453370356	9456
0	10665	70.578503524774	9463
0	10670	70.667023125173	9491
0	10673	70.674398533455	9493
0	10680	70.68334035062	9496
0	10685	70.705947968995	9503
0	10690	70.79944433246	9532
0	10699	70.842621847176	9546
0	10708	70.870242872978	9554
0	10711	70.872902801005	9555
0	10722	70.901690489818	9564
0	10737	70.975760424499	9571
0	10740	70.983074184817	9569
0	10747	71	9565
0	10760	71.074398533455	9548
0	10761	71.081729911754	9547
0	10764	71.081772387874	9546
0	10765	71.089062057978	9545
0	10768	71.089105302184	9545
0	10771	71.090711875473	9544
0	10783	71.144613191935	9532
0	10788	71.153457355127	9530
0	10793	71.184013721937	9523
0	10799	71.211178033154	9517
0	10802	71.218533292164	9515
0	10812	71.286098507647	9500
0	10817	71.297964831615	9497
0	10823	71.353428831354	9485
0	10828	71.374782341931	9480
0	10833	71.382166308176	9478
0	10836	71.383074184817	9478
0	10846	71.418645727851	9470
0	10851	71.437208841122	9466
0	10854	71.444603728086	9464
0	10861	71.462416034628	9460
0	10866	71.680376160507	9411
0	10871	71.690151237077	9409
0	10876	71.743806461279	9396
0	10881	71.774896404855	9389
0	10886	71.784107036236	9387
0	10891	71.833083920921	9376
0	10896	71.856658548587	9371
0	10901	71.866072517079	9369
0	10906	71.913776583688	9358
0	10911	71.947688097789	9350
0	10915	72	9338
0	10932	72.4	9248
0	10933	72.407569204152	9246
0	10936	72.415140045597	9244
0	10941	72.422712525043	9242
0	10944	72.430286643199	9241
0	10947	72.437861580976	9239
0	10952	72.445438158528	9237
0	10955	72.453016376564	9236
0	10958	72.460595415109	9234
0	10961	72.468176095204	9232
0	10968	72.513455098373	9222
0	10971	72.521045642723	9220
0	10978	72.529886182132	9218
0	10983	72.721557341931	9175
0	10986	72.729186769724	9173
0	10991	72.73681786097	9171
0	10998	72.746322299554	9169
0	11003	72.768639409728	9164
0	11008	72.778834506647	9162
0	11013	72.786474759867	9160
0	11016	72.794116681264	9158
0	11023	72.884737597887	9138
0	11028	72.920933591244	9129
0	11032	73	9111
0	11063	73.4	9021
0	11064	73.407759671877	9019
0	11069	73.415521064493	9017
0	11072	73.423284178611	9016
0	11077	73.431048153766	9014
0	11080	73.438813851569	9012
0	11085	73.446581272785	9010
0	11088	73.454350418179	9008
0	11091	73.462121288516	9007
0	11094	73.469893021612	9005
0	11097	73.477666480801	9003
0	11102	73.48544166685	9001
0	11107	73.493218580526	9000
0	11110	73.500996358304	8998
0	11113	73.508775864861	8996
0	11116	73.516557100966	8994
0	11119	73.524340067388	8993
0	11122	73.532123899257	8991
0	11127	73.539909462598	8989
0	11130	73.547696758181	8987
0	11137	73.555485786778	8986
0	11142	73.563275682171	8984
0	11145	73.571067311735	8982
0	11148	73.578860676242	8980
0	11153	73.586655776465	8978
0	11158	73.594452613177	8977
0	11165	73.627363454724	8969
0	11170	73.651111638921	8964
0	11175	73.718276548785	8949
0	11180	73.733093112997	8945
0	11185	73.755667267316	8940
0	11190	73.769715366949	8937
0	11195	73.891530466662	8909
0	11198	73.899387689695	8908
0	11207	73.907245794769	8906
0	11210	73.91510566452	8904
0	11213	73.92296729974	8902
0	11220	73.99062718652	8887
0	11224	74	8885
0	11251	74.4	8794
0	11252	74.407959972709	8792
0	11257	74.415921756148	8790
0	11260	74.423885351142	8789
0	11263	74.431849852223	8787
0	11266	74.439816166096	8785
0	11273	74.447784293586	8783
0	11276	74.455754235519	8781
0	11279	74.463725992722	8780
0	11282	74.47169865787	8778
0	11285	74.479673139529	8776
0	11288	74.487649438526	8774
0	11293	74.49562755569	8772
0	11298	74.503607491851	8771
0	11301	74.511588337821	8769
0	11306	74.519571004032	8767
0	11309	74.527555491314	8765
0	11312	74.535541800498	8763
0	11315	74.543529932416	8761
0	11322	74.556726147087	8758
0	11325	74.564718839483	8757
0	11332	74.583072147674	8752
0	11335	74.59107031952	8751
0	11342	74.611423859768	8746
0	11347	74.636478485424	8740
0	11352	74.698960979539	8726
0	11359	74.706982982748	8724
0	11362	74.715006825022	8723
0	11365	74.723031587145	8721
0	11372	74.788356252425	8706
0	11377	74.906210993352	8679
0	11382	74.943077739826	8671
0	11386	75	8658
0	11417	75.4	8567
0	11418	75.408170888292	8565
0	11423	75.416343684556	8564
0	11428	75.42451743514	8562
0	11431	75.432693095033	8560
0	11434	75.440870665126	8558
0	11437	75.449050146313	8556
0	11440	75.457231539487	8554
0	11443	75.465414845543	8552
0	11448	75.473600065375	8551
0	11451	75.48178624243	8549
0	11454	75.489974334605	8547
0	11457	75.498164342795	8545
0	11460	75.506356267897	8543
0	11463	75.514550110809	8541
0	11466	75.522745872429	8539
0	11469	75.530943553656	8538
0	11472	75.539142195024	8536
0	11479	75.601756672913	8521
0	11484	75.630726236675	8515
0	11489	75.666431838823	8507
0	11494	75.712320530051	8496
0	11499	75.738058908534	8491
0	11502	75.746302931617	8489
0	11509	75.76331503376	8485
0	11514	75.781904146929	8481
0	11519	75.834034524883	8469
0	11524	75.858182024896	8463
0	11527	75.86645332349	8461
0	11532	75.874726577243	8460
0	11540	75.993026162403	8417
0	11541	76	8413
0	11554	76.40134266472	8200
0	11555	76.409879250086	8198
0	11558	76.418417918054	8197
0	11563	76.426957627704	8195
0	11568	76.435499421481	8194
0	11571	76.444042257703	8193
0	11576	76.452586136624	8191
0	11583	76.487365110106	8186
0	11588	76.577949788429	8172
0	11593	76.663529017888	8158
0	11598	76.673673888134	8156
0	11603	76.69969815519	8152
0	11606	76.708285005043	8151
0	11613	76.721018097569	8149
0	11619	76.775121314881	8175
0	11622	76.783684006012	8182
0	11637	76.906045224399	8292
0	11642	76.955258497496	8336
0	11645	76.963655810356	8343
0	11652	77	8376
0	11661	77.072109552333	8440
0	11662	77.080403391196	8448
0	11665	77.082256526682	8449
0	11666	77.088689376044	8455
0	11676	77.103782069216	8469
0	11684	77.129907625754	8492
0	11687	77.138150678039	8499
0	11694	77.17315084218	8531
0	11701	77.292602806374	8638
0	11710	77.40157190019	8735
0	11715	77.434985093577	8765
0	11718	77.442971402761	8772
0	11725	77.467510643641	8794
0	11730	77.482929745947	8808
0	11735	77.495211444457	8819
0	11740	77.506048607359	8829
0	11746	77.598770324694	8897
0	11751	77.6564235848	8906
0	11756	77.667242703957	8907
0	11759	77.67510169127	8908
0	11766	77.735132644491	8917
0	11771	77.808432005155	8927
0	11777	77.955676186865	9058
0	11781	78	9128
0	11802	78.4	9758
0	11805	78.407173601148	9770
0	11810	78.414338391322	9781
0	11813	78.421495123762	9792
0	11816	78.428643816572	9803
0	11819	78.435784487795	9815
0	11823	78.442916428702	9811
0	11826	78.450051277341	9804
0	11829	78.457191220221	9797
0	11832	78.464336264622	9790
0	11835	78.47148641784	9783
0	11838	78.478641687185	9776
0	11845	78.490407863205	9764
0	11850	78.509690482314	9745
0	11855	78.517882478934	9737
0	11860	78.533380126206	9722
0	11865	78.549849882873	9706
0	11868	78.557061916667	9699
0	11875	78.591974213315	9664
0	11880	78.612353849905	9644
0	11885	78.656415210085	9601
0	11890	78.667086569886	9591
0	11893	78.674385078905	9584
0	11900	78.694957019489	9563
0	11905	78.828787414567	9432
0	11908	78.836208958248	9425
0	11915	78.844132815376	9417
0	11920	78.926975206936	9336
0	11925	78.93505152123	9328
0	11930	78.994369571089	9270
0	11931	79	9264
0	11945	79.40192081165	8870
0	11948	79.409812581661	8862
0	11955	79.417711475816	8854
0	11960	79.425617506988	8847
0	11963	79.433529793639	8839
0	11966	79.44144924154	8831
0	11969	79.449375863667	8823
0	11972	79.457309673029	8815
0	11979	79.465250682672	8808
0	11982	79.47319800329	8800
0	11985	79.481152548745	8792
0	11992	79.678938883192	8598
0	11997	79.694735138687	8583
0	12007	79.849213067334	8431
0	12018	79.909968509663	8371
0	12023	79.942330661855	8340
0	12028	79.953606624694	8329
0	12031	79.962010994967	8320
0	12038	79.97448877338	8308
0	12042	80	8283
0	12049	80.087080311431	8198
0	12051	80.095618979399	8193
0	12056	80.102890795217	8198
0	12057	80.10416285832	8199
0	12062	80.111429463185	8204
0	12072	80.123393519273	8212
0	12077	80.232816421815	8287
0	12080	80.241263386941	8293
0	12087	80.25313896341	8301
0	12094	80.331615076409	8355
0	12101	80.367216701655	8380
0	12108	80.397170097864	8401
0	12114	80.408709546062	8408
0	12119	80.419095683565	8416
0	12124	80.522453908637	8487
0	12129	80.53191168212	8493
0	12134	80.577552014375	8525
0	12139	80.598373730243	8539
0	12144	80.612372226657	8549
0	12149	80.630435192056	8561
0	12155	80.685352671711	8637
0	12160	80.693457337683	8659
0	12163	80.701541412056	8682
0	12170	80.792209366157	8935
0	12175	80.809643044716	8984
0	12180	80.863761719241	9135
0	12185	80.872512569236	9159
0	12190	80.896531919749	9226
0	12195	80.936822091494	9339
0	12200	80.950677381283	9378
0	12203	80.958141659381	9399
0	12208	80.96558926019	9419
0	12215	80.979174948037	9457
0	12218	80.986576872537	9478
0	12225	80.996875527767	9507
0	12226	81	9515
0	12263	81.404238523454	9559
0	12264	81.411561465184	9553
0	12267	81.418889006271	9547
0	12270	81.426221152495	9541
0	12273	81.433557909648	9535
0	12276	81.440899283534	9529
0	12279	81.448245279966	9523
0	12282	81.455595904769	9517
0	12285	81.462951163779	9511
0	12288	81.470311062843	9504
0	12293	81.477676382708	9498
0	12296	81.485046355334	9492
0	12299	81.492420986602	9486
0	12302	81.499800282406	9480
0	12305	81.507184248651	9474
0	12308	81.514572891252	9468
0	12311	81.521966216136	9462
0	12318	81.580594937598	9414
0	12323	81.634995144278	9369
0	12328	81.648316217008	9358
0	12333	81.80241822069	9232
0	12346	81.863785075334	9181
0	12360	81.940210571909	9118
0	12365	81.947887694085	9112
0	12368	81.955569871434	9106
0	12375	81.979417771353	9086
0	12378	81.9871219316	9080
0	12385	82	9069
0	12388	82.042466592672	9034
0	12394	82.110224441951	8979
0	12397	82.118020410322	8972
0	12402	82.125822461147	8966
0	12409	82.140020903154	8954
0	12414	82.171706765116	8928
0	12420	82.249833535607	8864
0	12425	82.265171504767	8852
0	12432	82.271409517116	8846
0	12433	82.273079322209	8845
0	12438	82.279322698215	8840
0	12441	82.280993397958	8839
0	12451	82.305124049785	8819
0	12458	82.355934198107	8777
0	12464	82.375949674882	8761
0	12472	82.440619406593	8707
0	12477	82.496721100404	8661
0	12482	82.512517904737	8648
0	12488	82.602463829198	8574
0	12493	82.612382403954	8569
0	12498	82.624823734958	8563
0	12503	82.648638079797	8550
0	12508	82.665847003878	8541
0	12511	82.674042765498	8536
0	12518	82.694941455678	8525
0	12523	82.728526229926	8507
0	12528	82.759574716244	8491
0	12533	82.806656094827	8465
0	12538	82.951068622134	8388
0	12543	82.993673404963	8365
0	12544	83	8362
0	12567	83.4020416058	8242
0	12568	83.410534690003	8243
0	12571	83.419026743867	8243
0	12576	83.427518797731	8243
0	12579	83.436010851595	8243
0	12582	83.444502905459	8244
0	12585	83.452993929234	8244
0	12588	83.461484953009	8244
0	12593	83.469975976784	8244
0	12598	83.478467000559	8245
0	12601	83.486956994495	8245
0	12604	83.495446988431	8245
0	12611	83.56678928067	8247
0	12616	83.622642314167	8249
0	12621	83.660884259026	8250
0	12626	83.743064203118	8252
0	12631	83.762314460861	8253
0	12637	83.815214992386	8254
0	12641	83.823695728999	8254
0	12656	83.889236417189	8256
0	12663	83.905267678741	8257
0	12668	83.971369832216	8259
0	12673	84	8259
0	12679	84.031128191243	8335
0	12680	84.039526511579	8356
0	12687	84.060975022955	8409
0	12693	84.122391577095	8560
0	12700	84.21446811291	8787
0	12707	84.258894779569	8896
0	12715	84.32946741173	9046
0	12720	84.343139251775	9041
0	12727	84.402416622453	9022
0	12732	84.441720033693	9009
0	12737	84.526566955085	8981
0	12742	84.565710183222	8968
0	12747	84.577030221862	8964
0	12752	84.633775252956	8946
0	12757	84.649920034157	8940
0	12760	84.657750011786	8938
0	12767	84.666647418299	8935
0	12772	84.70311328476	8923
0	12777	84.731883464684	8913
0	12782	84.770994431743	8900
0	12787	84.809609156078	8888
0	12792	84.839756770656	8878
0	12797	84.851582450848	8874
0	12802	84.904162230124	8857
0	12807	84.912065583404	8854
0	12810	84.919971614576	8851
0	12817	84.928106398981	8849
0	12822	84.940655529442	8845
0	12827	84.953568168858	8840
0	12831	85	8825
0	12852	85.4	8693
0	12853	85.408052455999	8691
0	12858	85.416106765054	8688
0	12861	85.424163855293	8686
0	12864	85.432222800722	8683
0	12867	85.440284530539	8680
0	12872	85.448349046668	8678
0	12875	85.456415421409	8675
0	12878	85.464484585674	8672
0	12881	85.472556541394	8670
0	12884	85.480630359156	8667
0	12889	85.488706971594	8664
0	12892	85.496786380643	8662
0	12899	85.542594291814	8647
0	12904	85.594594238682	8629
0	12907	85.602706418541	8627
0	12914	85.634694528405	8616
0	12919	85.691213466212	8598
0	12924	85.708270207692	8592
0	12929	85.716417321286	8589
0	12932	85.724567280536	8587
0	12939	85.770193813436	8572
0	12944	85.851138850525	8545
0	12949	85.908818522787	8526
0	12956	85.917028703411	8523
0	12959	85.925241773926	8521
0	12962	85.933456772166	8518
0	12969	85.949292556012	8513
0	12973	86	8496
0	12996	86.4	8365
0	12997	86.408368200837	8362
0	13000	86.416739403898	8359
0	13003	86.425113611339	8356
0	13006	86.433490825317	8354
0	13009	86.441870044853	8351
0	13012	86.450252274526	8348
0	13015	86.4586375165	8345
0	13018	86.467025772941	8343
0	13021	86.475416040231	8340
0	13024	86.483809325603	8337
0	13031	86.528895449817	8322
0	13036	86.55418290322	8314
0	13041	86.695276469724	8267
0	13044	86.703743870232	8265
0	13051	86.867338614721	8211
0	13056	86.89327374138	8202
0	13059	86.90180824516	8199
0	13066	86.914457766922	8195
0	13070	87	8167
0	13098	87.4	8038
0	13099	87.408708633989	8039
0	13102	87.417416184679	8039
0	13105	87.426123735369	8040
0	13108	87.434830203031	8041
0	13111	87.443535587933	8041
0	13118	87.452240972835	8042
0	13121	87.460945275247	8043
0	13128	87.469648495438	8044
0	13133	87.478350633678	8044
0	13138	87.487052771918	8045
0	13141	87.495753828475	8046
0	13144	87.504453803618	8046
0	13147	87.513153778761	8047
0	13150	87.521852672759	8048
0	13157	87.53055048588	8048
0	13160	87.539248299001	8049
0	13163	87.547945031514	8050
0	13166	87.556640683688	8051
0	13171	87.565335255791	8051
0	13174	87.574029827894	8052
0	13179	87.582723320194	8053
0	13184	87.591415732959	8053
0	13187	87.600108145724	8054
0	13194	87.621908440253	8056
0	13199	87.639103916287	8057
0	13204	87.657081429544	8059
0	13209	87.685473712847	8061
0	13212	87.694157498978	8062
0	13219	87.704039107841	8062
0	13222	87.712721816846	8063
0	13229	87.741266779603	8065
0	13234	87.752672983225	8066
0	13239	87.774407299373	8068
0	13242	87.783083551232	8069
0	13249	87.817278467667	8072
0	13254	87.93470782387	8081
0	13259	87.967622570693	8084
0	13262	87.976281650357	8084
0	13267	87.984940730021	8085
0	13273	88	8086
0	13290	88.4	8119
0	13291	88.408621751447	8119
0	13294	88.417243502894	8120
0	13299	88.425864192549	8121
0	13304	88.434483820674	8121
0	13307	88.443103448799	8122
0	13314	88.451722015654	8123
0	13317	88.460339521502	8123
0	13320	88.46895702735	8124
0	13323	88.477573472451	8125
0	13326	88.486188857066	8126
0	13329	88.494803181457	8126
0	13336	88.50468188226	8127
0	13341	88.608459310002	8135
0	13346	88.63682128471	8138
0	13351	88.659440721406	8139
0	13356	88.677065837638	8141
0	13361	88.835013323695	8154
0	13366	88.943915851964	8162
0	13371	88.992394381938	8166
0	13373	89	8174
0	13397	89.400966510275	8782
0	13398	89.40893735974	8794
0	13401	89.416897332449	8806
0	13404	89.424846458045	8818
0	13411	89.432784766051	8830
0	13414	89.44071228587	8842
0	13419	89.448629046784	8854
0	13424	89.456535077956	8866
0	13427	89.464430408432	8878
0	13430	89.472315067139	8890
0	13433	89.480189082887	8902
0	13436	89.48805248437	8914
0	13439	89.495905300165	8926
0	13444	89.503747558735	8937
0	13447	89.511580164755	8949
0	13454	89.673482085021	9194
0	13459	89.695040512184	9227
0	13464	89.719302161889	9264
0	13469	89.749136170827	9309
0	13490	89.947471915306	9404
0	13494	90	9419
0	13497	90.081095746104	9442
0	13502	90.093661419043	9445
0	13510	90.229355040165	9483
0	13515	90.322643991248	9510
0	13521	90.391857959112	9529
0	13527	90.427949755437	9540
0	13532	90.443520460878	9544
0	13537	90.453429959248	9547
0	13542	90.529960569386	9569
0	13547	90.543203474133	9572
0	13552	90.578826309174	9582
0	13557	90.660475230278	9605
0	13562	90.680149194445	9611
0	13567	90.769477974902	9636
0	13570	90.776742399975	9638
0	13577	90.806300322778	9647
0	13582	90.857758484601	9661
0	13585	90.865004111348	9663
0	13592	90.885772229399	9669
0	13597	90.896354024276	9672
0	13602	90.950347141883	9687
0	13605	90.957573321299	9689
0	13611	91	9701
0	13642	91.4	9815
0	13643	91.407131940907	9817
0	13646	91.414262428836	9819
0	13653	91.421391464379	9821
0	13656	91.428519048128	9823
0	13659	91.435645180674	9825
0	13662	91.442769862608	9827
0	13667	91.44989309452	9829
0	13670	91.457014877	9831
0	13676	91.464135210638	9817
0	13681	91.471265698567	9700
0	13684	91.478482193412	9581
0	13687	91.485788320121	9461
0	13690	91.493187115174	9339
0	13693	91.500682564366	9216
0	13696	91.508278050477	9091
0	13699	91.515977973478	8964
0	13702	91.523786987311	8835
0	13705	91.531710020701	8705
0	13708	91.539751376244	8573
0	13716	91.609074253506	8451
0	13719	91.617357296933	8455
0	13724	91.625636421711	8459
0	13731	91.719048214021	8503
0	13736	91.733096092726	8509
0	13741	91.749440309999	8517
0	13744	91.757659166404	8521
0	13751	91.766372641767	8525
0	13756	91.780455704162	8532
0	13761	91.802676027695	8542
0	13766	91.816191012585	8549
0	13771	91.833730940175	8557
0	13776	91.936415049598	8606
0	13781	91.950867070245	8612
0	13785	92	8636
0	13808	92.4	8824
0	13809	92.407932910245	8828
0	13812	92.415862226058	8832
0	13815	92.423787950696	8836
0	13818	92.431710087409	8839
0	13821	92.43962953531	8843
0	13826	92.447545400966	8847
0	13829	92.455457687617	8851
0	13832	92.463366398497	8854
0	13835	92.471272429669	8858
0	13838	92.479174890721	8862
0	13841	92.487073784876	8866
0	13848	92.634024172356	8935
0	13853	92.722891346212	8977
0	13856	92.730689051459	8981
0	13861	92.738483283727	8984
0	13868	92.806864769036	9017
0	13873	92.847683062228	9036
0	13878	92.859881161132	9042
0	13883	92.991549919536	9104
0	13887	93	9108
0	13912	93.4	9297
0	13913	93.40752931053	9300
0	13916	93.41505619225	9304
0	13919	93.422579837994	9307
0	13922	93.430101058581	9311
0	13925	93.437619048056	9314
0	13928	93.445134616018	9318
0	13933	93.452646957722	9322
0	13936	93.460156075937	9325
0	13939	93.46766277835	9329
0	13942	93.47516626211	9332
0	13945	93.482667333692	9336
0	13948	93.490165191447	9339
0	13953	93.497660640639	9343
0	13960	93.543400148939	9364
0	13963	93.550875586786	9368
0	13970	93.58847649911	9386
0	13975	93.616364994919	9399
0	13978	93.623812595728	9402
0	13985	93.654368258512	9417
0	13990	93.672027505994	9425
0	13995	93.701600939496	9439
0	13998	93.709016979331	9443
0	14005	93.719206155625	9447
0	14010	93.77959627649	9476
0	14015	93.788329430559	9480
0	14020	93.830530206482	9500
0	14023	93.837898627535	9503
0	14030	93.911484763347	9538
0	14035	93.961415354946	9562
0	14039	94	9580
0	14050	94.4	9769
0	14051	94.407165523595	9772
0	14054	94.414328847377	9776
0	14057	94.421489240176	9779
0	14062	94.428647436311	9782
0	14065	94.435803437129	9786
0	14072	94.456015722957	9795
0	14077	94.471696334657	9803
0	14084	94.47883700588	9806
0	14087	94.485975492521	9810
0	14090	94.493111068464	9813
0	14098	94.621081020962	9498
0	14103	94.635735808783	9456
0	14108	94.707102657926	9255
0	14113	94.767802254415	9083
0	14118	94.775853696111	9060
0	14123	94.846235940634	8861
0	14128	94.865595455261	8807
0	14134	94.978974389446	8531
0	14138	95	8532
0	14161	95.4	8547
0	14166	95.40819000819	8547
0	14169	95.41638001638	8548
0	14174	95.42456906645	8548
0	14177	95.43275811652	8548
0	14180	95.44094716659	8549
0	14185	95.449135258765	8549
0	14188	95.45732335094	8549
0	14191	95.465511443115	8550
0	14194	95.473698577618	8550
0	14197	95.481885712121	8550
0	14202	95.490072846624	8551
0	14207	95.498259023679	8551
0	14210	95.506445200734	8551
0	14215	95.514631377789	8552
0	14220	95.522816597621	8552
0	14223	95.531001817453	8552
0	14226	95.539187037285	8552
0	14229	95.547372257117	8553
0	14236	95.572358584871	8554
0	14241	95.598481608794	8555
0	14246	95.624737631854	8556
0	14251	95.648895281796	8557
0	14256	95.65838669063	8557
0	14261	95.750454576855	8561
0	14266	95.761532130248	8561
0	14271	95.786034567848	8562
0	14276	95.796481572441	8562
0	14279	95.804657232334	8563
0	14286	95.830732333047	8564
0	14289	95.838906083631	8564
0	14296	95.874206231053	8565
0	14299	95.882379027317	8566
0	14306	95.981634055894	8569
0	14310	96	8570
0	14343	96.4	8585
0	14344	96.408153756552	8586
0	14349	96.416306563447	8586
0	14352	96.424459370342	8586
0	14357	96.432612177237	8587
0	14360	96.440764034696	8587
0	14363	96.448915892155	8587
0	14366	96.457067749614	8587
0	14369	96.465219607073	8588
0	14372	96.473370515317	8588
0	14377	96.481521423561	8588
0	14380	96.489672331805	8589
0	14383	96.497822291055	8589
0	14386	96.505972250305	8589
0	14389	96.514122209555	8590
0	14392	96.522271220032	8590
0	14395	96.530420230509	8590
0	14400	96.538569240986	8591
0	14403	96.546717302911	8591
0	14408	96.554865364836	8591
0	14411	96.563013426761	8591
0	14418	96.584520590834	8592
0	14423	96.616672559546	8594
0	14426	96.62481777714	8594
0	14433	96.641577667889	8594
0	14436	96.649722885483	8595
0	14443	96.689654080335	8596
0	14449	96.705896891696	8599
0	14452	96.714037373147	8600
0	14459	96.760417327456	8610
0	14462	96.768547408757	8612
0	14469	96.805634944475	8619
0	14474	96.864359442079	8631
0	14479	96.907442378737	8640
0	14482	96.915544230589	8641
0	14489	96.962356211706	8651
0	14493	97	8659
0	14510	97.4	8740
0	14511	97.408009153318	8741
0	14516	97.416017390362	8743
0	14519	97.424023795486	8745
0	14522	97.432028369528	8746
0	14525	97.440032028343	8748
0	14528	97.448033857332	8749
0	14531	97.456034771722	8751
0	14534	97.464033857541	8753
0	14541	97.518745372419	8764
0	14546	97.571019755777	8774
0	14551	97.582419823034	8777
0	14556	97.638279578815	8788
0	14561	97.693453513563	8799
0	14566	97.746685918886	8810
0	14571	97.784441225486	8818
0	14576	97.813956259312	8824
0	14581	97.844338607403	8830
0	14586	97.889759435412	8839
0	14591	97.941948660479	8850
0	14596	97.96333091437	8854
0	14600	98	8861
0	14621	98.4	8943
0	14622	98.407827351001	8944
0	14625	98.415653826851	8946
0	14630	98.423478552986	8947
0	14633	98.431302404556	8949
0	14638	98.439124507584	8950
0	14641	98.446945736634	8952
0	14646	98.454765218314	8954
0	14649	98.462582953404	8955
0	14652	98.470399815492	8957
0	14655	98.478214932161	8958
0	14658	98.486029176412	8960
0	14661	98.493841676412	8962
0	14668	98.534880201235	8970
0	14673	98.546101644243	8972
0	14676	98.553903695068	8974
0	14683	98.594974870604	8982
0	14689	98.602768235111	8984
0	14692	98.610559864675	8986
0	14697	98.618349760068	8988
0	14704	98.689444460165	9006
0	14709	98.709195665383	9011
0	14714	98.729770372675	9016
0	14719	98.756285274712	9023
0	14724	98.78071335874	9029
0	14729	98.802976874283	9035
0	14734	98.830159031192	9042
0	14739	98.872064804192	9053
0	14744	98.908365820091	9062
0	14749	98.935683263719	9069
0	14754	98.950484802773	9073
0	14759	98.97784184324	9080
0	14762	98.985551094341	9082
0	14768	99	9085
0	14792	99.4	9007
0	14793	99.407771733096	8991
0	14796	99.415557296437	8975
0	14799	99.423356739334	8959
0	14802	99.431170111362	8943
0	14805	99.438997462363	8927
0	14808	99.446838842446	8911
0	14811	99.45469430199	8895
0	14814	99.462563891647	8879
0	14817	99.470447662342	8863
0	14820	99.478345665276	8847
0	14827	99.490302553364	8823
0	14832	99.526278188856	8749
0	14837	99.560155225821	8680
0	14842	99.610673083958	8577
0	14847	99.644308765756	8509
0	14852	99.65742359582	8482
0	14857	99.805307937373	8181
0	14860	99.81386434857	8164
0	14868	99.887648783747	8291
0	14873	99.924539572547	8443
0	14878	99.97523593432	8651
0	14883	99.989624523865	8710
0	14887	100	8752
0	14908	100.4	9164
0	14909	100.40763858577	9164
0	14912	100.41527717154	9165
0	14915	100.422914923859	9165
0	14918	100.430552676178	9165
0	14921	100.438190428497	9166
0	14926	100.445827347546	9166
0	14929	100.453464266595	9167
0	14932	100.461100352556	9167
0	14935	100.468736438517	9168
0	14942	100.52997794469	9171
0	14947	100.554678368644	9173
0	14950	100.56230945989	9173
0	14957	100.569940551136	9173
0	14960	100.577571642382	9174
0	14965	100.585201901811	9174
0	14972	100.663206008569	9179
0	14975	100.67083211163	9179
0	14982	100.695815836226	9181
0	14985	100.703440278008	9181
0	14990	100.71106471979	9182
0	14997	100.824481456807	9188
0	15002	100.863674277405	9190
0	15007	100.876329383143	9191
0	15012	100.912500190709	9193
0	15017	100.923356258242	9194
0	15020	100.930969919325	9194
0	15027	100.979518688061	9197
0	15032	100.990038463485	9198
0	15036	101	9198
0	15045	101.4	9221
0	15046	101.407591367531	9222
0	15053	101.415181911881	9222
0	15058	101.422772456231	9222
0	15065	101.430363000581	9223
0	15068	101.43795272193	9223
0	15071	101.445542443279	9224
0	15074	101.453131341805	9224
0	15077	101.460720240331	9225
0	15084	101.469350373276	9225
0	15090	101.569678349182	8973
0	15093	101.577479530504	8947
0	15102	101.585303382074	8922
0	15107	101.593149156564	8896
0	15110	101.6010178616	8870
0	15113	101.608909631611	8844
0	15120	101.659079028841	8679
0	15125	101.672399636714	8635
0	15128	101.680506179852	8608
0	15133	101.688638150112	8582
0	15141	101.801805582621	8365
0	15146	101.812111566295	8395
0	15151	101.862101365621	8538
0	15156	101.910696880105	8677
0	15161	101.928834700777	8729
0	15165	102	8933
0	15185	102.4	9292
0	15186	102.407533362032	9213
0	15192	102.415131321437	9176
0	15195	102.422759917775	9174
0	15200	102.430390177204	9172
0	15203	102.438022100449	9169
0	15206	102.445656520778	9167
0	15209	102.453292606739	9165
0	15212	102.460930359058	9162
0	15217	102.468570612278	9160
0	15220	102.476212533675	9158
0	15225	102.483856123979	9156
0	15228	102.491501383918	9153
0	15235	102.581757291509	9126
0	15240	102.605558946366	9119
0	15245	102.626985429354	9113
0	15250	102.664440755641	9101
0	15255	102.689586195715	9094
0	15260	102.711220846254	9087
0	15265	102.794935075705	9062
0	15270	102.89068949364	9034
0	15275	102.900590875969	9031
0	15280	102.976218183335	9008
0	15285	102.98691550195	9005
0	15289	103	9001
0	15318	103.4	8881
0	15319	103.407881995271	8879
0	15322	103.415765765966	8876
0	15325	103.423652201297	8874
0	15328	103.431540414053	8872
0	15333	103.439430405036	8869
0	15336	103.447323064862	8867
0	15341	103.455217504921	8864
0	15344	103.463114616834	8862
0	15347	103.471013510989	8860
0	15350	103.47891418819	8857
0	15353	103.48681754147	8855
0	15358	103.49472267981	8853
0	15361	103.502629604016	8850
0	15364	103.510539208536	8848
0	15367	103.518450600941	8846
0	15370	103.52636378204	8843
0	15377	103.537005030482	8840
0	15382	103.570438087448	8830
0	15385	103.578365607267	8828
0	15392	103.628205421906	8813
0	15397	103.656411998004	8804
0	15402	103.719612647672	8785
0	15407	103.749697664341	8776
0	15412	103.772818685691	8769
0	15417	103.786094758538	8765
0	15422	103.860652284083	8743
0	15425	103.868658689207	8741
0	15432	103.949112196451	8716
0	15437	103.974244836886	8709
0	15442	103.985334159887	8706
0	15445	103.993374591773	8703
0	15448	104	8701
0	15472	104.401417795266	8581
0	15473	104.40957535266	8578
0	15476	104.417735763012	8576
0	15479	104.425898076445	8574
0	15482	104.434062293846	8571
0	15485	104.442229368866	8569
0	15488	104.450398350077	8566
0	15491	104.458570192244	8564
0	15494	104.466743942828	8561
0	15497	104.474920557709	8559
0	15504	104.523667881674	8544
0	15507	104.531860765569	8542
0	15515	104.612675956551	8522
0	15518	104.620889990815	8524
0	15525	104.634472828673	8526
0	15530	104.712144000162	8539
0	15535	104.771670216776	8550
0	15543	104.826129158871	8559
0	15554	104.87742309556	8568
0	15560	104.890050924502	8570
0	15565	104.929701640267	8577
0	15572	104.965931896509	8583
0	15577	104.979421534198	8585
0	15581	105	8589
0	15586	105.102633042752	8607
0	15589	105.110765957821	8608
0	15597	105.164177716198	8617
0	15603	105.203143312809	8624
0	15609	105.251520133096	8632
0	15616	105.316317012644	8644
0	15622	105.349060737682	8649
0	15625	105.357154158887	8651
0	15632	105.365802205167	8652
0	15640	105.401833616134	8658
0	15645	105.432584937083	8664
0	15650	105.45305861102	8667
0	15653	105.461135223458	8669
0	15660	105.538975400221	8682
0	15663	105.547038058595	8683
0	15668	105.555099788412	8685
0	15675	105.571355490248	8688
0	15680	105.593853682215	8691
0	15683	105.60190799127	8693
0	15690	105.625021732837	8697
0	15693	105.63307048528	8698
0	15698	105.641118312367	8700
0	15705	105.658995689677	8703
0	15710	105.702672115603	8710
0	15713	105.710708854983	8712
0	15720	105.771604038919	8722
0	15723	105.779629721102	8723
0	15728	105.787654483225	8725
0	15735	105.811456411333	8729
0	15740	105.823512102044	8731
0	15745	105.844888760675	8735
0	15748	105.852902498511	8736
0	15755	105.890565780027	8743
0	15759	106	8761
0	15778	106.4	8830
0	15779	106.407927519819	8832
0	15782	106.415853244457	8833
0	15785	106.423778071809	8835
0	15788	106.431701105199	8836
0	15791	106.439623241912	8837
0	15794	106.447544482152	8839
0	15797	106.455463930053	8840
0	15800	106.463382482089	8841
0	15805	106.471300138463	8843
0	15812	106.480989215526	8844
0	15817	106.490954051816	8846
0	15822	106.506237700425	8849
0	15827	106.545581486503	8856
0	15832	106.562215091353	8858
0	15837	106.715225159569	8885
0	15842	106.752764111957	8891
0	15847	106.843890132628	8907
0	15852	106.859480288388	8910
0	15857	106.869669162065	8911
0	15862	106.95038848361	8925
0	15867	106.994875984748	8933
0	15868	107	8934
0	15894	107.402712098036	9003
0	15897	107.410487284085	9005
0	15900	107.418260743274	9006
0	15903	107.426033339321	9007
0	15908	107.433805072417	9009
0	15911	107.441575080187	9010
0	15916	107.449344225581	9011
0	15919	107.45711250879	9013
0	15922	107.464879068204	9014
0	15925	107.472644766007	9015
0	15928	107.480409602391	9017
0	15931	107.488172716509	9018
0	15934	107.49593496978	9019
0	15937	107.503696362396	9021
0	15942	107.511456034273	9022
0	15947	107.519214846066	9023
0	15952	107.526972797967	9025
0	15959	107.539785995537	9027
0	15964	107.563624860191	9031
0	15969	107.687977887857	9053
0	15974	107.780861878722	9069
0	15977	107.788580480552	9070
0	15986	107.823637568283	9076
0	15989	107.826033339321	9076
0	16004	107.880811206673	9086
0	16016	107.936468540055	9095
0	16022	107.964493703282	9100
0	16027	108	9106
0	16030	108.095710131312	9123
0	16035	108.162257597469	9134
0	16040	108.185537253031	9138
0	16047	108.216629166611	9144
[...]
6	57257	381.518257343816	0.062468059591
6	57262	381.525638974102	0.069399896202
6	57265	381.533019826063	0.007576617278
6	57270	381.567972262467	0.007375408282
6	57275	381.588367451607	0.007372301211
6	57282	381.626710677255	0.007366870133
6	57285	381.634076772172	0.014205322837
6	57290	381.651636600865	0.007362995687
6	57296	381.683889272537	0.007358351729
6	57301	381.785315735222	0.007346767422
6	57306	381.84206624534	0.007339834329
6	57311	381.852511028254	0.007338295419
6	57316	381.864194681587	0.007336757153
6	57321	381.931036123207	0.007329075489
6	57328	381.973918001117	0.007323707889
6	57331	381.981240942847	0.007946642261
6	57337	382.002406519298	0.007320644217
6	57367	382.409679246571	0.403962096233
6	57370	382.416951218314	0.395938907585
6	57373	382.424221679469	0.395184364014
6	57376	382.431491385565	0.400283821819
6	57379	382.438760336759	0.331756589846
6	57382	382.446028533208	0.323641087959
6	57387	382.453295975068	0.275693257668
6	57390	382.460562662497	0.225060699581
6	57393	382.46782859565	0.211371538419
6	57396	382.475093020723	0.163035639744
6	57399	382.48235669199	0.153679481223
6	57402	382.489619609608	0.096295596212
6	57407	382.496881773733	0.103103277245
6	57410	382.504143184521	0.054225534494
6	57413	382.511403842129	0.019120124541
6	57418	382.550480653657	0.007256141806
6	57423	382.667739569682	0.007242628039
6	57428	382.730497523518	0.007235142119
6	57433	382.783251242718	0.007229164515
6	57443	382.843190121247	0.007221706386
6	57449	382.852477269867	0.007220961419
6	57456	382.861216798856	0.007220216606
6	57462	382.871967572248	0.007218727441
6	57473	382.914958537701	0.007213520198
6	57478	382.934191307622	0.007211290821
6	57487	383.131592778576	0.00718907261
6	57494	383.149923407069	0.007186858316
6	57497	383.157109527591	0.008885764248
6	57502	383.164662595108	0.007184645386
6	57508	383.211195574777	0.007179487179
6	57516	383.266083034384	0.007173601148
6	57524	383.355436293307	0.007163323782
6	57530	383.409405995124	0.00715673244
6	57535	383.446320760934	0.007153075823
6	57540	383.489217887652	0.007147962831
6	57547	383.503866095432	0.007146503318
6	57550	383.511011869217	0.014118223949
6	57555	383.543064029168	0.007142128354
6	57560	383.63032574272	0.007131940907
6	57565	383.722293232706	0.00712178248
6	57570	383.73670556893	0.007120333638
6	57577	383.832545421514	0.007109486086
6	57580	383.839654185605	0.013194774295
6	57585	383.903982360175	0.007101552196
6	57590	383.939485801511	0.007097232079
6	57595	383.967941294409	0.00709435492
6	57625	384.407420756917	0.399747929181
6	57628	384.414852543731	0.377491181821
6	57631	384.422295393279	0.346028765479
6	57634	384.429749338546	0.241276846944
6	57637	384.437214412664	0.231388938919
6	57640	384.444690648913	0.200865681125
6	57643	384.45217888169	0.139247241463
6	57646	384.459678346014	0.146031615195
6	57649	384.467189075628	0.138112717966
6	57654	384.474711104427	0.134281575403
6	57657	384.482244466459	0.114768704216
6	57660	384.489790009199	0.104984773658
6	57665	384.497346956192	0.023364168531
6	57668	384.504915341963	0.007584868352
6	57673	384.550525621944	0.00764025322
6	57680	384.563213181752	0.007660319545
6	57685	384.570885255404	0.011851506339
6	57688	384.578569962836	0.011089319669
6	57693	384.627786807155	0.007763975155
6	57698	384.671254918308	0.007835236176
6	57706	384.752560708101	0.007953641632
6	57709	384.760507126537	0.009413518333
6	57716	384.820073280767	0.007898002934
6	57719	384.827965050778	0.012446856988
6	57724	384.84606524739	0.007876673793
6	57729	384.864520034123	0.00786163522
6	57734	384.92550526731	0.007813372028
6	57741	384.983681851545	0.007767421216
6	57744	384.991443244161	0.012776348361
6	57777	385.407447600809	0.37879201421
6	57780	385.41488965907	0.375967399942
6	57785	385.422326183026	0.37396436995
6	57788	385.42975796984	0.310821950196
6	57791	385.43718423761	0.307381870001
6	57796	385.444604994527	0.313323223334
6	57799	385.452020248764	0.168340624811
6	57802	385.459430008476	0.157984819546
6	57805	385.466835065072	0.162687888377
6	57808	385.474234642239	0.1011558467
6	57811	385.48162874808	0.105682991768
6	57816	385.489017390681	0.092410137603
6	57819	385.496401356926	0.096467877429
6	57822	385.503779874898	0.100751806113
6	57825	385.511152952631	0.094431823282
6	57828	385.518521373684	0.080291204115
6	57831	385.525884369371	0.037141046409
6	57836	385.54220982175	0.007351396765
6	57841	385.619630846648	0.007296987387
6	57846	385.632934700374	0.007287870901
6	57851	385.727172822588	0.007223196781
6	57856	385.810070978637	0.007166990888
6	57861	385.820245756969	0.007160392799
6	57866	385.919117489931	0.007095073991
6	57873	385.940681303153	0.00708072021
6	57880	385.947757728547	0.007729706185
6	57884	385.954829149903	0.011365071506
6	57887	385.961900571259	0.01500512855
6	57892	385.982402844835	0.007071421356
6	57899	385.994854323164	0.007071421356
6	57903	386.001926458949	0.013913902776
6	57929	386.409005746975	0.398835615849
6	57932	386.416085035001	0.384372127614
6	57935	386.423164323027	0.385473240176
6	57938	386.430244327073	0.254906803551
6	57941	386.437324331119	0.252309218445
6	57944	386.444404335165	0.254093142497
6	57949	386.451484339211	0.166409538072
6	57952	386.458564343257	0.165205735636
6	57955	386.465645063467	0.128366872975
6	57958	386.472725783677	0.124064264052
6	57961	386.479806503887	0.099254074663
6	57964	386.486887224097	0.035781145143
6	57969	386.501266542896	0.00708072021
6	57976	386.578520410595	0.007082152975
6	57979	386.585603280169	0.014069486933
6	57986	386.680311811257	0.007084303208
6	57989	386.687396114465	0.008664374047
6	57994	386.695810638279	0.007084303208
6	57999	386.737000925856	0.007085020243
6	58004	386.758148970511	0.007085737423
6	58009	386.802080132478	0.007086454748
6	58016	386.818925576456	0.007087172218
6	58030	386.88602614112	0.007087889834
6	58037	386.917736454929	0.007088607595
6	58042	386.948565295121	0.007089325501
6	58047	386.960847397412	0.007089325501
6	58054	386.989364368974	0.007090043553
6	58064	387.08740329135	0.043312518423
6	58067	387.094488313047	0.032656171518
6	58074	387.151733169733	0.007092917216
6	58081	387.211089226667	0.00709435492
6	58088	387.29167056622	0.007095793208
6	58095	387.358545743185	0.007096512571
6	58101	387.369236002	0.007097232079
6	58107	387.390261814272	0.007097232079
6	58113	387.413453426818	0.007097951734
6	58118	387.429936769689	0.007097951734
6	58125	387.456952863742	0.007098671534
6	58128	387.464051535276	0.012387150343
6	58133	387.581408439562	0.007100831812
6	58138	387.636379650233	0.007101552196
6	58143	387.6565442669	0.007102272727
6	58150	387.695673923135	0.007102993404
6	58153	387.702776916539	0.011672585156
6	58158	387.718451851422	0.007103714228
6	58163	387.754541709287	0.007103714228
6	58170	387.779132104327	0.007104435197
6	58173	387.786236539524	0.007498573036
6	58178	387.865079186205	0.007105877576
6	58183	387.880985050363	0.007106598985
6	58189	387.954556443156	0.007140671223
6	58196	387.980125032561	0.007160392799
6	58199	387.987290556156	0.007419230018
6	58226	388.407507507508	0.312458512431
6	58229	388.415021461995	0.253803625114
6	58234	388.422541874543	0.25523594976
6	58237	388.430068756263	0.237814227661
6	58240	388.437602118295	0.178508800954
6	58243	388.445141971806	0.18212230365
6	58248	388.452688327994	0.189004986961
6	58253	388.460241198085	0.183495285816
6	58258	388.467800593333	0.189336484197
6	58261	388.475366525023	0.156254159689
6	58264	388.482939004469	0.140975280114
6	58267	388.490518043014	0.07018967186
6	58272	388.49810365203	0.048043048815
6	58277	388.505695842919	0.051621394152
6	58280	388.513294627114	0.051887768372
6	58283	388.520900016075	0.026567967495
6	58286	388.528512021295	0.02701832967
6	58291	388.548800097931	0.007630259429
6	58296	388.593358230792	0.007669551879
6	58302	388.604680621889	0.00767964893
6	58307	388.61760346618	0.007694844454
6	58312	388.667127410238	0.007756232687
6	58319	388.710539318071	0.007811628166
6	58322	388.718361421099	0.011816438837
6	58327	388.739901026313	0.007849293564
6	58332	388.749503780738	0.00786163522
6	58341	388.76552658867	0.007882882883
6	58344	388.773419248496	0.01575835467
6	58347	388.781322601776	0.022021862162
6	58352	388.7916698324	0.007916760914
6	58357	388.917616314342	0.008085942012
6	58362	388.928332854883	0.008100914246
6	58369	388.945087349546	0.008123476848
6	58372	388.953222154892	0.013413368957
6	58378	389.002574205881	0.008203445447
6	58409	389.410303034411	0.341465010353
6	58412	389.418018233353	0.334812132919
6	58415	389.425720698142	0.334762931826
6	58418	389.433409626086	0.262628168251
6	58423	389.44108590638	0.240982975285
6	58428	389.448748741629	0.246025701621
6	58431	389.456399014853	0.242590767659
6	58434	389.464035933902	0.238662844993
6	58441	389.471660375684	0.21443521756
6	58444	389.479271553242	0.195902174125
6	58447	389.486870337437	0.16632486174
6	58450	389.494456768563	0.14068663162
6	58455	389.502030067276	0.103000148196
6	58458	389.509591095576	0.07446592608
6	58461	389.51713989316	0.069744147085
6	58464	389.524675688186	0.059870407308
6	58467	389.53219933393	0.065699769194
6	58470	389.539710869502	0.038631477602
6	58475	389.576669379484	0.007451564829
6	58480	389.646963997983	0.007340604027
6	58485	389.768694549772	0.007156000818
6	58494	389.832396539718	0.007136303395
6	58509	389.908500043753	0.007166257166
6	58520	389.918680358748	0.00717066175
6	58523	389.924312759232	0.009785269237
6	58527	389.925853959896	0.009839427308
6	58535	389.977029319948	0.007193505292
6	58540	389.986622783765	0.007197943445
6	58547	390.054188685773	0.051469989161
6	58552	390.069872007986	0.007231404959
6	58557	390.104886303665	0.007245626747
6	58562	390.142548348319	0.007260657608
6	58570	390.175672501121	0.007274238803
6	58573	390.18294976487	0.009897888924
6	58580	390.207141469225	0.007287112222
6	58583	390.214431617111	0.008296267525
6	58589	390.25278742436	0.007306126709
6	58594	390.263575022229	0.007310704961
6	58599	390.297117046031	0.007324474207
6	58608	390.364560103497	0.007352941176
6	58615	390.394672719372	0.007365319865
6	58623	390.412440110728	0.007372301211
6	58626	390.41981551901	0.009353767284
6	58631	390.432367299883	0.007380851961
6	58636	390.502467596988	0.007410544146
6	58641	390.511422261555	0.007414468806
6	58646	390.560456641701	0.007435734013
6	58651	390.599694911438	0.007452358139
6	58656	390.716454300568	0.007502679528
6	58661	390.837020993852	0.007556131261
6	58668	390.89195910691	0.007579859231
6	58671	390.89954307224	0.012270197593
6	58676	390.925441619888	0.007595486111
6	58681	390.949903878951	0.007606215365
6	58710	391.407816862088	0.37833645981
6	58713	391.415637217356	0.304663986077
6	58718	391.423461943491	0.275316049969
6	58723	391.431290169839	0.272245302808
6	58726	391.439121899532	0.267083224545
6	58733	391.446957135708	0.260426482054
6	58736	391.454796759406	0.261511725919
6	58739	391.462639896661	0.245549693117
6	58742	391.470486550624	0.220947196145
6	58745	391.478336724449	0.223513524981
6	58748	391.486191302546	0.184731793844
6	58751	391.49404940762	0.135590909055
6	58754	391.50191104284	0.082615790999
6	58757	391.509776211379	0.08032747579
6	58760	391.517645801036	0.076441421864
6	58765	391.525518931168	0.082192789718
6	58768	391.533395604961	0.008771840358
6	58773	391.570769877406	0.007895330476
6	58778	391.600978017684	0.00790960452
6	58783	391.628575398844	0.00792303339
6	58788	391.673539561215	0.007944614686
6	58793	391.766479433796	0.00799086758
6	58798	391.824291131516	0.008019246191
6	58803	391.87773502814	0.008045977011
6	58810	391.971503507915	0.008093421205
6	58815	391.979600673907	0.014906635924
6	58818	391.987702525759	0.011021802852
6	58845	392.408321445554	0.405229905721
6	58854	392.416646849931	0.396113124912
6	58857	392.424977208136	0.333615184872
6	58862	392.433311533651	0.261370471267
6	58865	392.44165082362	0.269062057442
6	58872	392.449994089413	0.214452925827
6	58877	392.458342330319	0.206436907215
6	58880	392.46669455559	0.196960585387
6	58883	392.475051766669	0.142656910118
6	58886	392.483412970682	0.128972709627
6	58889	392.491779171232	0.127301028595
6	58892	392.500149373313	0.091472174762
6	58895	392.508524582693	0.099418400329
6	58898	392.516903802229	0.105585420237
6	58901	392.525288039862	0.099396251592
6	58904	392.533677301607	0.09176292181
6	58909	392.542070586979	0.098924139967
6	58912	392.550468907315	0.099238797973
6	58915	392.558871259974	0.021077109622
6	58920	392.571804748533	0.008409418549
6	58925	392.638895970574	0.008446965126
6	58930	392.690684673008	0.008475602373
6	58937	392.709876544696	0.008485877076
6	58940	392.718367568471	0.012105750859
6	58945	392.733099076764	0.008499271491
6	58950	392.884475029924	0.008584743684
6	58985	393.407534983854	0.395714356313
6	58988	393.415067535237	0.381216386608
6	58991	393.422597655719	0.365230113097
6	58994	393.430125346869	0.320857046717
6	58997	393.437650610253	0.308294968841
6	59000	393.445173447437	0.300610050363
6	59003	393.452694668024	0.290224970903
6	59006	393.460213465016	0.274304343723
6	59009	393.467729839976	0.268440842916
6	59012	393.475243794463	0.158756041449
6	59015	393.482755330035	0.151552759988
6	59020	393.49026444825	0.118040862615
6	59025	393.497771955758	0.104979658928
6	59028	393.5052770485	0.111575171751
6	59031	393.512779728028	0.029100889728
6	59034	393.520279995895	0.027363177897
6	59039	393.573988187598	0.007484229659
6	59044	393.584488719463	0.007481030245
6	59049	393.634828777496	0.007465870307
6	59054	393.746512527196	0.007432575918
6	59059	393.800098538149	0.007416825599
6	59064	393.85145672091	0.0074019245
6	59069	393.870754175386	0.007396449704
6	59074	393.91047321406	0.007384745226
6	59081	393.941062313904	0.007375408282
6	59084	393.948435391637	0.012221653522
6	59119	394.40724187875	0.391499123458
6	59124	394.414481510563	0.341734437994
6	59127	394.421719645192	0.334909980042
6	59132	394.428955535206	0.335128594652
6	59135	394.436189181997	0.324633641804
6	59138	394.443420586956	0.326227063991
6	59141	394.450650498131	0.322677090373
6	59144	394.457878169788	0.258805312719
6	59147	394.465103603314	0.264421451926
6	59150	394.472327545522	0.271468648448
6	59155	394.479549251908	0.278117514558
6	59158	394.486768723855	0.283049010551
6	59161	394.493985962746	0.279134297283
6	59164	394.5012017137	0.198208466286
6	59167	394.508415233898	0.106261268385
6	59170	394.515626524719	0.103331024487
6	59173	394.522836330054	0.096823827619
6	59176	394.530043908308	0.051926269483
6	59181	394.562119565757	0.007198683669
6	59188	394.599577762691	0.00718833436
6	59193	394.606763883213	0.009974875458
6	59196	394.613947791259	0.012992200302
6	59201	394.647432636655	0.007175071751
6	59206	394.702871175292	0.007159660428
6	59211	394.716809979162	0.007156000818
6	59216	394.724942667826	0.007153806847
6	59221	394.802975088702	0.007131940907
6	59226	394.844573714676	0.007121057986
6	59231	394.886437965446	0.007109486086
6	59238	394.903537358817	0.007429420505
6	59243	394.918741294268	0.007977207977
6	59248	394.94629204191	0.007985398129
6	59253	394.969697545048	0.007992692396
6	59284	395.408132915069	0.344136996749
6	59287	395.416268665883	0.342913379569
6	59290	395.424407254419	0.340552057149
6	59293	395.43254773587	0.347622481373
6	59296	395.440691058346	0.343227164472
6	59301	395.44883722383	0.349031012333
6	59305	395.456986234307	0.345068147796
6	59308	395.465134296232	0.294762274747
6	59311	395.473277618708	0.286733093442
6	59314	395.481415261117	0.247781151243
6	59317	395.489547231377	0.225830857014
6	59320	395.49767353739	0.195580260747
6	59323	395.505795129222	0.147327539751
6	59326	395.513911071251	0.069923937509
6	59331	395.530351376549	0.008104665972
6	59340	395.540525637899	0.00809810273
6	59343	395.548618123448	0.013980654093
6	59346	395.556705933962	0.021430631106
6	59351	395.580100687391	0.00807195572
6	59356	395.666195941565	0.008015573113
6	59361	395.697587608489	0.007995431182
6	59366	395.848353967045	0.007899785577
6	59373	395.880485955158	0.007879333633
6	59376	395.888359970906	0.009352018613
6	59381	395.942031133219	0.007840501792
6	59386	395.979958824711	0.00781773509
6	59420	396.408371203061	0.338989425628
6	59423	396.416754436594	0.343636260403
6	59427	396.42515074222	0.303755552362
6	59430	396.433546040853	0.310159877127
6	59433	396.441932287409	0.311956009885
6	59436	396.450309501387	0.304567599562
6	59441	396.458677702224	0.204667819587
6	59444	396.467036909294	0.209316212091
6	59449	396.475388138118	0.147527168084
6	59452	396.483730409599	0.151744085504
6	59455	396.492063742932	0.147611020292
6	59458	396.50038815725	0.132094615608
6	59461	396.508703671624	0.135846265597
6	59464	396.517011290898	0.117737280114
6	59467	396.525310046085	0.068641330926
6	59470	396.53359995608	0.059416831775
6	59475	396.613447799	0.008208255159
6	59482	396.651690766991	0.008168981211
6	59485	396.659852128773	0.011557118392
6	59490	396.80747338916	0.008015573113
6	59495	396.844317725872	0.007979936161
6	59502	396.908803092114	0.007918552036
6	59505	396.916713590475	0.015483054911
6	59512	396.959662930888	0.007870474477
6	59515	396.96752544914	0.014468159453
6	59520	396.97975245411	0.007851934941
6	59552	397.407794232268	0.382064935005
6	59555	397.415598892765	0.375860748345
6	59558	397.423414009434	0.324506301589
6	59561	397.431238735569	0.302685901865
6	59564	397.439073971745	0.295478924728
6	59567	397.446919746235	0.290426521207
6	59570	397.454776087425	0.277488121935
6	59573	397.46264213979	0.278835299726
6	59576	397.470518813583	0.23380057749
6	59579	397.478406137527	0.170753315424
6	59582	397.486304140461	0.110406550961
6	59585	397.494212851341	0.113813029431
6	59588	397.502131403377	0.110422975629
6	59593	397.545175370997	0.007977207977
6	59598	397.598932134767	0.008050603795
6	59605	397.60945708914	0.008065445328
6	59608	397.617533701578	0.008293597566
6	59613	397.664162238826	0.008142375247
6	59620	397.684947278528	0.008171842167
6	59623	397.693130584584	0.014148303168
6	59628	397.731637678166	0.008239171375
6	59633	397.788604761296	0.008322434907
6	59638	397.829184774977	0.008382229673
6	59643	397.854604747425	0.008420546133
6	59648	397.879063146775	0.008458192363
6	59653	397.999204549558	0.008646245059
6	59687	398.40849823965	0.379150167311
6	59690	398.416992354442	0.363916509126
6	59693	398.425482348378	0.370591599597
6	59696	398.433967196863	0.326451536159
6	59701	398.442447933476	0.323030424697
6	59704	398.4509245622	0.322245403455
6	59707	398.459397087012	0.322188621027
6	59710	398.46786448752	0.315674250195
6	59713	398.476327793045	0.321150918002
6	59718	398.484787007547	0.275212203329
6	59721	398.493242134978	0.275519279946
6	59724	398.501692159121	0.211807953559
6	59729	398.510138105067	0.151432413189
6	59732	398.518579976751	0.155936709395
6	59735	398.527017778101	0.085062600664
6	59738	398.535450497051	0.052367052904
6	59741	398.543879154486	0.034137836271
6	59746	398.655800124594	0.008372204282
6	59751	398.678972635953	0.008360205422
6	59756	398.781644640886	0.008309591643
6	59761	398.803406238049	0.008298755187
6	59766	398.819256120293	0.008290891863
6	59771	398.931036331046	0.00823626309
6	59776	398.943454019593	0.008229485069
6	59803	399.408010069802	0.373835311306
6	59808	399.416016474926	0.376785375985
6	59813	399.424019218724	0.376249211822
6	59816	399.432018304543	0.231033434026
6	59819	399.440013735725	0.235535472547
6	59822	399.448005515609	0.192263819171
6	59825	399.455993647527	0.198294826895
6	59830	399.463978134809	0.171874985148
6	59833	399.471958980779	0.164363335292
6	59836	399.479936188756	0.146579243842
6	59839	399.487909762056	0.135635328975
6	59842	399.495879703989	0.086137995543
6	59845	399.503846017862	0.084143734445
6	59848	399.511808706976	0.055196399645
6	59853	399.553055129632	0.007943713118
6	59858	399.57644858429	0.007932910245
6	59863	399.63994318102	0.007904245709
6	59868	399.660331423233	0.007895330476
6	59873	399.708063701104	0.007874015748
6	59878	399.724707970957	0.00786693639
6	59883	399.747848046598	0.00785634119
6	59888	399.870361014451	0.007802050825
6	59893	399.9464851378	0.007769145394

