version 2
run Exponential-capacity-5-20210215-11:02:27-10772
attr configname Exponential-capacity
attr datetime 20210215-11:02:27
attr experiment Exponential-capacity
attr inifile aerocom.ini
attr iterationvars "$0=20, $1=3"
attr iterationvarsf 20,3-
attr measurement "$0=20, $1=3"
attr network Aerocom
attr processid 10772
attr repetition 0
attr replication #0
attr resultdir results
attr runnumber 5
attr seedset 0
param **.t 1s
param **.k 20ms
param **.X 0.4s
param **.m 3s
param **.tDistribution "\"exponential\""
param **.operationMode 0
param **.s "70 byte"
param **.dimPoolMax 10000
param **.dimPoolMin 8000
param **.nDL 1
param **.nA 1
param **.DLMaxCapacity 0
param **.trasmitting false

vector 0 Aerocom.aircraft[0].packetGenerator arrivalTime:vector ETV
attr "" ""
attr source computeArrivalTime
vector 1 Aerocom.aircraft[0].linkSelector waitingTime:vector ETV
attr "" ""
attr source computeWaitingTime
vector 2 Aerocom.aircraft[0].linkSelector queueLength:vector ETV
attr "" ""
attr source computeQueueLength
vector 3 Aerocom.aircraft[0].dataLink[0] actualCapacity:vector ETV
attr "" ""
attr source computeActualCapacity
vector 4 Aerocom.aircraft[0].linkSelector serviceTime:vector ETV
attr "" ""
attr source computeServiceTime
vector 5 Aerocom.aircraft[0].linkSelector responseTime:vector ETV
attr "" ""
attr source computeResponseTime
vector 6 Aerocom.aircraft[0].dataLink[0] tDistribution:vector ETV
attr "" ""
attr source computeTDistribution
0	2664	10.012383330987	0.004049175274
0	2667	10.016432506261	0.004584886504
0	2672	10.021017392765	0.003129515408
0	2675	10.024146908173	0.003605485992
0	2677	10.027752394165	0.013390811817
0	2693	10.041143205982	0.002666812465
0	2695	10.043810018447	0.00878910781
0	2701	10.052599126257	0.02560848708
0	2712	10.078207613337	0.056412718968
0	2723	10.134620332305	0.000618525831
0	2725	10.135238858136	0.028991095529
0	2734	10.164229953665	0.027486860288
0	2740	10.191716813953	0.027619261913
0	2747	10.219336075866	0.001943353567
0	2749	10.221279429433	0.046809839213
0	2760	10.268089268646	0.004903961853
0	2762	10.272993230499	0.001742171665
0	2764	10.274735402164	0.027666329323
0	2779	10.302401731487	0.016067835253
0	2784	10.31846956674	0.026312525166
0	2791	10.344782091906	0.017564301574
0	2797	10.36234639348	0.000933754873
0	2799	10.363280148353	0.065369928016
0	2811	10.428650076369	0.004693116985
0	2814	10.433343193354	0.006910391674
0	2821	10.440253585028	0.006763094297
0	2826	10.447016679325	0.005510558741
0	2832	10.452527238066	0.022618369584
0	2842	10.47514560765	0.002113743482
0	2844	10.477259351132	0.001302257296
0	2846	10.478561608428	0.000331321888
0	2848	10.478892930316	0.016222820445
0	2860	10.495115750761	0.05305117031
0	2869	10.548166921071	0.000185660488
0	2871	10.548352581559	0.022168195084
0	2880	10.570520776643	0.03579979209
0	2887	10.606320568733	0.03075657429
0	2894	10.637077143023	0.083119421911
0	2903	10.720196564934	0.006618197624
0	2906	10.726814762558	0.024313809467
0	2914	10.751128572025	0.017657610899
0	2920	10.768786182924	0.004008843902
0	2923	10.772795026826	0.001321840214
0	2925	10.77411686704	0.014364929602
0	2937	10.788481796642	0.013296154991
0	2942	10.801777951633	0.017371314629
0	2947	10.819149266262	0.075880475662
0	2960	10.895029741924	0.030980233583
0	2967	10.926009975507	0.041831131452
0	2974	10.967841106959	0.018652237105
0	2980	10.986493344064	0.008254597335
0	2985	10.994747941399	0.004928316444
0	2987	10.999676257843	0.065178419544
0	2997	11.064854677387	0.012145585772
0	3002	11.077000263159	0.005271542257
0	3004	11.082271805416	0.042217775488
0	3012	11.124489580904	0.059644013509
0	3022	11.184133594413	0.013556040041
0	3029	11.197689634454	0.056732803868
0	3036	11.254422438322	0.025144739911
0	3041	11.279567178233	0.032109175261
0	3047	11.311676353494	0.013316849733
0	3052	11.324993203227	0.019909272867
0	3058	11.344902476094	0.024657609261
0	3063	11.369560085355	0.041475229262
0	3073	11.411035314617	0.013788690757
0	3078	11.424824005374	0.006935066076
0	3080	11.43175907145	0.03722863286
0	3088	11.46898770431	0.037802033962
0	3096	11.506789738272	0.004321924332
0	3098	11.511111662604	0.019240238532
0	3106	11.530351901136	0.029684849653
0	3112	11.560036750789	0.000266504897
0	3114	11.560303255686	0.073193146615
0	3124	11.633496402301	0.008530716241
0	3129	11.642027118542	0.039654978092
0	3135	11.681682096634	0.00320668189
0	3137	11.684888778524	0.030321378597
0	3146	11.715210157121	0.080158993097
0	3155	11.795369150218	0.084037188525
0	3164	11.879406338743	0.013015946847
0	3169	11.89242228559	0.028013513939
0	3175	11.920435799529	0.013758869569
0	3181	11.934194669098	8.1126426e-005
0	3183	11.934275795524	0.020403741759
0	3192	11.954679537283	0.006279957961
0	3194	11.960959495244	0.009195826356
0	3200	11.9701553216	0.010569344566
0	3209	11.980724666166	0.002944500746
0	3211	11.983669166912	0.0111801534
0	3216	11.994849320312	0.034532667595
0	3225	12.029381987907	0.007071931505
0	3227	12.036453919412	0.004210665764
0	3229	12.040664585176	0.010254292853
0	3236	12.050918878029	0.01432090636
0	3247	12.065239784389	0.002571604746
0	3249	12.067811389135	0.005080227567
0	3251	12.072891616702	0.078952665351
0	3265	12.151844282053	0.002059367274
0	3267	12.153903649327	0.010421576422
0	3272	12.164325225749	0.039637806822
0	3281	12.203963032571	0.016842726057
0	3286	12.220805758628	0.0721788201
0	3292	12.292984578728	0.008419865961
0	3298	12.301404444689	0.064799259338
0	3308	12.366203704027	0.031105887207
0	3317	12.397309591234	0.047407751612
0	3323	12.444717342846	0.010599231585
0	3329	12.455316574431	0.029748595087
0	3339	12.485065169518	0.008902986788
0	3346	12.493968156306	0.008103657647
0	3351	12.502071813953	0.010199816677
0	3356	12.51227163063	0.001691589835
0	3358	12.513963220465	0.007185878103
0	3363	12.521149098568	0.010459353073
0	3368	12.531608451641	0.029852643284
0	3377	12.561461094925	0.005285409283
0	3379	12.566746504208	0.052131436046
0	3390	12.618877940254	0.002842510228
0	3392	12.621720450482	0.007870048222
0	3398	12.629590498704	0.001098147451
0	3400	12.630688646155	0.06109719558
0	3411	12.691785841735	0.025862957176
0	3418	12.717648798911	0.000280931825
0	3420	12.717929730736	0.000229865004
0	3422	12.71815959574	0.015248473684
0	3430	12.733408069424	0.02944408316
0	3438	12.762852152584	0.007264844378
0	3440	12.770116996962	0.003178663593
0	3445	12.773295660555	0.04288770929
0	3455	12.816183369845	0.001657245458
0	3457	12.817840615303	0.005770254207
0	3459	12.82361086951	0.001877490946
0	3464	12.825488360456	0.022627575352
0	3475	12.848115935808	0.022297748438
0	3483	12.870413684246	0.033259315613
0	3490	12.903672999859	0.005630480449
0	3493	12.909303480308	0.011317890833
0	3502	12.920621371141	0.010913154295
0	3508	12.931534525436	0.027897381825
0	3515	12.959431907261	0.016300366618
0	3522	12.975732273879	0.035392396464
0	3527	13.011124670343	0.039401151312
0	3536	13.050525821655	0.009529571652
0	3541	13.060055393307	0.025968912712
0	3546	13.086024306019	0.002030681679
0	3548	13.088054987698	0.006303200574
0	3553	13.094358188272	0.005918037465
0	3556	13.100276225737	0.002819357688
0	3561	13.103095583425	0.0179265841
0	3572	13.121022167525	0.001139330649
0	3574	13.122161498174	0.012943494081
0	3584	13.135104992255	0.007179226368
0	3587	13.142284218623	0.01338605744
0	3596	13.155670276063	0.006079431185
0	3598	13.161749707248	0.012268781792
0	3607	13.17401848904	0.012181289106
0	3614	13.186199778146	0.014871663836
0	3619	13.201071441982	0.022994827755
0	3625	13.224066269737	0.011668475421
0	3631	13.235734745158	0.023789925027
0	3639	13.259524670185	0.038296845153
0	3645	13.297821515338	0.006668066768
0	3647	13.304489582106	0.011363409675
0	3656	13.315852991781	0.00955835975
0	3662	13.325411351531	0.0350742929
0	3669	13.360485644431	0.003997110758
0	3671	13.364482755189	0.014240161312
0	3680	13.378722916501	0.031074910041
0	3686	13.409797826542	0.001806744882
0	3688	13.411604571424	0.001170557979
0	3690	13.412775129403	0.02157853817
0	3702	13.434353667573	0.023880267412
0	3708	13.458233934985	0.004628419439
0	3710	13.462862354424	0.030164304633
0	3719	13.493026659057	0.037582368684
0	3731	13.530609027741	0.030048255874
0	3739	13.560657283615	0.022873812412
0	3747	13.583531096027	0.006006501606
0	3749	13.589537597633	0.003929237718
0	3754	13.593466835351	0.009362129065
0	3763	13.602828964416	0.001448382202
0	3765	13.604277346618	0.017715212921
0	3774	13.621992559539	0.000194708187
0	3776	13.622187267726	0.006371676958
0	3778	13.628558944684	0.044521679789
0	3792	13.673080624473	0.009267800551
0	3797	13.682348425024	0.002865060428
0	3799	13.685213485452	0.004389363218
0	3801	13.68960284867	0.030209232024
0	3814	13.719812080694	0.012318385676
0	3820	13.73213046637	0.051848972176
0	3828	13.783979438546	0.00091276099
0	3830	13.784892199536	0.025117869687
0	3839	13.810010069223	0.032168356982
0	3849	13.842178426205	0.013499019473
0	3854	13.855677445678	0.001601577119
0	3856	13.857279022797	0.01267864253
0	3862	13.869957665327	0.014630906783
0	3871	13.88458857211	0.042861994009
0	3877	13.927450566119	0.007329025837
0	3879	13.934779591956	0.013404637532
0	3888	13.948184229488	0.017233349836
0	3893	13.965417579324	0.010708087022
0	3899	13.976125666346	0.064096176592
0	3912	14.040221842938	0.003825920918
0	3914	14.044047763856	0.020744901882
0	3922	14.064792665738	0.012898169823
0	3927	14.077690835561	0.000720056595
0	3929	14.078410892156	0.030616968379
0	3941	14.109027860535	0.011256504036
0	3946	14.120284364571	0.016257967224
0	3952	14.136542331795	0.014267685656
0	3958	14.150810017451	0.003483903207
0	3960	14.154293920658	0.015365066837
0	3968	14.169658987495	0.00310571171
0	3970	14.172764699205	0.022875907582
0	3980	14.195640606787	0.020965782099
0	3985	14.216606388886	0.00650341741
0	3988	14.223109806296	0.01549684759
0	3996	14.238606653886	0.002759064639
0	3998	14.241365718525	0.007881151439
0	4003	14.249246869964	0.009973846657
0	4012	14.259220716621	0.003180240336
0	4014	14.262400956957	0.062656589791
0	4026	14.325057546748	0.003483974332
0	4028	14.32854152108	0.004143703645
0	4030	14.332685224725	0.002771736428
0	4036	14.335456961153	0.046864798602
0	4050	14.382321759755	0.017298762189
0	4056	14.399620521944	0.015696740392
0	4061	14.415317262336	0.001935949446
0	4063	14.417253211782	0.0122096569
0	4068	14.429462868682	0.04828032861
0	4079	14.477743197292	0.042748433808
0	4087	14.5204916311	0.001732339889
0	4089	14.522223970989	0.012272084195
0	4095	14.534496055184	0.032226639982
0	4105	14.566722695166	0.025759239502
0	4113	14.592481934668	0.04193272547
0	4121	14.634414660138	0.010184049737
0	4126	14.644598709875	0.001962390453
0	4128	14.646561100328	0.046877392816
0	4141	14.693438493144	0.011113178263
0	4146	14.704551671407	0.023425273899
0	4151	14.727976945306	0.012819470905
0	4157	14.740796416211	0.024054275677
0	4165	14.764850691888	0.01735939964
0	4170	14.782210091528	0.007941619
0	4172	14.790151710528	0.025192823412
0	4182	14.81534453394	0.028275666591
0	4191	14.843620200531	0.000548842009
0	4193	14.84416904254	0.020215383262
0	4201	14.864384425802	0.026290441962
0	4207	14.890674867764	0.00548927044
0	4209	14.896164138204	0.029131204232
0	4217	14.925295342436	0.003499900964
0	4220	14.9287952434	0.000196288728
0	4222	14.928991532128	0.031831122456
0	4235	14.960822654584	0.007371658792
0	4237	14.968194313376	0.063965099535
0	4248	15.032159412911	0.005301862028
0	4250	15.037461274939	0.012254908897
0	4259	15.049716183836	0.014000512722
0	4266	15.063716696558	0.017880028054
0	4271	15.081596724612	0.061461504456
0	4279	15.143058229068	0.038999538237
0	4286	15.182057767305	0.016320371279
0	4292	15.198378138584	0.012221151226
0	4298	15.21059928981	0.00205103786
0	4300	15.21265032767	0.060678851448
0	4312	15.273329179118	0.019440217821
0	4317	15.292769396939	0.017148702052
0	4324	15.309918098991	0.039758789097
0	4332	15.349676888088	0.034381386236
0	4339	15.384058274324	0.003430772547
0	4341	15.387489046871	0.047903595788
0	4350	15.435392642659	0.097669979807
0	4355	15.533062622466	0.033804699095
0	4360	15.566867321561	0.001776647653
0	4362	15.568643969214	0.003473131264
0	4364	15.572117100478	0.00198443053
0	4366	15.574101531008	0.019825590115
0	4377	15.593927121123	0.020081023478
0	4385	15.614008144601	0.010164389081
0	4390	15.624172533682	0.059635593147
0	4395	15.683808126829	0.001295313856
0	4397	15.685103440685	0.055212089114
0	4405	15.740315529799	0.011034072252
0	4410	15.751349602051	0.011861631947
0	4415	15.763211233998	0.005986567648
0	4417	15.769197801646	0.026016748549
0	4426	15.795214550195	0.037814583089
0	4431	15.833029133284	0.027114370277
0	4436	15.860143503561	0.000677437105
0	4438	15.860820940666	0.007334103076
0	4443	15.868155043742	0.063875237454
0	4451	15.932030281196	0.002551471476
0	4453	15.934581752672	0.008781539712
0	4458	15.943363292384	0.011735376134
0	4466	15.955098668518	0.008823096215
0	4471	15.963921764733	0.009944185727
0	4476	15.97386595046	0.00032926568
0	4478	15.97419521614	0.015179295485
0	4486	15.989374511625	0.004097045343
0	4488	15.993471556968	0.037332809404
0	4496	16.030804366372	0.010258539837
0	4501	16.041062906209	0.015369251548
0	4506	16.056432157757	0.052983765245
0	4511	16.109415923002	0.022805577538
0	4516	16.13222150054	0.002098654947
0	4518	16.134320155487	0.018790039717
0	4526	16.153110195204	0.058118392073
0	4531	16.211228587277	0.002073416733
0	4533	16.21330200401	0.040725883745
0	4541	16.254027887755	0.001930825581
0	4543	16.255958713336	0.012108675633
0	4548	16.268067388969	0.001151858336
0	4553	16.269219247305	0.007911312008
0	4558	16.277130559313	0.001810149403
0	4560	16.278940708716	0.005298698753
0	4565	16.284239407469	0.005414487815
0	4567	16.289653895284	0.019062450765
0	4578	16.308716346049	0.036590843117
0	4586	16.345307189166	0.000672678418
0	4588	16.345979867584	0.014778400399
0	4596	16.360758267983	0.000314582475
0	4598	16.361072850458	0.014392897954
0	4603	16.375465748412	0.011200167467
0	4611	16.386665915879	0.020986843319
0	4616	16.407652759198	0.001410038967
0	4618	16.409062798165	0.015731181838
0	4626	16.424793980003	0.005805468302
0	4628	16.430599448305	0.000660079701
0	4630	16.431259528006	0.004999016333
0	4635	16.436258544339	0.017357237398
0	4643	16.453615781737	0.005838921435
0	4648	16.459454703172	0.029488444496
0	4656	16.488943147668	0.002809514339
0	4658	16.491752662007	0.009439361755
0	4663	16.501192023762	0.000242184901
0	4665	16.501434208663	0.013507117403
0	4673	16.514941326066	0.002454300146
0	4675	16.517395626212	0.079951269534
0	4686	16.597346895746	0.019271853926
0	4691	16.616618749672	0.005611518524
0	4693	16.622230268196	0.073191242369
0	4701	16.695421510565	0.009378426545
0	4706	16.70479993711	0.092805599919
0	4711	16.797605537029	0.000934698035
0	4713	16.798540235064	0.010520615915
0	4718	16.809060850979	0.007423234416
0	4723	16.816484085395	0.003557535157
0	4725	16.820041620552	0.035618693498
0	4736	16.85566031405	0.020364351576
0	4741	16.876024665626	0.032903668541
0	4746	16.908928334167	0.013478868884
0	4751	16.922407203051	0.020434366948
0	4756	16.942841569999	0.090956477037
0	4761	17.033798047036	0.00918055855
0	4766	17.042978605586	0.001350683138
0	4768	17.044329288724	0.007501238862
0	4773	17.051830527586	0.030578777414
0	4781	17.082409305	0.032373221328
0	4786	17.114782526328	0.006804744392
0	4788	17.12158727072	0.001461033143
0	4793	17.123048303863	0.005526103859
0	4795	17.128574407722	0.023013251859
0	4806	17.151587659581	0.021724066223
0	4811	17.173311725804	0.00958425389
0	4816	17.182895979694	0.005648934239
0	4818	17.188544913933	0.020098666181
0	4826	17.208643580114	0.02192385122
0	4831	17.230567431334	0.052312818648
0	4836	17.282880249982	0.014567551461
0	4841	17.297447801443	0.038474771413
0	4846	17.335922572856	0.011036042433
0	4851	17.346958615289	0.013770277761
0	4856	17.36072889305	0.016179593903
0	4861	17.376908486953	0.011166535785
0	4866	17.388075022738	0.006766922374
0	4868	17.394841945112	0.034582392754
0	4876	17.429424337866	0.024522644245
0	4881	17.453946982111	0.02680551924
0	4886	17.480752501351	0.010717975907
0	4891	17.491470477258	0.011853148359
0	4897	17.503323625617	0.008942798052
0	4902	17.512266423669	0.069412901611
0	4907	17.58167932528	0.035281747844
0	4912	17.616961073124	0.00902477597
0	4917	17.625985849094	0.05179652291
0	4922	17.677782372004	0.010134464278
0	4927	17.687916836282	0.000941985421
0	4929	17.688858821703	0.026840394824
0	4937	17.715699216527	0.005295645467
0	4939	17.720994861994	0.011923437828
0	4947	17.732918299822	0.008570152084
0	4952	17.741488451906	0.055382889657
0	4957	17.796871341563	0.033744365775
0	4962	17.830615707338	0.005947470558
0	4964	17.836563177896	0.084660315927
0	4972	17.921223493823	0.009617564486
0	4977	17.930841058309	0.069457114118
0	4983	18.000298172427	0.02388979887
0	4985	18.024187971297	0.047066695361
0	4987	18.071254666658	0.045474143334
0	4989	18.116728809992	0.007035347709
0	4991	18.123764157701	0.002580770064
0	4993	18.126344927765	0.096594404959
0	4995	18.222939332724	0.005529454331
0	4997	18.228468787055	0.005738181908
0	4999	18.234206968963	0.005182245118
0	5001	18.239389214081	0.002238890823
0	5003	18.241628104904	0.013447658041
0	5006	18.255075762945	0.060299365444
0	5008	18.315375128389	0.044424283664
0	5010	18.359799412053	0.00531633098
0	5012	18.365115743033	0.00886668792
0	5014	18.373982430953	0.0234087146
0	5016	18.397391145553	0.009730382795
0	5019	18.407121528348	0.001202567383
0	5024	18.408324095731	0.049712621687
0	5044	18.458036717418	0.026239261622
0	5055	18.48427597904	0.002416627925
0	5057	18.486692606965	0.042694047891
0	5074	18.529386654856	0.019945978483
0	5085	18.549332633339	0.006361090904
0	5087	18.555693724243	0.002850058913
0	5092	18.558543783156	0.009530316419
0	5097	18.568074099575	0.009375913833
0	5102	18.577450013408	0.009377563113
0	5107	18.586827576521	0.007843225792
0	5112	18.594670802313	0.027629181597
0	5126	18.62229998391	0.022795908133
0	5134	18.645095892043	0.005431115834
0	5139	18.650527007877	0.031747144594
0	5150	18.682274152471	0.003771294485
0	5152	18.686045446956	0.014020910187
0	5160	18.700066357143	0.011930998338
0	5165	18.711997355481	0.007026425631
0	5167	18.719023781112	0.007261576804
0	5172	18.726285357916	0.043424517627
0	5180	18.769709875543	0.036550525356
0	5185	18.806260400899	0.008673297107
0	5190	18.814933698006	0.005429399329
0	5192	18.820363097335	0.026818034492
0	5200	18.847181131827	0.013958750977
0	5205	18.861139882804	0.016209862944
0	5210	18.877349745748	0.057148506956
0	5215	18.934498252704	0.004500849877
0	5217	18.938999102581	0.020102312971
0	5225	18.959101415552	0.015904444026
0	5230	18.975005859578	0.040391690064
0	5235	19.015397549642	0.014664506774
0	5240	19.030062056416	0.056338234599
0	5245	19.086400291015	0.008578236715
0	5250	19.09497852773	0.027787170139
0	5255	19.122765697869	0.000498561915
0	5257	19.123264259784	0.024051146894
0	5265	19.147315406678	0.003222851577
0	5267	19.150538258255	0.068818880952
0	5275	19.219357139207	0.002827862255
0	5277	19.222185001462	0.103702588461
0	5285	19.325887589923	0.024614377021
0	5290	19.350501966944	0.012023092928
0	5295	19.362525059872	0.024693597521
0	5300	19.387218657393	0.001470127548
0	5302	19.388688784941	0.018922034825
0	5311	19.407610819766	0.00692866655
0	5313	19.414539486316	0.022289164634
0	5321	19.43682865095	0.003305860246
0	5323	19.440134511196	0.011866611365
0	5328	19.452001122561	0.010808053952
0	5336	19.462809176513	0.023819629068
0	5341	19.486628805581	0.002814903109
0	5343	19.48944370869	0.009506793393
0	5348	19.498950502083	0.018532772006
0	5356	19.517483274089	0.002107922598
0	5358	19.519591196687	0.009651504303
0	5363	19.52924270099	0.064506321674
0	5372	19.593749022664	0.045149535815
0	5377	19.638898558479	0.001503836183
0	5379	19.640402394662	0.06871246785
0	5387	19.709114862512	0.000389785859
0	5389	19.709504648371	0.015832181892
0	5397	19.725336830263	0.077818201808
0	5402	19.803155032071	0.006426806057
0	5404	19.809581838128	0.003214600811
0	5409	19.812796438939	0.017941060282
0	5417	19.830737499221	0.005987060059
0	5419	19.83672455928	0.045414202148
0	5427	19.882138761428	0.004854908747
0	5429	19.886993670175	0.010442226088
0	5434	19.897435896263	0.017345840377
0	5442	19.91478173664	0.016062735438
0	5447	19.930844472078	0.074388166218
0	5452	20.005232638296	0.006339547598
0	5454	20.011572185894	0.006376820968
0	5459	20.017949006862	0.012155695282
0	5467	20.030104702144	0.07018127102
0	5472	20.100285973164	0.010273712265
0	5477	20.110559685429	0.000516560889
0	5479	20.111076246318	0.00571137841
0	5481	20.116787624728	0.043792934291
0	5492	20.160580559019	0.014098986428
0	5497	20.174679545447	0.024661774544
0	5502	20.199341319991	0.007432315097
0	5504	20.206773635088	0.006508334343
0	5509	20.213281969431	0.009337286871
0	5514	20.222619256302	0.045049857401
0	5523	20.267669113703	0.014887565228
0	5528	20.282556678931	0.00053761239
0	5530	20.283094291321	0.027773545477
0	5538	20.310867836798	0.019650566854
0	5543	20.330518403652	0.008114526877
0	5545	20.338632930529	0.00799590545
0	5550	20.346628835979	0.051582262616
0	5558	20.398211098595	0.068298498049
0	5563	20.466509596644	0.039656251605
0	5568	20.506165848249	0.003692317458
0	5570	20.509858165707	0.000998312049
0	5572	20.510856477756	0.046350521251
0	5583	20.557206999007	0.005851012024
0	5585	20.563058011031	0.008007630629
0	5590	20.57106564166	0.011816704408
0	5598	20.582882346068	0.044006586409
0	5603	20.626888932477	0.002210317532
0	5605	20.629099250009	0.014367316704
0	5610	20.643466566713	0.008568820576
0	5615	20.652035387289	0.014292683748
0	5623	20.666328071037	0.026948976474
0	5628	20.693277047511	0.009782168212
0	5633	20.703059215723	0.022820866685
0	5638	20.725880082408	0.015104236355
0	5643	20.740984318763	0.01947757183
0	5648	20.760461890593	0.05790235234
0	5653	20.818364242933	0.024793961612
0	5658	20.843158204545	0.044672797022
0	5663	20.887831001567	0.004586343433
0	5665	20.892417345	0.022609143966
0	5673	20.915026488966	0.008361833179
0	5675	20.923388322145	0.020379063622
0	5683	20.943767385767	0.022555208671
0	5689	20.966322594438	0.015897456721
0	5694	20.982220051159	0.042278136293
0	5700	21.024498187452	0.006367860321
0	5702	21.030866047773	0.015691133938
0	5704	21.046557181711	0.003209682147
0	5706	21.049766863858	0.006645212472
0	5708	21.05641207633	0.038800964198
0	5710	21.095213040528	0.00061403546
0	5712	21.095827075988	0.02016027081
0	5714	21.115987346798	0.024780730148
0	5716	21.140768076946	0.007123315631
0	5718	21.147891392577	0.00015830693
0	5720	21.148049699507	0.01233186177
0	5722	21.160381561277	0.009325940529
0	5724	21.169707501806	0.000496664155
0	5726	21.170204165961	0.015123324956
0	5728	21.185327490917	0.016331853777
0	5730	21.201659344694	0.051049529871
0	5732	21.252708874565	0.008961759368
0	5734	21.261670633933	0.001875107752
0	5736	21.263545741685	0.013971620122
0	5738	21.277517361807	0.010415577297
0	5740	21.287932939104	0.003335915162
0	5742	21.291268854266	0.000492272881
0	5744	21.291761127147	0.011085369468
0	5746	21.302846496615	0.008389586469
0	5748	21.311236083084	0.047325805277
0	5750	21.358561888361	0.019469450873
0	5752	21.378031339234	0.000170960373
0	5754	21.378202299607	0.006544207627
0	5756	21.384746507234	0.069387876776
0	5777	21.45413438401	0.00470811733
0	5782	21.45884250134	0.023481402736
0	5793	21.482323904076	0.002459251338
0	5795	21.484783155414	0.002094245469
0	5797	21.486877400883	0.01721429415
0	5805	21.504091695033	0.006843493832
0	5810	21.510935188865	0.023766583206
0	5821	21.534701772071	0.015490335759
0	5829	21.55019210783	0.02229222006
0	5840	21.57248432789	0.025757804782
0	5851	21.598242132672	0.05946416679
0	5877	21.657706299462	0.009848827528
0	5882	21.66755512699	5.4137492e-005
0	5884	21.667609264482	0.005151697327
0	5886	21.672760961809	0.020836889296
0	5897	21.693597851105	0.012134248185
0	5905	21.70573209929	0.018345435938
0	5913	21.724077535228	0.071570034517
0	5936	21.795647569745	0.017770574247
0	5941	21.813418143992	0.03589346228
0	5947	21.849311606272	0.065812976605
0	5952	21.915124582877	0.049252885388
0	5957	21.964377468265	0.000340312475
0	5959	21.96471778074	0.02200937061
0	5967	21.98672715135	0.023846315484
0	5972	22.010573466834	0.011620173109
0	5977	22.022193639943	0.033605648002
0	5983	22.055799287945	0.023109494575
0	5988	22.07890878252	0.014259129583
0	5993	22.093167912103	0.020916505856
0	5998	22.114084417959	0.008128257335
0	6003	22.122212675294	0.000590636223
0	6005	22.122803311517	0.031293131014
0	6013	22.154096442531	0.050397773877
0	6018	22.204494216408	0.00204603562
0	6020	22.206540252028	0.015637688462
0	6028	22.22217794049	0.011669203446
0	6033	22.233847143936	0.094527903937
0	6038	22.328375047873	0.01467739934
0	6043	22.343052447213	0.009661060485
0	6048	22.352713507698	0.023680554727
0	6053	22.376394062425	0.032867064704
0	6058	22.409261127129	0.001905689657
0	6060	22.411166816786	0.012361047543
0	6065	22.423527864329	0.005169184974
0	6070	22.428697049303	0.035068962366
0	6078	22.463766011669	0.010562879814
0	6083	22.474328891483	0.015492274727
0	6088	22.48982116621	0.019525840459
0	6093	22.509347006669	0.043654277786
0	6098	22.553001284455	0.043600408943
0	6103	22.596601693398	0.042423089137
0	6108	22.639024782535	0.019289995235
0	6113	22.65831477777	0.007958967893
0	6118	22.666273745663	0.002864974076
0	6120	22.669138719739	0.010364556962
0	6125	22.679503276701	0.078829173693
0	6133	22.758332450394	0.015733662309
0	6138	22.774066112703	0.041081049677
0	6143	22.81514716238	0.01944097937
0	6148	22.83458814175	0.013972071339
0	6153	22.848560213089	0.009539955019
0	6158	22.858100168108	0.051110354333
0	6163	22.909210522441	0.0156233758
0	6168	22.924833898241	0.015590700577
0	6173	22.940424598818	0.002577572921
0	6175	22.943002171739	0.051358652574
0	6183	22.994360824313	0.02283231047
0	6188	23.017193134783	0.035427066386
0	6193	23.052620201169	0.006768822656
0	6195	23.059389023825	0.069020202587
0	6203	23.128409226412	0.000878544683
0	6205	23.129287771095	0.050460349227
0	6213	23.179748120322	0.00246818943
0	6215	23.182216309752	0.000733981406
0	6217	23.182950291158	0.002250598928
0	6219	23.185200890086	0.003841911523
0	6224	23.189042801609	0.007610218971
0	6229	23.19665302058	0.009857575367
0	6234	23.206510595947	0.005661448717
0	6239	23.212172044664	0.060790631803
0	6253	23.272962676467	0.016546518472
0	6258	23.289509194939	0.007134325053
0	6263	23.296643519992	0.04736472106
0	6269	23.344008241052	0.003498205202
0	6271	23.347506446254	0.017355102859
0	6279	23.364861549113	0.043484658143
0	6284	23.408346207256	0.018222916161
0	6289	23.426569123417	0.011826055711
0	6294	23.438395179128	0.005437316771
0	6296	23.443832495899	0.047692306865
0	6304	23.491524802764	0.017392307217
0	6309	23.508917109981	0.00349255593
0	6311	23.512409665911	0.003153441057
0	6313	23.515563106968	0.02164203769
0	6324	23.537205144658	0.008178350585
0	6329	23.545383495243	0.01160579176
0	6334	23.556989287003	0.019644763688
0	6339	23.576634050691	0.001591403102
0	6341	23.578225453793	0.008966586132
0	6346	23.587192039925	0.023845044842
0	6354	23.611037084767	0.048381027883
0	6359	23.65941811265	0.005684394871
0	6361	23.665102507521	0.042155607168
0	6369	23.707258114689	0.000808431553
0	6371	23.708066546242	0.011388722277
0	6376	23.719455268519	0.001236322973
0	6378	23.720691591492	0.014580134428
0	6386	23.73527172592	0.001260468885
0	6391	23.736532194805	0.012874496117
0	6396	23.749406690922	0.047661365464
0	6404	23.797068056386	0.004075707644
0	6406	23.80114376403	0.026932545771
0	6414	23.828076309801	0.011410119762
0	6419	23.839486429563	0.045667880688
0	6424	23.885154310251	0.004154065724
0	6426	23.889308375975	0.022330371471
0	6434	23.911638747446	0.025119911975
0	6439	23.936758659421	0.015055393041
0	6444	23.951814052462	0.014805043828
0	6449	23.96661909629	0.007260943088
0	6451	23.973880039378	0.007729883641
0	6459	23.981609923019	0.123918202374
0	6465	24.105528125393	6.2087136e-005
0	6467	24.105590212529	0.008994267359
0	6469	24.114584479888	0.018191414097
0	6471	24.132775893985	0.012722069087
0	6473	24.145497963072	0.02094384511
0	6475	24.166441808182	0.009504188776
0	6477	24.175945996958	0.000104062656
0	6479	24.176050059614	0.077772894455
0	6481	24.253822954069	0.070279576459
0	6483	24.324102530528	0.003839158039
0	6485	24.327941688567	0.021804911729
0	6487	24.349746600296	0.007949581598
0	6489	24.357696181894	0.006938577663
0	6491	24.364634759557	0.022810489499
0	6493	24.387445249056	0.004471981167
0	6495	24.391917230223	0.001305871913
0	6497	24.393223102136	0.051993464907
0	6515	24.445216567043	0.018691608327
0	6526	24.46390817537	0.007399583595
0	6531	24.471307758965	0.012988214536
0	6536	24.484295973501	0.010324069099
0	6544	24.4946200426	0.006681501661
0	6549	24.501301544261	0.020051248167
0	6557	24.521352792428	0.005447024527
0	6562	24.526799816955	0.044264544631
0	6582	24.571064361586	0.014452044751
0	6590	24.585516406337	0.011334039197
0	6595	24.596850445534	0.009175026053
0	6600	24.606025471587	0.052682627919
0	6611	24.658708099506	0.012195243457
0	6616	24.670903342963	0.017933716732
0	6621	24.688837059695	0.008234011557
0	6626	24.697071071252	0.011305105626
0	6631	24.708376176878	0.070463026825
0	6636	24.778839203703	0.017968047329
0	6641	24.796807251032	0.00286446543
0	6643	24.799671716462	0.008754789122
0	6648	24.808426505584	0.00203631284
0	6650	24.810462818424	0.021401649793
0	6661	24.831864468217	0.008413353448
0	6666	24.840277821665	0.021128819884
0	6672	24.861406641549	0.017882117763
0	6677	24.879288759312	0.034487837709
0	6682	24.913776597021	0.021527809188
0	6687	24.935304406209	0.010308951
0	6692	24.945613357209	0.010125279342
0	6697	24.955738636551	0.000765775955
0	6699	24.956504412506	0.144669369056
0	6707	25.101173781562	0.083508872085
0	6713	25.184682653647	0.008673989408
0	6718	25.193356643055	0.011889320334
0	6723	25.205245963389	0.025560042583
0	6728	25.230806005972	0.055495092432
0	6733	25.286301098404	0.020299179167
0	6738	25.306600277571	0.022297337081
0	6743	25.328897614652	0.03353869466
0	6748	25.362436309312	0.006203922465
0	6750	25.368640231777	0.074782969561
0	6758	25.443423201338	0.016605212935
0	6763	25.460028414273	0.044108016076
0	6768	25.504136430349	0.062899951054
0	6773	25.567036381403	0.028926151443
0	6778	25.595962532846	0.002409165355
0	6780	25.598371698201	0.023963027757
0	6788	25.622334725958	0.006355386828
0	6790	25.628690112786	0.008174353085
0	6795	25.636864465871	0.001712415882
0	6800	25.638576881753	0.003195995609
0	6802	25.641772877362	0.02898643739
0	6813	25.670759314752	0.001293672103
0	6815	25.672052986855	0.000438547614
0	6817	25.672491534469	0.005538844507
0	6819	25.678030378976	0.002952637665
0	6824	25.680983016641	0.011322591034
0	6829	25.692305607675	0.00603910007
0	6834	25.698344707745	0.014762734851
0	6842	25.713107442596	0.040971663132
0	6853	25.754079105728	0.029663468161
0	6858	25.783742573889	0.003954635359
0	6860	25.787697209248	0.063757683445
0	6868	25.851454892693	0.011357753862
0	6873	25.862812646555	0.002495861845
0	6875	25.8653085084	0.00786434574
0	6880	25.87317285414	0.002263466648
0	6882	25.875436320788	0.017512775962
0	6890	25.89294909675	0.017817076038
0	6898	25.910766172788	0.05512426155
0	6903	25.965890434338	0.027361080428
0	6908	25.993251514766	0.056530479411
0	6913	26.049781994177	0.037697292284
0	6918	26.087479286461	0.001078739128
0	6920	26.088558025589	0.054925037404
0	6928	26.143483062993	0.018137262146
0	6933	26.161620325139	0.081998685853
0	6938	26.243619010992	0.044475656315
0	6943	26.288094667307	0.010209903254
0	6948	26.298304570561	0.030367382968
0	6953	26.328671953529	0.009571531421
0	6958	26.33824348495	0.004753317422
0	6960	26.342996802372	0.003198884267
0	6965	26.346195686639	0.028962922479
0	6973	26.375158609118	0.023099490671
0	6978	26.398258099789	0.004191289715
0	6980	26.402449389504	0.021386621167
0	6988	26.423836010671	0.045805144398
0	6993	26.469641155069	0.039619105922
0	6998	26.509260260991	0.000179427747
0	7000	26.509439688738	0.002046369591
0	7002	26.511486058329	0.00189133473
0	7004	26.513377393059	0.013774216879
0	7012	26.527151609938	0.019308715994
0	7020	26.546460325932	0.017401598207
0	7028	26.563861924139	0.009639584191
0	7033	26.57350150833	0.005529753682
0	7035	26.579031262012	0.002030975412
0	7037	26.581062237424	0.00370312107
0	7042	26.584765358494	0.083905372402
0	7053	26.668670730896	0.039262465791
0	7058	26.707933196687	0.045379381732
0	7063	26.753312578419	0.001206360476
0	7065	26.754518938895	0.006324742117
0	7067	26.760843681012	0.012721009422
0	7075	26.773564690434	0.012818308464
0	7083	26.786382998898	0.002462209098
0	7085	26.788845207996	0.013069065195
0	7093	26.801914273191	0.012215083497
0	7098	26.814129356688	0.014201406913
0	7103	26.828330763601	0.078202815393
0	7108	26.906533578994	0.068382730054
0	7113	26.974916309048	0.011022758966
0	7118	26.985939068014	0.002106288384
0	7120	26.988045356398	0.038915691678
0	7129	27.026961048076	0.000809159113
0	7131	27.027770207189	0.002495750447
0	7133	27.030265957636	0.013221596017
0	7135	27.043487553653	0.006328547824
0	7137	27.049816101477	0.012259345374
0	7139	27.062075446851	0.010343338541
0	7141	27.072418785392	0.005364461865
0	7143	27.077783247257	0.010210251519
0	7146	27.087993498776	0.001213486003
0	7148	27.089206984779	0.022257276232
0	7150	27.111464261011	0.002644231997
0	7152	27.114108493008	0.008453795761
0	7154	27.122562288769	0.038864011127
0	7156	27.161426299896	0.025018973213
0	7158	27.186445273109	0.010205427955
0	7160	27.196650701064	0.020387903761
0	7162	27.217038604825	0.009605836276
0	7164	27.226644441101	0.010188570204
0	7166	27.236833011305	0.00044437304
0	7168	27.237277384345	0.011304232697
0	7170	27.248581617042	0.009392160643
0	7172	27.257973777685	0.019065718624
0	7174	27.277039496309	0.021670963766
0	7176	27.298710460075	0.001452321162
0	7178	27.300162781237	0.019635698112
0	7180	27.319798479349	0.034565187459
0	7182	27.354363666808	0.04906611683
0	7185	27.403429783638	0.021192898864
0	7196	27.424622682502	0.022282294729
0	7204	27.446904977231	0.02591755633
0	7218	27.472822533561	0.007833690798
0	7223	27.480656224359	0.015397238716
0	7231	27.496053463075	0.007602380627
0	7236	27.503655843702	0.002341400787
0	7238	27.505997244489	0.035833086718
0	7255	27.541830331207	0.010385074498
0	7260	27.552215405705	0.029904622363
0	7274	27.582120028068	0.010396438898
0	7279	27.592516466966	0.006602133881
0	7284	27.599118600847	0.007743949345
0	7289	27.606862550192	0.025030179139
0	7300	27.631892729331	0.000608159875
0	7302	27.632500889206	0.016491434464
0	7310	27.64899232367	0.026731368346
0	7324	27.675723692016	0.010205183007
0	7329	27.685928875023	0.002325833335
0	7331	27.688254708358	0.015137086345
0	7339	27.703391794703	0.018643734811
0	7350	27.722035529514	0.00178171915
0	7352	27.723817248664	0.024295114171
0	7363	27.748112362835	0.021912997405
0	7374	27.77002536024	0.020145453768
0	7382	27.790170814008	0.000601655911
0	7384	27.790772469919	0.063953175148
0	7407	27.854725645067	0.044016337487
0	7419	27.898741982554	0.002180637272
0	7421	27.900922619826	0.022921560701
0	7432	27.923844180527	0.040373275199
0	7442	27.964217455726	0.044385910435
0	7453	28.008603366161	0.000592495046
0	7455	28.009195861207	2.4166038e-005
0	7457	28.009220027245	0.015310781645
0	7467	28.02453080889	0.055362001154
0	7482	28.079892810044	0.010358468901
0	7489	28.090251278945	0.063548612429
0	7502	28.153799891374	0.014854474994
0	7508	28.168654366368	0.031824045267
0	7518	28.200478411635	0.009085751541
0	7524	28.209564163176	0.096751748981
0	7532	28.306315912157	0.0042284235
0	7536	28.310544335657	0.008777083541
0	7541	28.319321419198	0.000386162104
0	7543	28.319707581302	0.037722302137
0	7555	28.357429883439	0.014602440405
0	7560	28.372032323844	0.029452257251
0	7566	28.401484581095	0.037001784397
0	7575	28.438486365492	0.025497029051
0	7580	28.463983394543	0.009343064529
0	7585	28.473326459072	0.020070487758
0	7591	28.49339694683	0.005042793529
0	7594	28.498439740359	0.00734536335
0	7599	28.505785103709	0.001679200801
0	7601	28.50746430451	0.015412621216
0	7609	28.522876925726	0.001783421645
0	7611	28.524660347371	0.006419953158
0	7616	28.531080300529	0.005005065608
0	7621	28.536085366137	0.000174557926
0	7623	28.536259924063	0.002107522813
0	7625	28.538367446876	0.000505222436
0	7627	28.538872669312	0.006158775912
0	7632	28.545031445224	0.003116383722
0	7634	28.548147828946	0.001368777508
0	7636	28.549516606454	0.014421048088
0	7646	28.563937654542	0.001357117561
0	7648	28.565294772103	0.005037495694
0	7653	28.570332267797	0.038797235192
0	7681	28.609129502989	0.009224515552
0	7687	28.618354018541	0.003537614122
0	7689	28.621891632663	0.001133677623
0	7691	28.623025310286	0.016405179852
0	7699	28.639430490138	0.048426732929
0	7707	28.687857223067	0.029696281481
0	7713	28.717553504548	0.043248098855
0	7721	28.760801603403	0.012191183617
0	7727	28.77299278702	0.045514399661
0	7734	28.818507186681	0.003329803878
0	7736	28.821836990559	0.008075058142
0	7741	28.829912048701	0.004452777041
0	7746	28.834364825742	0.024960364626
0	7755	28.859325190368	0.011347362393
0	7760	28.870672552761	0.011135416229
0	7767	28.88180796899	0.015025447473
0	7772	28.896833416463	0.007181913656
0	7775	28.904015330119	0.008598444055
0	7784	28.912613774174	0.001460250877
0	7786	28.914074025051	0.030417518153
0	7798	28.944491543204	0.010958248754
0	7804	28.955449791958	0.027807786545
0	7814	28.983257578503	0.009830907175
0	7822	28.993088485678	0.052404031538
0	7833	29.045492517216	0.003496440001
0	7835	29.048988957217	0.000587598946
0	7837	29.049576556163	0.008622036544
0	7843	29.058198592707	0.045208008948
0	7856	29.103406601655	0.002010110475
0	7858	29.10541671213	0.009970326638
0	7863	29.115387038768	0.040974759871
0	7872	29.156361798639	0.042135842518
0	7879	29.198497641157	0.022027921566
0	7884	29.220525562723	0.023474354557
0	7892	29.24399991728	0.004281643893
0	7894	29.248281561173	0.087399995029
0	7910	29.335681556202	0.050043159651
0	7917	29.385724715853	0.028482620313
0	7924	29.414207336166	0.017334821413
0	7929	29.431542157579	0.009068268367
0	7934	29.440610425946	0.012172387081
0	7940	29.452782813027	0.01390551562
0	7948	29.466688328647	0.020564106366
0	7953	29.487252435013	0.009444574973
0	7958	29.496697009986	0.005861269956
0	7960	29.502558279942	0.009079828935
0	7969	29.511638108877	0.016018173657
0	7976	29.527656282534	0.006046562761
0	7978	29.533702845295	0.0028290421
0	7983	29.536531887395	0.013702401559
0	7991	29.550234288954	0.004475775443
0	7993	29.554710064397	0.022897728989
0	8002	29.577607793386	0.014433174954
0	8007	29.59204096834	0.006496336093
0	8009	29.598537304433	0.002051585198
0	8014	29.600588889631	0.014862713086
0	8023	29.615451602717	0.03819110037
0	8030	29.653642703087	0.002497217157
0	8032	29.656139920244	0.010068522309
0	8041	29.666208442553	0.003483384422
0	8043	29.669691826975	0.005307399155
0	8048	29.67499922613	0.000958743992
0	8050	29.675957970122	0.017610368766
0	8058	29.693568338888	0.07062482801
0	8067	29.764193166898	0.027474385294
0	8072	29.791667552192	7.7356464e-005
0	8074	29.791744908656	0.01878037207
0	8083	29.810525280726	0.003934413773
0	8085	29.814459694499	0.017302981178
0	8094	29.831762675677	0.018979726936
0	8101	29.850742402613	0.003728992684
0	8103	29.854471395297	0.001697428221
0	8105	29.856168823518	0.02319031932
0	8118	29.879359142838	0.042723878526
0	8127	29.922083021364	0.075273615871
0	8138	29.997356637235	0.025432200046
0	8147	30.022788837281	0.018760162312
0	8153	30.041548999593	0.067858614293
0	8165	30.109407613886	0.0079612201
0	8170	30.117368833986	0.014170721509
0	8175	30.131539555495	0.032459800341
0	8180	30.163999355836	0.007145035905
0	8182	30.171144391741	0.036202220229
0	8193	30.20734661197	0.015947969517
0	8199	30.223294581487	0.010732441659
0	8205	30.234027023146	0.05342049947
0	8215	30.287447522616	0.010743674742
0	8220	30.298191197358	0.014711135099
0	8225	30.312902332457	0.055171226458
0	8231	30.368073558915	0.006217841262
0	8233	30.374291400177	0.025615926461
0	8241	30.399907326638	0.041976368571
0	8248	30.441883695209	0.000669095183
0	8250	30.442552790392	0.009301714875
0	8256	30.451854505267	0.011100634506
0	8264	30.462955139773	2.7686252e-005
0	8266	30.462982826025	0.001971990004
0	8268	30.464954816029	0.00569200368
0	8270	30.470646819709	0.076838326069
0	8287	30.547485145778	0.007661361342
0	8289	30.55514650712	0.017123323148
0	8298	30.572269830268	0.039148367845
0	8304	30.611418198113	0.020638414058
0	8311	30.632056612171	0.012268361322
0	8317	30.644324973493	0.009065689416
0	8322	30.653390662909	0.011760876234
0	8327	30.665151539143	0.022035238346
0	8332	30.687186777489	0.008192543202
0	8338	30.695379320691	0.016965336197
0	8344	30.712344656888	0.042518611399
0	8350	30.754863268287	0.029804981734
0	8357	30.784668250021	0.058018180824
0	8363	30.842686430845	0.046072137533
0	8374	30.888758568378	0.096293959995
0	8384	30.985052528373	0.010360581142
0	8389	30.995413109515	0.009455870894
0	8394	31.004868980409	0.045141742833
0	8401	31.050010723242	0.067714818058
0	8411	31.1177255413	0.001345939344
0	8413	31.119071480644	0.031392767092
0	8423	31.150464247736	0.023133985794
0	8429	31.17359823353	0.022521055954
0	8435	31.196119289484	0.005255108199
0	8437	31.201374397683	0.00561782311
0	8442	31.206992220793	0.015481440854
0	8450	31.222473661647	0.004878593397
0	8453	31.227352255044	0.029659187288
0	8462	31.257011442332	0.003631584353
0	8464	31.260643026685	0.027454480117
0	8472	31.288097506802	0.051215878295
0	8478	31.339313385097	0.025561725878
0	8483	31.364875110975	0.006964972684
0	8485	31.371840083659	0.013190056001
0	8493	31.38503013966	0.012069575849
0	8499	31.397099715509	0.004313996826
0	8501	31.401413712335	0.013622705562
0	8511	31.415036417897	0.004602515363
0	8513	31.41963893326	0.030117022862
0	8521	31.449755956122	0.015334507643
0	8527	31.465090463765	0.037188131448
0	8532	31.502278595213	0.011518459457
0	8537	31.51379705467	0.002994904165
0	8539	31.516791958835	0.07376943951
0	8551	31.590561398345	0.011134053282
0	8556	31.601695451627	0.007157053447
0	8559	31.608852505074	0.037011712932
0	8571	31.645864218006	0.001645251309
0	8573	31.647509469315	0.034078632088
0	8583	31.681588101403	0.025956731383
0	8589	31.707544832786	0.002160921337
0	8591	31.709705754123	0.074119812746
0	8602	31.783825566869	0.003401141776
0	8604	31.787226708645	0.030473405607
0	8615	31.817700114252	0.007253822724
0	8618	31.824953936976	0.005675002051
0	8624	31.830628939027	0.001566996022
0	8626	31.832195935049	0.000744921846
0	8631	31.832940856895	0.01105598667
0	8636	31.843996843565	0.010448584867
0	8644	31.854445428432	0.002277213146
0	8646	31.856722641578	0.042033871682
0	8659	31.89875651326	0.016796670028
0	8665	31.915553183288	0.01131245842
0	8671	31.926865641708	0.00566203658
0	8674	31.932527678288	0.006683908299
0	8679	31.939211586587	0.018148258399
0	8687	31.957359844986	0.054760465905
0	8694	32.012120310891	0.002500510977
0	8696	32.014620821868	0.029591502827
0	8705	32.044212324695	0.074497487482
0	8714	32.118709812177	0.018882825041
0	8720	32.137592637218	0.053930697078
0	8726	32.191523334296	5.3613167e-005
0	8728	32.191576947463	0.009944929397
0	8734	32.20152187686	0.053619901795
0	8747	32.255141778655	0.005546150579
0	8749	32.260687929234	0.022407181655
0	8760	32.283095110889	0.005764263358
0	8762	32.288859374247	0.005084093254
0	8767	32.293943467501	0.013209477886
0	8776	32.307152945387	0.000501291751
0	8778	32.307654237138	0.000816290007
0	8780	32.308470527145	0.000149926889
0	8782	32.308620454034	0.020416648381
0	8791	32.329037102415	0.052456510438
0	8806	32.381493612853	0.010495208881
0	8811	32.391988821734	0.023628107972
0	8816	32.415616929706	0.00947723158
0	8823	32.425094161286	0.024425603538
0	8828	32.449519764824	0.033147890413
0	8834	32.482667655237	0.018130025544
0	8839	32.500797680781	0.024691077396
0	8844	32.525488758177	0.015410746415
0	8850	32.540899504592	0.061727942778
0	8857	32.60262744737	0.012160632515
0	8864	32.614788079885	0.00867532379
0	8869	32.623463403675	0.018335477434
0	8874	32.641798881109	0.045566194856
0	8881	32.687365075965	0.021231066326
0	8889	32.708596142291	0.029390666317
0	8899	32.737986808608	0.009337443549
0	8904	32.747324252157	0.00884542378
0	8909	32.756169675937	0.022066506054
0	8914	32.778236181991	0.019439527862
0	8920	32.797675709853	0.012208670861
0	8926	32.809884380714	0.006809563831
0	8928	32.816693944545	0.001778084498
0	8933	32.818472029043	0.041493047648
0	8944	32.859965076691	0.005309900853
0	8946	32.865274977544	0.0023852974
0	8951	32.867660274944	0.001697474476
0	8953	32.86935774942	0.004776171189
0	8955	32.874133920609	0.007772671325
0	8960	32.881906591934	0.004043138725
0	8965	32.885949730659	0.018900359812
0	8980	32.904850090471	0.010317634451
0	8986	32.915167724922	0.009165491261
0	8991	32.924333216183	0.02734811438
0	8998	32.951681330563	0.025909133279
0	9003	32.977590463842	0.014969284698
0	9008	32.99255974854	0.022667765206
0	9015	33.015227513746	0.013375973683
0	9021	33.028603487429	0.00312585285
0	9024	33.031729340279	1.0922399e-005
0	9026	33.031740262678	0.003679478873
0	9028	33.035419741551	0.011081682897
0	9036	33.046501424448	0.001332102745
0	9038	33.047833527193	0.001313263704
0	9041	33.049146790897	0.006139547651
0	9046	33.055286338548	0.004670274121
0	9054	33.059956612669	0.008565160576
0	9062	33.068521773245	0.0538811537
0	9075	33.122402926945	0.001847750375
0	9077	33.12425067732	0.004851579178
0	9079	33.129102256498	0.018437585166
0	9091	33.147539841664	0.039086175434
0	9099	33.186626017098	0.02506156188
0	9105	33.211687578978	0.032480208876
0	9113	33.244167787854	0.003421036381
0	9115	33.247588824235	0.003466750425
0	9117	33.25105557466	0.008375187045
0	9125	33.259430761705	0.018613471132
0	9135	33.278044232837	0.025983986649
0	9144	33.304028219486	0.002458315763
0	9147	33.306486535249	0.021772323461
0	9157	33.32825885871	0.026030842169
0	9163	33.354289700879	0.038546089945
0	9170	33.392835790824	0.020292535085
0	9177	33.413128325909	0.016175802526
0	9182	33.429304128435	0.033419731504
0	9187	33.462723859939	0.000521879299
0	9189	33.463245739238	0.013054872411
0	9194	33.476300611649	0.001180581057
0	9199	33.477481192706	0.049269892584
0	9207	33.52675108529	0.001668960351
0	9209	33.528420045641	0.001012164186
0	9211	33.529432209827	0.01456045766
0	9219	33.543992667487	0.006931340183
0	9224	33.55092400767	0.028138610906
0	9232	33.579062618576	0.02510901343
0	9237	33.604171632006	0.000656111094
0	9239	33.6048277431	0.010829449873
0	9244	33.615657192973	0.012201415826
0	9252	33.627858608799	0.003797835149
0	9254	33.631656443948	0.034836280429
0	9262	33.666492724377	0.002268094444
0	9264	33.668760818821	0.0220889361
0	9272	33.690849754921	0.034002478585
0	9277	33.724852233506	0.015789531897
0	9282	33.740641765403	0.01281652143
0	9287	33.753458286833	0.017774080552
0	9292	33.771232367385	0.04278955046
0	9297	33.814021917845	0.045359807817
0	9302	33.859381725662	0.026431802124
0	9307	33.885813527786	0.017116984429
0	9312	33.902930512215	0.010543375794
0	9317	33.913473888009	0.01095737388
0	9322	33.924431261889	0.009352481545
0	9327	33.933783743434	0.024277211261
0	9332	33.958060954695	0.014498468726
0	9337	33.972559423421	0.008838663777
0	9342	33.981398087198	0.043975305793
0	9347	34.025373392991	0.072173100339
0	9352	34.09754649333	0.026733220775
0	9357	34.124279714105	0.041161823553
0	9362	34.165441537658	0.000103325722
0	9364	34.16554486338	0.003407547174
0	9366	34.168952410554	0.023693723013
0	9377	34.192646133567	0.023048220388
0	9382	34.215694353955	0.050391803179
0	9387	34.266086157134	0.000693294051
0	9389	34.266779451185	0.024788943176
0	9397	34.291568394361	0.043292543514
0	9402	34.334860937875	0.00389612193
0	9404	34.338757059805	0.037267719676
0	9412	34.376024779481	0.013214301868
0	9417	34.389239081349	0.014272223065
0	9422	34.403511304414	0.003023808529
0	9424	34.406535112943	0.002732177194
0	9426	34.409267290137	0.008894369099
0	9431	34.418161659236	0.019429359071
0	9442	34.437591018307	0.055329603361
0	9447	34.492920621668	0.005471297245
0	9449	34.498391918913	0.051358454395
0	9457	34.549750373308	0.019932185583
0	9462	34.569682558891	0.006649038432
0	9464	34.576331597323	0.023666790467
0	9472	34.59999838779	0.008299131654
0	9477	34.608297519444	0.002246693613
0	9479	34.610544213057	0.018336460746
0	9487	34.628880673803	0.012961407194
0	9492	34.641842080997	0.066043679049
0	9497	34.707885760046	0.017618152346
0	9503	34.725503912392	0.003198712077
0	9505	34.728702624469	0.005850561458
0	9510	34.734553185927	0.005938941176
0	9515	34.740492127103	0.004488144071
0	9517	34.744980271174	0.041359246303
0	9528	34.786339517477	0.020314253461
0	9533	34.806653770938	0.013541234247
0	9538	34.820195005185	0.028604386965
0	9543	34.84879939215	0.045844992517
0	9548	34.894644384667	0.00889796938
0	9553	34.903542354047	0.004104056367
0	9555	34.907646410414	0.024681600535
0	9563	34.932328010949	0.015214332037
0	9568	34.947542342986	0.017704336893
0	9573	34.965246679879	0.007898505842
0	9578	34.973145185721	0.033171867738
0	9583	35.006317053459	0.007611817986
0	9588	35.013928871445	0.004564932464
0	9590	35.018493803909	0.01184349608
0	9598	35.030337299989	0.031831642262
0	9603	35.062168942251	0.011350651677
0	9608	35.073519593928	0.006196042691
0	9610	35.079715636619	0.008843003439
0	9618	35.088558640058	0.007083972282
0	9620	35.09564261234	0.049295202728
0	9628	35.144937815068	0.076491393129
0	9633	35.221429208197	0.026316284636
0	9638	35.247745492833	0.00094211675
0	9640	35.248687609583	0.026005782841
0	9648	35.274693392424	0.004208338065
0	9650	35.278901730489	0.006847368257
0	9655	35.285749098746	0.01471586654
0	9663	35.300464965286	0.017241232546
0	9668	35.317706197832	0.009431914409
0	9673	35.327138112241	0.030208096374
0	9678	35.357346208615	0.00554406877
0	9680	35.362890277385	0.031752585751
0	9688	35.394642863136	0.023075275267
0	9693	35.417718138403	0.008448068988
0	9699	35.426166207391	0.022127061299
0	9704	35.44829326869	0.029469555533
0	9709	35.477762824223	0.066341347554
0	9714	35.544104171777	0.026628087009
0	9719	35.570732258786	0.042173349638
0	9724	35.612905608424	0.003051522963
0	9726	35.615957131387	0.119324713995
0	9734	35.735281845382	0.040190172334
0	9739	35.775472017716	0.009016196213
0	9745	35.784488213929	0.011643621063
0	9750	35.796131834992	0.000925790118
0	9752	35.79705762511	0.01332661752
0	9757	35.81038424263	0.007869647939
0	9762	35.818253890569	0.011897525118
0	9770	35.830151415687	0.013739912718
0	9775	35.843891328405	0.016779465659
0	9781	35.860670794064	0.003779570334
0	9783	35.864450364398	0.019413314957
0	9791	35.883863679355	0.001778287247
0	9793	35.885641966602	0.013790258438
0	9798	35.89943222504	0.01205621816
0	9806	35.9114884432	0.040316349287
0	9811	35.951804792487	0.053961660859
0	9817	36.005766453346	0.019762973063
0	9819	36.025529426409	0.0288078321
0	9821	36.054337258509	0.010264167625
0	9823	36.064601426134	0.007464394567
0	9825	36.072065820701	0.010780790171
0	9827	36.082846610872	0.043895340976
0	9829	36.126741951848	0.033303094548
0	9831	36.160045046396	0.023898562667
0	9834	36.183943609063	0.008560103009
0	9836	36.192503712072	0.012447960487
0	9838	36.204951672559	0.004751310859
0	9840	36.209702983418	0.006147345455
0	9842	36.215850328873	0.001224388642
0	9844	36.217074717515	0.01713846203
0	9846	36.234213179545	0.041753805263
0	9848	36.275966984808	0.004335800515
0	9850	36.280302785323	0.050154446705
0	9852	36.330457232028	0.027036441721
0	9854	36.357493673749	0.002559398897
0	9856	36.360053072646	0.055269528812
0	9862	36.415322601458	0.008143543611
0	9867	36.423466145069	0.021533172977
0	9878	36.444999318046	0.003856459776
0	9883	36.448855777822	0.025819254112
0	9894	36.474675031934	0.002463667446
0	9896	36.47713869938	0.003594221185
0	9901	36.480732920565	0.046025067321
0	9918	36.526757987886	0.027584307015
0	9932	36.554342294901	0.001171176966
0	9934	36.555513471867	0.01375749543
0	9942	36.569270967297	0.078732122596
0	9974	36.648003089893	0.001828772961
0	9976	36.649831862854	0.002028495668
0	9978	36.651860358522	0.009769785728
0	9983	36.66163014425	0.03982431281
0	9994	36.70145445706	0.0261458277
0	9999	36.72760028476	0.016717551351
0	10005	36.744317836111	0.017264970885
0	10010	36.761582806996	0.009174706827
0	10015	36.770757513823	0.007316696783
0	10017	36.778074210606	0.008381416071
0	10025	36.786455626677	0.089745968225
0	10031	36.876201594902	0.02832386961
0	10036	36.904525464512	0.017067813724
0	10041	36.921593278236	0.007554274111
0	10046	36.929147552347	0.057989973074
0	10052	36.987137525421	0.021419100927
0	10057	37.008556626348	0.016409351358
0	10062	37.024965977706	0.014568279508
0	10067	37.039534257214	0.016632859054
0	10072	37.056167116268	0.013270433699
0	10077	37.069437549967	0.001050521807
0	10079	37.070488071774	0.046285497972
0	10087	37.116773569746	0.002198055504
0	10089	37.11897162525	0.016177673772
0	10097	37.135149299022	0.019061068524
0	10102	37.154210367546	0.035073280347
0	10108	37.189283647893	0.026308049851
0	10113	37.215591697744	0.025861438758
0	10118	37.241453136502	0.005595136048
0	10120	37.24704827255	0.000786404999
0	10122	37.247834677549	0.066471242528
0	10134	37.314305920077	0.029665803966
0	10139	37.343971724043	0.027036937138
0	10144	37.371008661181	0.004889137852
0	10146	37.375897799033	0.00543647038
0	10151	37.381334269413	0.046691764441
0	10159	37.428026033854	0.020680116455
0	10164	37.448706150309	0.000877453559
0	10166	37.449583603868	0.00830292789
0	10171	37.457886531758	0.008101464584
0	10176	37.465987996342	0.026000920184
0	10184	37.491988916526	0.002101276658
0	10186	37.494090193184	0.01756990981
0	10194	37.511660102994	0.012909595421
0	10199	37.524569698415	0.028265396306
0	10204	37.552835094721	0.034298462082
0	10209	37.587133556803	0.005792713959
0	10211	37.592926270762	0.007081776002
0	10216	37.600008046764	0.053851997353
0	10224	37.653860044117	0.00327238827
0	10226	37.657132432387	0.099240654898
0	10234	37.756373087285	0.008017524273
0	10239	37.764390611558	0.003595281763
0	10241	37.767985893321	0.033627287905
0	10249	37.801613181226	0.014385935445
0	10254	37.815999116671	0.003025388901
0	10256	37.819024505572	0.039825129827
0	10264	37.858849635399	0.005158904586
0	10266	37.864008539985	0.008544952326
0	10271	37.872553492311	0.001426740128
0	10276	37.873980232439	0.005558260936
0	10278	37.879538493375	0.024463794811
0	10289	37.904002288186	0.026265727107
0	10294	37.930268015293	0.010058248334
0	10299	37.940326263627	0.075900646674
0	10305	38.016226910301	0.007445635663
0	10310	38.023672545964	0.014013420843
0	10315	38.037685966807	0.025361438477
0	10320	38.063047405284	0.009965776344
0	10325	38.073013181628	0.008188786253
0	10330	38.081201967881	0.009949399548
0	10335	38.091151367429	0.026022252757
0	10340	38.117173620186	0.031646813006
0	10345	38.148820433192	0.03376955656
0	10350	38.182589989752	0.02448766072
0	10355	38.207077650472	0.004909389643
0	10357	38.211987040115	0.007681431434
0	10362	38.219668471549	0.07285419376
0	10370	38.292522665309	0.073451191705
0	10375	38.365973857014	0.003543288218
0	10377	38.369517145232	0.04443494405
0	10385	38.413952089282	0.0068735077
0	10387	38.420825596982	0.024141423218
0	10395	38.4449670202	0.003964026411
0	10397	38.448931046611	0.011624146062
0	10402	38.460555192673	0.008477846806
0	10410	38.469033039479	0.004646107283
0	10412	38.473679146762	0.01308087125
0	10420	38.486760018012	0.021870387543
0	10425	38.508630405555	0.01477025074
0	10430	38.523400656295	0.02803953894
0	10435	38.551440195235	0.03842907872
0	10440	38.589869273955	0.018530738211
0	10445	38.608400012166	0.044045368909
0	10450	38.652445381075	0.013688378831
0	10455	38.666133759906	0.004971890485
0	10457	38.671105650391	0.002512206987
0	10459	38.673617857378	0.019504580849
0	10470	38.693122438227	0.030717297316
0	10475	38.723839735543	0.002364323901
0	10477	38.726204059444	0.013529397597
0	10482	38.739733457041	0.012285605572
0	10490	38.752019062613	0.038498716753
0	10495	38.790517779366	0.007782001168
0	10497	38.798299780534	0.00289632269
0	10502	38.801196103224	0.007610594202
0	10507	38.808806697426	0.067099287587
0	10515	38.875905985013	0.013178170937
0	10520	38.88908415595	0.013514046315
0	10526	38.902598202265	0.026173903195
0	10531	38.92877210546	0.001502023417
0	10533	38.930274128877	0.001433844361
0	10535	38.931707973238	0.006573241153
0	10540	38.938281214391	0.042267965686
0	10551	38.980549180077	0.046574517744
0	10557	39.027123697821	0.02654645945
0	10559	39.053670157271	0.008129851351
0	10561	39.061800008622	0.003883819576
0	10563	39.065683828198	0.070183292183
0	10565	39.135867120381	0.055990455369
0	10567	39.19185757575	0.011744107426
0	10569	39.203601683176	0.014117039902
0	10571	39.217718723078	0.009147158229
0	10573	39.226865881307	0.171220365186
0	10575	39.398086246493	0.031191025634
0	10587	39.429277272127	0.00439447491
0	10592	39.433671747037	0.012589158027
0	10600	39.446260905064	0.015310409477
0	10608	39.461571314541	0.001571484539
0	10610	39.46314279908	0.006856794517
0	10615	39.469999593597	0.035303235591
0	10629	39.505302829188	0.007253100261
0	10634	39.512555929449	0.031257031088
0	10648	39.543812960537	0.017883999804
0	10653	39.561696960341	0.014471835362
0	10658	39.576168795703	0.050949025018
0	10663	39.627117820721	0.000194610119
0	10665	39.62731243084	0.032722194812
0	10673	39.660034625652	0.002931915851
0	10675	39.662966541503	0.025742842116
0	10683	39.688709383619	0.024895241576
0	10688	39.713604625195	0.016382090868
0	10694	39.729986716063	0.017873837835
0	10699	39.747860553898	0.051097615795
0	10704	39.798958169693	0.024082423202
0	10709	39.823040592895	0.013559710434
0	10714	39.836600303329	0.008954965495
0	10719	39.845555268824	0.041402846763
0	10724	39.886958115587	0.019851382357
0	10729	39.906809497944	0.035913138777
0	10734	39.942722636721	0.01141245516
0	10739	39.954135091881	0.004811780555
0	10741	39.958946872436	0.010681919759
0	10746	39.969628792195	0.029500366291
0	10755	39.999129158486	0.010723983803
0	10760	40.009853142289	0.000244916777
0	10762	40.010098059066	0.000651613072
0	10764	40.010749672138	0.00779664493
0	10769	40.018546317068	0.001258689637
0	10771	40.019805006705	0.005216063125
0	10773	40.02502106983	0.037851826581
0	10790	40.062872896411	0.014139363281
0	10795	40.077012259692	0.02378336149
0	10800	40.100795621182	0.026700861687
0	10805	40.127496482869	0.005237991812
0	10807	40.132734474681	0.00205564064
0	10809	40.134790115321	0.002514137775
0	10814	40.137304253096	0.014468920001
0	10819	40.151773173097	0.000831242376
0	10821	40.152604415473	0.055745772654
0	10835	40.208350188127	0.013067269344
0	10840	40.221417457471	0.005192171594
0	10842	40.226609629065	0.017733042692
0	10851	40.244342671757	0.022610800603
0	10856	40.26695347236	0.0456470113
0	10861	40.31260048366	0.017972959094
0	10866	40.330573442754	0.050582628799
0	10872	40.381156071553	0.000202293512
0	10874	40.381358365065	0.009121835315
0	10879	40.39048020038	0.012918639071
0	10884	40.403398839451	0.053426493408
0	10892	40.456825332859	0.024672865552
0	10897	40.481498198411	0.015783443315
0	10902	40.497281641726	0.000899433359
0	10904	40.498181075085	0.017070633407
0	10912	40.515251708492	0.042325676961
0	10917	40.557577385453	0.003935769322
0	10919	40.561513154775	0.014682776327
0	10927	40.576195931102	0.002462830138
0	10929	40.57865876124	0.000622818669
0	10931	40.579281579909	0.005604229562
0	10936	40.584885809471	0.005082718257
0	10938	40.589968527728	0.002654380597
0	10940	40.592622908325	0.061441772804
0	10957	40.654064681129	0.005053807538
0	10959	40.659118488667	0.017460781034
0	10967	40.676579269701	0.015522463552
0	10972	40.692101733253	0.002273960568
0	10974	40.694375693821	0.040537739142
0	10982	40.734913432963	0.006780756553
0	10984	40.741694189516	0.031693714137
0	10992	40.773387903653	0.012202006044
0	10997	40.785589909697	0.000657825396
0	10999	40.786247735093	0.000423452637
0	11001	40.78667118773	0.023983513921
0	11009	40.810654701651	0.010607493297
0	11017	40.821262194948	0.000958438342
0	11019	40.82222063329	0.013445672233
0	11024	40.835666305523	0.12454864336
0	11032	40.960214948883	0.00558575804
0	11034	40.965800706923	0.030660128115
0	11042	40.996460835038	0.017765682043
0	11047	41.014226517081	0.005263217932
0	11049	41.019489735013	0.027986791248
0	11057	41.047476526261	0.013471215809
0	11062	41.06094774207	0.005379410567
0	11064	41.066327152637	0.027259466634
0	11072	41.093586619271	0.019378008058
0	11077	41.112964627329	0.036627459602
0	11082	41.149592086931	0.020412049693
0	11087	41.170004136624	0.005197639042
0	11089	41.175201775666	0.059339126542
0	11097	41.234540902208	0.002876227096
0	11099	41.237417129304	0.030126453245
0	11107	41.267543582549	0.053495187877
0	11112	41.321038770426	0.037722976538
0	11117	41.358761746964	0.022219466927
0	11122	41.380981213891	0.013483364589
0	11127	41.39446457848	0.041795477754
0	11132	41.436260056234	0.004099899481
0	11134	41.440359955715	0.005289291238
0	11139	41.445649246953	0.109526377028
0	11147	41.555175623981	0.002755300871
0	11149	41.557930924852	0.002770436842
0	11151	41.560701361694	0.008625666643
0	11156	41.569327028337	0.012752634385
0	11164	41.582079662722	0.005825769668
0	11166	41.58790543239	0.001410447292
0	11168	41.589315879682	0.001510729218
0	11173	41.5908266089	0.057594875627
0	11187	41.648421484527	0.020683424775
0	11192	41.669104909302	0.067005302114
0	11197	41.736110211416	0.005785986563
0	11199	41.741896197979	0.025415722388
0	11207	41.767311920367	0.011964904307
0	11212	41.779276824674	0.008615438262
0	11214	41.787892262936	0.006801991663
0	11219	41.794694254599	0.005870848067
0	11224	41.800565102666	0.050814868743
0	11233	41.851379971409	0.006165951025
0	11235	41.857545922434	0.011964347495
0	11243	41.869510269929	0.002723131467
0	11245	41.872233401396	0.042381399056
0	11253	41.914614800452	0.01492289994
0	11258	41.929537700392	0.000900289617
0	11260	41.930437990009	0.003058764735
0	11262	41.933496754744	0.015348878461
0	11270	41.948845633205	0.007617323087
0	11275	41.956462956292	0.012056278088
0	11283	41.96851923438	0.019707804891
0	11288	41.988227039271	0.007893995984
0	11293	41.996121035255	0.026005534589
0	11299	42.022126569844	0.007138912726
0	11301	42.02926548257	0.000491442915
0	11303	42.029756925485	0.006206412294
0	11305	42.035963337779	0.011246448499
0	11307	42.047209786278	0.00445111274
0	11309	42.051660899018	0.021118217986
0	11312	42.072779117004	0.01357039097
0	11314	42.086349507974	0.038379948493
0	11316	42.124729456467	0.008466608121
0	11318	42.133196064588	0.012899516754
0	11320	42.146095581342	0.008027485504
0	11322	42.154123066846	0.069608628407
0	11324	42.223731695253	0.001370013636
0	11326	42.225101708889	0.006174915359
0	11328	42.231276624248	0.000279241365
0	11330	42.231555865613	0.00027201552
0	11332	42.231827881133	0.048530511182
0	11334	42.280358392315	0.013223393682
0	11336	42.293581785997	0.010680466814
0	11338	42.304262252811	0.005917344144
0	11340	42.310179596955	0.022604816779
0	11342	42.332784413734	0.03471336899
0	11344	42.367497782724	0.012044165881
0	11346	42.379541948605	0.005299442714
0	11348	42.384841391319	0.004478819209
0	11350	42.389320210528	0.007439520169
0	11352	42.396759730697	0.053035812508
0	11373	42.449795543205	0.031330196104
0	11387	42.481125739309	0.002617258716
0	11389	42.483742998025	0.025115377236
0	11403	42.508858375261	0.01313149285
0	11411	42.521989868111	0.016331226621
0	11419	42.538321094732	0.001924229883
0	11421	42.540245324615	0.024412077437
0	11432	42.564657402052	0.00520850139
0	11437	42.569865903442	0.010847593874
0	11445	42.580713497316	0.023130015323
0	11456	42.603843512639	0.000106483968
0	11458	42.603949996607	0.01494837351
0	11466	42.618898370117	0.000228401731
0	11468	42.619126771848	0.015972576609
0	11476	42.635099348457	0.014316928946
0	11484	42.649416277403	0.035704282352
0	11501	42.685120559755	0.001739303554
0	11503	42.686859863309	0.001254071445
0	11505	42.688113934754	0.001048520377
0	11507	42.689162455131	0.047041117701
0	11530	42.736203572832	0.067345566244
0	11541	42.803549139076	0.021066712271
0	11548	42.824615851347	0.03918028241
0	11559	42.863796133757	0.02048349558
0	11567	42.884279629337	0.003298135119
0	11569	42.887577764456	0.000613477514
0	11571	42.88819124197	1.3288724e-005
0	11573	42.888204530694	0.048175054814
0	11595	42.936379585508	0.056832019117
0	11607	42.993211604625	0.000567618976
0	11609	42.993779223601	0.00652361595
0	11612	43.000302839551	0.00410233951
0	11621	43.004405179061	0.004113382399
0	11623	43.00851856146	0.045250216076
0	11641	43.053768777536	0.023521194544
0	11649	43.07728997208	0.002710156553
0	11651	43.080000128633	0.002306056477
0	11653	43.08230618511	0.01014956328
0	11663	43.09245574839	0.006148163003
0	11669	43.098603911393	0.028546427293
0	11680	43.127150338686	0.073853474424
0	11690	43.20100381311	0.016554036435
0	11696	43.217557849545	0.020403201227
0	11702	43.237961050772	0.026222109273
0	11707	43.264183160045	0.014707644848
0	11713	43.278890804893	0.004284818436
0	11715	43.283175623329	0.010147253122
0	11721	43.293322876451	0.010622350382
0	11728	43.303945226833	0.029788787402
0	11737	43.333734014235	0.013798571436
0	11744	43.347532585671	0.003038737172
0	11746	43.350571322843	0.005584320766
0	11751	43.356155643609	0.068430734923
0	11764	43.424586378532	0.123483941459
0	11777	43.548070319991	0.039483333806
0	11782	43.587553653797	0.022240977727
0	11788	43.609794631524	0.019228742118
0	11794	43.629023373642	0.043045310652
0	11800	43.672068684294	0.000877077433
0	11803	43.672945761727	0.009983435068
0	11808	43.682929196795	0.024136580426
0	11819	43.707065777221	0.051762673327
0	11827	43.758828450548	0.048902416834
0	11834	43.807730867382	0.005797068712
0	11836	43.813527936094	0.014871009746
0	11844	43.82839894584	0.003436747096
0	11846	43.831835692936	0.008746077121
0	11855	43.840581770057	0.030916124178
0	11860	43.871497894235	0.002562971718
0	11862	43.874060865953	0.072250690864
0	11870	43.946311556817	0.028121870341
0	11876	43.974433427158	0.001280870361
0	11878	43.975714297519	0.043260263981
0	11888	44.0189745615	0.002107269848
0	11890	44.021081831348	0.002112805511
0	11892	44.023194636859	0.007651517481
0	11897	44.03084615434	0.02845788523
0	11909	44.05930403957	0.01492888945
0	11914	44.07423292902	0.000344153863
0	11916	44.074577082883	0.024366255523
0	11927	44.098943338406	0.068258265254
0	11935	44.16720160366	0.062268053609
0	11942	44.229469657269	0.019093253364
0	11950	44.248562910633	0.002507177253
0	11952	44.251070087886	0.016078851355
0	11960	44.267148939241	0.008810915603
0	11965	44.275959854844	0.007018113434
0	11968	44.282977968278	0.006192664515
0	11974	44.289170632793	0.052983838477
0	11982	44.34215447127	0.032944720061
0	11988	44.375099191331	0.006182353804
0	11990	44.381281545135	0.003571980861
0	11996	44.384853525996	0.035222270873
0	12005	44.420075796869	0.041885348951
0	12014	44.46196114582	0.084139532406
0	12023	44.546100678226	0.02971879367
0	12029	44.575819471896	0.030593748693
0	12034	44.606413220589	0.043052056393
0	12041	44.649465276982	0.01463734079
0	12047	44.664102617772	0.069583883958
0	12057	44.73368650173	0.001367167099
0	12059	44.735053668829	0.017040229548
0	12068	44.752093898377	0.012788859868
0	12073	44.764882758245	0.01226501043
0	12078	44.777147768675	0.011534179102
0	12084	44.788681947777	0.013272953505
0	12091	44.801954901282	0.004532894369
0	12093	44.806487795651	0.045173840484
0	12103	44.851661636135	0.011018639491
0	12108	44.862680275626	0.004681140926
0	12110	44.867361416552	0.008855798441
0	12116	44.876217214993	0.009411289524
0	12124	44.885628504517	0.003574981069
0	12126	44.889203485586	0.020496064898
0	12134	44.909699550484	0.011645506623
0	12139	44.921345057107	0.025177920103
0	12144	44.94652297721	0.006097919886
0	12146	44.952620897096	0.001160468623
0	12152	44.953781365719	0.014765502578
0	12160	44.968546868297	0.076474511473
0	12168	45.04502137977	0.000715861168
0	12170	45.045737240938	0.008052939294
0	12175	45.053790180232	0.047338509463
0	12185	45.101128689695	0.00461503674
0	12187	45.105743726435	0.033896028491
0	12195	45.139639754926	0.007339497558
0	12198	45.146979252484	0.016085209956
0	12208	45.16306446244	0.083693006209
0	12218	45.246757468649	0.038185009799
0	12227	45.284942478448	0.022087204795
0	12234	45.307029683243	0.065612403582
0	12244	45.372642086825	0.005628114687
0	12247	45.378270201512	0.002342416781
0	12252	45.380612618293	0.004490290242
0	12254	45.385102908535	0.019930058809
0	12266	45.405032967344	0.001556964113
0	12268	45.406589931457	0.124232287528
0	12277	45.530822218985	0.009026431712
0	12282	45.539848650697	0.088273102084
0	12287	45.628121752781	0.034717395617
0	12292	45.662839148398	0.018492658395
0	12297	45.681331806793	0.006443407336
0	12299	45.687775214129	0.002739795831
0	12304	45.69051500996	0.009192860561
0	12309	45.699707870521	0.017502631711
0	12317	45.717210502232	0.028662411638
0	12322	45.74587291387	4.1335317e-005
0	12324	45.745914249187	0.023811055935
0	12332	45.769725305122	0.004435672987
0	12334	45.774160978109	0.010635318636
0	12339	45.784796296745	0.062527372881
0	12347	45.847323669626	0.00359017392
0	12349	45.850913843546	0.008022706991
0	12354	45.858936550537	0.044843493142
0	12362	45.903780043679	0.020343785855
0	12367	45.924123829534	0.017116226405
0	12372	45.941240055939	0.006593970399
0	12374	45.947834026338	0.005934935716
0	12379	45.953768962054	0.059061842898
0	12387	46.012830804952	0.00540444199
0	12389	46.018235246942	0.02608018986
0	12397	46.044315436802	0.011898123353
0	12402	46.056213560155	0.007999140808
0	12407	46.064212700963	0.010321694514
0	12412	46.074534395477	0.031381416946
0	12417	46.105915812423	0.001427352212
0	12419	46.107343164635	0.002289494588
0	12421	46.109632659223	0.057344121454
0	12432	46.166976780677	0.009962102034
0	12437	46.176938882711	0.030924956872
0	12442	46.207863839583	0.005000485711
0	12444	46.212864325294	0.01372534315
0	12452	46.226589668444	0.023022955283
0	12457	46.249612623727	0.007917308451
0	12462	46.257529932178	0.002161646146
0	12464	46.259691578324	0.004005059098
0	12466	46.263696637422	0.010117618615
0	12474	46.273814256037	0.003637382842
0	12476	46.277451638879	0.006477234147
0	12481	46.283928873026	0.005501646275
0	12486	46.289430519301	0.014118283477
0	12491	46.303548802778	0.004982777903
0	12496	46.308531580681	0.008612510122
0	12501	46.317144090803	0.024736845262
0	12512	46.341880936065	0.024511460039
0	12517	46.366392396104	0.029361698257
0	12522	46.395754094361	0.000497681633
0	12524	46.396251775994	0.009034844124
0	12529	46.405286620118	0.020101724457
0	12537	46.425388344575	0.003472637476
0	12539	46.428860982051	0.005242139371
0	12544	46.434103121422	0.020697788602
0	12552	46.454800910024	0.006258877074
0	12554	46.461059787098	0.008094237306
0	12559	46.469154024404	0.032214334375
0	12568	46.501368358779	0.053838379487
0	12573	46.555206738266	0.062276083237
0	12578	46.617482821503	0.031085832388
0	12583	46.648568653891	0.00761204156
0	12585	46.656180695451	0.088058287818
0	12593	46.744238983269	0.035066774082
0	12598	46.779305757351	0.043671712329
0	12603	46.82297746968	0.002196092941
0	12605	46.825173562621	0.000106584302
0	12607	46.825280146923	0.020101436726
0	12615	46.845381583649	0.001244644345
0	12617	46.846626227994	0.02780864179
0	12628	46.874434869784	0.045693382779
0	12633	46.920128252563	0.003391532801
0	12635	46.923519785364	0.002532415554
0	12637	46.926052200918	0.011102600904
0	12645	46.937154801822	0.018106206836
0	12653	46.955261008658	0.044643868852
0	12658	46.99990487751	0.008764553806
0	12663	47.008669431316	0.002186890271
0	12665	47.010856321587	0.000687100143
0	12667	47.01154342173	0.00036524199
0	12669	47.01190866372	0.001730255529
0	12671	47.013638919249	0.017860537791
0	12679	47.03149945704	0.02903437047
0	12693	47.06053382751	0.0114374153
0	12698	47.07197124281	0.036954132406
0	12703	47.108925375216	0.032058110749
0	12708	47.140983485965	0.009026745333
0	12713	47.150010231298	0.05139767112
0	12718	47.201407902418	0.005667757003
0	12720	47.207075659421	0.007109332002
0	12725	47.214184991423	0.013608197051
0	12733	47.227793188474	0.009833670903
0	12738	47.237626859377	0.00330417099
0	12740	47.240931030367	0.013321230038
0	12748	47.254252260405	0.01919129957
0	12753	47.273443559975	0.017741992182
0	12758	47.291185552157	0.026903644905
0	12763	47.318089197062	0.082521444176
0	12768	47.400610641238	0.024345590188
0	12773	47.424956231426	0.023902259895
0	12778	47.448858491321	0.053788387768
0	12783	47.502646879089	0.009871128773
0	12788	47.512518007862	0.018411676462
0	12793	47.530929684324	0.006124191345
0	12795	47.537053875669	0.01808711587
0	12803	47.555140991539	0.057872799431
0	12809	47.61301379097	0.026710902686
0	12814	47.639724693656	0.002913199963
0	12816	47.642637893619	0.025876762132
0	12824	47.668514655751	0.025478312352
0	12829	47.693992968103	0.006547087319
0	12831	47.700540055422	0.051910962121
0	12839	47.752451017543	0.031916019141
0	12844	47.784367036684	0.021852539919
0	12849	47.806219576603	0.046959968052
0	12854	47.853179544655	0.011000147282
0	12859	47.864179691937	0.030228875157
0	12864	47.894408567094	0.004437660361
0	12866	47.898846227455	0.037860296669
0	12874	47.936706524124	0.009160720887
0	12879	47.945867245011	0.037772659129
0	12884	47.98363990414	0.024542905152
0	12890	48.008182809292	0.005690216635
0	12892	48.013873025927	0.02096984435
0	12894	48.034842870277	0.035095173794
0	12896	48.069938044071	0.052615163323
0	12898	48.122553207394	0.025386666662
0	12900	48.147939874056	0.040327218378
0	12902	48.188267092434	0.007812480026
0	12904	48.19607957246	0.033872783245
0	12907	48.229952355705	0.022459092137
0	12909	48.252411447842	0.048483955081
0	12911	48.300895402923	0.022367558935
0	12913	48.323262961858	0.006468593508
0	12915	48.329731555366	0.032425732054
0	12917	48.36215728742	0.009225589258
0	12919	48.371382876678	1.211436e-006
0	12921	48.371384088114	0.009557293788
0	12923	48.380941381902	0.020837637978
0	12926	48.40177901988	0.016440102814
0	12934	48.418219122694	0.022349124034
0	12945	48.440568246728	0.022065556763
0	12956	48.462633803491	0.01722720833
0	12964	48.479861011821	0.006757531538
0	12969	48.486618543359	0.030045588158
0	12983	48.516664131517	0.000393087144
0	12985	48.517057218661	0.003098686314
0	12987	48.520155904975	0.010190608747
0	12995	48.530346513722	0.007170931692
0	13000	48.537517445414	0.007378651095
0	13005	48.544896096509	0.028200885815
0	13016	48.573096982324	0.057010044197
0	13042	48.630107026521	0.008399014225
0	13047	48.638506040746	0.043832512981
0	13052	48.682338553727	0.018509123125
0	13057	48.700847676852	0.039366688804
0	13062	48.740214365656	0.019425109279
0	13067	48.759639474935	0.021168596168
0	13072	48.780808071103	0.00709392851
0	13074	48.787901999613	0.008440707743
0	13082	48.796342707356	0.012357432374
0	13087	48.80870013973	0.01591907538
0	13092	48.82461921511	0.023090904906
0	13097	48.847710120016	0.033772332468
0	13102	48.881482452484	0.029714255353
0	13107	48.911196707837	0.002076353394
0	13109	48.913273061231	0.020838097876
0	13117	48.934111159107	0.03229653589
0	13122	48.966407694997	0.009746709417
0	13127	48.976154404414	0.000841034074
0	13129	48.976995438488	0.000641676411
0	13131	48.977637114899	0.033902207083
0	13142	49.011539321982	0.046254306908
0	13147	49.05779362889	0.032959812721
0	13152	49.090753441611	0.000188388131
0	13154	49.090941829742	0.001047083742
0	13156	49.091988913484	0.00216039092
0	13158	49.094149304404	0.019732156192
0	13166	49.113881460596	0.030582444685
0	13177	49.144463905281	0.013961308302
0	13182	49.158425213583	0.00125650064
0	13184	49.159681714223	0.003722242624
0	13186	49.163403956847	0.043395438819
0	13197	49.206799395666	0.003212272159
0	13199	49.210011667825	0.04567741887
0	13207	49.255689086695	0.029678949341
0	13212	49.285368036036	0.001152189016
0	13214	49.286520225052	0.016772374081
0	13222	49.303292599133	0.060300690106
0	13227	49.363593289239	0.081489824961
0	13232	49.4450831142	0.014449973373
0	13237	49.459533087573	0.080624895145
0	13242	49.540157982718	1.3835791e-005
0	13244	49.540171818509	0.098307389922
0	13252	49.638479208431	0.014820072376
0	13257	49.653299280807	0.002525226611
0	13259	49.655824507418	0.009579930841
0	13264	49.665404438259	0.055695212376
0	13272	49.721099650635	0.084479742368
0	13278	49.805579393003	0.005609352749
0	13280	49.811188745752	0.006038006956
0	13285	49.817226752708	0.012257619511
0	13290	49.829484372219	0.011831559274
0	13298	49.841315931493	0.028327366542
0	13303	49.869643298035	0.001989716842
0	13305	49.871633014877	0.00455359971
0	13307	49.876186614587	0.041854330427
0	13318	49.918040945014	0.016708579949
0	13323	49.934749524963	0.000765138104
0	13325	49.935514663067	0.004111396176
0	13327	49.939626059243	0.029501740945
0	13338	49.969127800188	0.00221273512
0	13340	49.971340535308	0.0065237131
0	13345	49.977864248408	0.002478606673
0	13347	49.980342855081	0.00299631188
0	13349	49.983339166961	0.008852097483
0	13354	49.992191264444	0.024175737774
0	13365	50.016367002218	9.3314021e-005
0	13367	50.016460316239	0.019589801625
0	13378	50.036050117864	0.011062624422
0	13383	50.047112742286	0.000724605257
0	13385	50.047837347543	0.021824618332
0	13393	50.069661965875	0.009825986305
0	13398	50.07948795218	0.010272864718
0	13403	50.089760816898	0.016224161887
0	13408	50.105984978785	0.001794000201
0	13410	50.107778978986	0.008814796938
0	13415	50.116593775924	0.001294799894
0	13417	50.117888575818	0.019978155398
0	13425	50.137866731216	0.006517830641
0	13430	50.144384561857	0.012419609228
0	13438	50.156804171085	0.003710036673
0	13440	50.160514207758	0.020787773781
0	13448	50.181301981539	0.067102489259
0	13453	50.248404470798	0.018808426756
0	13458	50.267212897554	0.003279346102
0	13460	50.270492243656	0.004486649049
0	13462	50.274978892705	0.032742600529
0	13473	50.307721493234	0.008244987479
0	13478	50.315966480713	0.017643001487
0	13483	50.3336094822	0.007226653117
0	13485	50.340836135317	0.01684626236
0	13493	50.357682397677	0.078654514693
0	13498	50.43633691237	0.014352105796
0	13503	50.450689018166	0.0055917331
0	13505	50.456280751266	0.071342495936
0	13514	50.527623247202	0.005235234193
0	13516	50.532858481395	0.009046253813
0	13521	50.541904735208	0.001183763955
0	13523	50.543088499163	0.031015433568
0	13534	50.574103932731	0.059301387281
0	13539	50.633405320012	0.01620684269
0	13544	50.649612162702	0.012925392398
0	13549	50.6625375551	0.010071494989
0	13554	50.672609050089	0.090255706318
0	13559	50.762864756407	0.062230016154
0	13564	50.825094772561	0.027702017128
0	13569	50.852796789689	0.018241790065
0	13574	50.871038579754	0.000696920932
0	13576	50.871735500686	0.002532067612
0	13578	50.874267568298	0.031748185238
0	13589	50.906015753536	0.01080986784
0	13594	50.916825621376	0.047879416033
0	13599	50.964705037409	0.030426867301
0	13604	50.99513190471	0.026616442753
0	13610	51.021748347463	0.023666876102
0	13612	51.045415223565	0.006183031025
0	13614	51.05159825459	0.04961996552
0	13616	51.10121822011	0.003143268447
0	13618	51.104361488557	0.006005281587
0	13620	51.110366770144	0.004314872168
0	13622	51.114681642312	0.028392366684
0	13624	51.143074008996	0.098915753884
0	13626	51.24198976288	0.012319101236
0	13628	51.254308864116	0.013863799832
0	13630	51.268172663948	0.017048005107
0	13632	51.285220669055	0.113334711131
0	13634	51.398555380186	0.062042611484
0	13655	51.46059799167	0.021494247795
0	13666	51.482092239465	0.077539212069
0	13686	51.559631451534	0.053307972048
0	13692	51.612939423582	0.039550838779
0	13697	51.652490262361	0.020623883614
0	13702	51.673114145975	0.008897545966
0	13707	51.682011691941	0.005662570497
0	13709	51.687674262438	0.043731777222
0	13717	51.73140603966	0.007567374141
0	13719	51.738973413801	0.020355905738
0	13727	51.759329319539	0.046656526345
0	13732	51.805985845884	0.011242265238
0	13738	51.817228111122	0.051045017404
0	13749	51.868273128526	0.000727941798
0	13751	51.869001070324	0.020313399846
0	13762	51.88931447017	0.029404663899
0	13770	51.918719134069	0.002060509364
0	13772	51.920779643433	0.013947344806
0	13782	51.934726988239	0.00604673993
0	13784	51.940773728169	0.030853210061
0	13793	51.97162693823	0.003918586879
0	13795	51.975545525109	0.027568333238
0	13803	52.003113858347	0.019354500762
0	13809	52.022468359109	0.031555623283
[...]
5	108565	398.361375702164	0.016968234691
5	108572	398.371192196099	0.008517887564
5	108575	398.379705939714	0.016931764182
5	108582	398.40829158903	0.00849823965
5	108590	398.443064185296	0.008480736613
5	108599	398.462555048065	0.008470474347
5	108602	398.471021424456	0.009568600992
5	108609	398.521567450802	0.008439836026
5	108615	398.53781807193	0.008431703204
5	108621	398.550591243876	0.008425613866
5	108630	398.602801801492	0.008399328054
5	108637	398.630065741441	0.008385241974
5	108643	398.638446967495	0.013369141873
5	108646	398.644952154086	0.011626398503
5	108655	398.6820827131	0.00835920707
5	108660	398.690437929142	0.015161510611
5	108663	398.698788161756	0.009639240284
5	108668	398.725602851063	0.008337303478
5	108681	398.777237959997	0.008311564949
5	108685	398.785545579271	0.008980730667
5	108691	398.819415107891	0.008290891863
5	108696	398.831197509953	0.008285004143
5	108705	398.842894714363	0.008279124778
5	108713	398.851169924199	0.010412054476
5	108716	398.851339395132	0.008723604458
5	108719	398.859441222793	0.009340582476
5	108722	398.859609716493	0.008895820402
5	108729	398.889772301661	0.00825569053
5	108737	398.931218043309	0.008235294118
5	108745	398.939449463817	0.015576603444
5	108748	398.946046589621	0.009313811363
5	108751	398.947677014358	0.010003875695
5	108757	398.967685760564	0.008217891524
5	108762	398.987412105534	0.008208255159
5	108772	399.030073853878	0.008188092175
5	108777	399.038250004273	0.015340163991
5	108780	399.038361161002	0.008184262832
5	108787	399.059452936158	0.008173750584
5	108799	399.104652809135	0.008151857459
5	108802	399.11280087106	0.012933702687
5	108809	399.120945140984	0.020519601342
5	108813	399.129085622435	0.016102330746
5	108816	399.133741439599	0.014190130882
5	108821	399.146441392163	0.00813197026
5	108829	399.179827735756	0.008116883117
5	108832	399.185352020505	0.008748158185
5	108839	399.223076542879	0.00809622947
5	108845	399.241839788733	0.008086876155
5	108858	399.299761460773	0.008059873345
5	108863	399.307817623738	0.014033766116
5	108866	399.315870079737	0.014866501315
5	108871	399.324955667571	0.008048752443
5	108880	399.355244870071	0.008033972225
5	108886	399.37387214729	0.008025682183
5	108895	399.458002284499	0.007987220447
5	108900	399.465985861141	0.015860915161
5	108903	399.473965797302	0.008867399198
5	108912	399.566447916438	0.007937407869
5	108917	399.5743817258	0.010048221155
5	108922	399.582311939916	0.015950065059
5	108925	399.590238562043	0.02308185408
5	108928	399.598161595433	0.019039813389
5	108939	399.61555108443	0.007915865656
5	108942	399.623463371081	0.012457786095
5	108947	399.631372081961	0.017376872557
5	108952	399.639277220301	0.024410963406
5	108957	399.647178789327	0.022526598076
5	108960	399.655076792261	0.016499078545
5	108963	399.66297123232	0.016993164944
5	108968	399.672002423352	0.007889990983
5	108975	399.682784219207	0.007885546919
5	108978	399.690666214478	0.01030220721
5	108983	399.735514637666	0.00786163522
5	108988	399.757686199058	0.007851934941
5	108993	399.768782495317	0.007847533632
5	108998	399.797136155662	0.007834359261
5	109003	399.845893418795	0.007813372028
5	109008	399.889176775149	0.007794232268
5	109013	399.921899184403	0.007780371235
5	109020	399.936499973545	0.007773459189
5	109023	399.944269981315	0.008739289518
5	109030	399.958594585928	0.007763975155
5	109033	399.966355118079	0.007867384163
5	109038	399.977797326625	0.007755373366
5	109043	399.987029655793	0.007751937984
6	2742	10.19835258653	1.2001889365728
6	3070	11.398541523103	0.96566736514229
6	3307	12.364208888245	0.1277771729257
6	3342	12.491986061171	0.35618174740504
6	3477	12.848167808576	0.66393001886428
6	3728	13.51209782744	0.31037396562103
6	3845	13.822471793061	1.0016790557176
6	4188	14.824150848779	0.97057225814131
6	4425	15.79472310692	1.7049950941208
6	4896	17.499718201041	0.75319890850995
6	5005	18.252917109551	1.1489355117373
6	5307	19.401852621288	0.14454027411866
6	5371	19.546392895407	0.69027364835869
6	5522	20.236666543766	0.72067896131804
6	5688	20.957345505084	0.88381623042317
6	5946	21.841161735507	0.20388011696116
6	5982	22.045041852468	1.272088314127
6	6268	23.317130166595	1.5386772927642
6	6671	24.855807459359	0.29907753004643
6	6712	25.154884989405	1.9239794311703
6	7145	27.078864420575	0.79011482940329
6	7414	27.868979249978	0.68168678330413
6	7638	28.550666033282	0.52308012522729
6	7854	29.073746158509	1.8744553867197
6	8380	30.948201545229	0.19478039533625
6	8422	31.142981940565	0.082996325505996
6	8452	31.225978266071	3.4943792803259
6	9502	34.720357546397	0.70369478920492
6	9695	35.424052335602	0.35242450398605
6	9741	35.776476839588	0.067515217654314
6	9777	35.843992057242	0.33949314282428
6	9833	36.183485200066	0.55883017613127
6	10004	36.742315376197	0.12351693109527
6	10030	36.865832307292	0.1015133936909
6	10051	36.967345700983	0.20055930281028
6	10107	37.167905003793	0.13600298362652
6	10133	37.30390798742	0.68179143761943
6	10304	37.985699425039	0.90818692663954
6	10522	38.893886351679	0.83416971691722
6	10693	39.728056068596	0.25619891344856
6	10754	39.984254982045	0.25081690982445
6	10847	40.235071891869	0.11310787648983
6	10871	40.348179768359	1.4588271041011
6	11229	41.80700687246	0.24885400850555
6	11311	42.055860880966	0.86111166349467
6	11591	42.916972544461	0.43051569854091
6	11743	43.347488243002	0.18371049824741
6	11775	43.531198741249	0.63071240531491
6	11933	44.161911146564	0.45802979297553
6	12039	44.61994093954	0.22532496256765
6	12102	44.845265902108	0.63237872423476
6	12276	45.477644626343	1.0227816817705
6	12567	46.500426308114	1.062086112426
6	12805	47.56251242054	0.65984748465707
6	12906	48.222359905197	1.5754701208104
6	13277	49.797830026007	0.70367584683763
6	13513	50.501505872845	1.0878557349496
6	13691	51.589361607795	0.48921523685956
6	13832	52.078576844655	0.94940731685217
6	14110	53.027984161507	1.5781207184635
6	14536	54.60610487997	4.6942196674673
6	15834	59.300324547437	0.86751052698531
6	15999	60.167835074422	0.12724808738521
6	16016	60.295083161807	0.17709357042038
6	16079	60.472176732227	0.160831859711
6	16160	60.633008591938	1.2064837658756
6	16421	61.839492357814	1.9124436823978
6	16842	63.751936040212	3.3396625581087
6	17879	67.091598598321	0.71238276335011
6	18058	67.803981361671	0.69316390865028
6	18253	68.497145270321	0.24496736759855
6	18318	68.74211263792	2.2029213048819
6	18990	70.945033942802	5.0006293088072
6	20165	75.945663251609	0.41796337159556
6	20301	76.363626623205	0.37877081408032
6	20367	76.742397437285	0.83735046450154
6	20596	77.579747901787	0.29939462543832
6	20669	77.879142527225	0.55782283368032
6	20752	78.436965360905	1.6563999950498
6	21243	80.093365355955	0.57402683905906
6	21364	80.667392195014	0.43645338340742
6	21452	81.103845578421	1.4986087234038
6	21992	82.602454301825	0.63081576499479
6	22177	83.23327006682	0.76701802268976
6	22372	84.00028808951	0.32044393375055
6	22492	84.320732023261	3.0735256647249
6	23248	87.394257687986	1.6004800982432
6	23755	88.994737786229	0.78571905500128
6	23970	89.78045684123	1.6827530591843
6	24379	91.463209900414	0.085661293271079
6	24403	91.548871193685	2.958251984911
6	25046	94.507123178596	0.45624652685833
6	25132	94.963369705454	1.73095397945
6	25543	96.694323684904	1.9028061339611
6	26142	98.597129818865	0.72389327825572
6	26417	99.321023097121	0.5213391108869
6	26517	99.842362208008	0.2497418640352
6	26558	100.092104072043	0.027579200084848
6	26559	100.119683272128	1.3729099848399
6	26950	101.492593256968	0.28392545331783
6	27016	101.776518710286	0.56482040593653
6	27104	102.341339116223	0.069504825701929
6	27110	102.410843941925	2.1919721139289
6	27800	104.602816055854	5.0916301550693
6	29263	109.694446210923	2.8334995336328
6	30061	112.527945744556	3.5260912624288
6	30894	116.054037006985	0.69918990096539
6	31035	116.75322690795	1.6107305002588
6	31515	118.363957408209	1.2108028659259
6	31829	119.574760274135	0.92084387790351
6	32087	120.495604152039	1.2260207574069
6	32371	121.721624909446	1.4479989833428
6	32734	123.169623892789	0.65589331411704
6	32965	123.825517206906	0.1853968154171
6	33000	124.010914022323	3.2267499934701
6	33804	127.237664015793	0.3467574741214
6	33915	127.584421489914	0.55516512914858
6	34068	128.139586619063	0.74247793514677
6	34237	128.88206455421	0.3898982287357
6	34290	129.271962782946	0.44102640243262
6	34441	129.712989185379	1.435190526173
6	34947	131.148179711552	0.046755149518365
6	34986	131.19493486107	2.6975341017809
6	35685	133.892468962851	4.0836089113507
6	36623	137.976077874202	1.2420805721391
6	36926	139.218158446341	0.5822409230849
6	37106	139.800399369426	0.72863086825066
6	37278	140.529030237677	0.70118023749097
6	37475	141.230210475168	2.1582388852684
6	38050	143.388449360436	0.39088390774087
6	38141	143.779333268177	0.80661569040621
6	38438	144.585948958583	0.30076022185329
6	38556	144.886709180436	0.85247707889295
6	38750	145.739186259329	0.48921072461963
6	38878	146.228396983949	0.50076521863156
6	39027	146.729162202581	1.7838918995731
6	39551	148.513054102154	2.6111061090606
6	40295	151.124160211215	1.3346399633672
6	40709	152.458800174582	0.005559848382739
6	40710	152.464360022965	0.47676333125698
6	40811	152.941123354222	1.3037876236073
6	41124	154.244910977829	0.013102806067789
6	41125	154.258013783897	0.43967405442543
6	41257	154.697687838322	1.59654608776
6	41730	156.294233926082	0.23944220835307
6	41786	156.533676134435	0.31387383649509
6	41874	156.84754997093	0.44945995375832
6	42040	157.297009924688	0.87391368060988
6	42280	158.170923605298	2.1061986511535
6	42917	160.277122256451	0.025883039693845
6	42923	160.303005296145	0.45149735764825
6	43039	160.754502653793	1.0853072605304
6	43295	161.839809914323	0.69958167173829
6	43461	162.539391586061	0.49024458606667
6	43604	163.029636172128	1.458814554834
6	43980	164.488450726962	0.68731182974631
6	44105	165.175762556708	2.458953234254
6	44801	167.634715790962	0.53598247600904
6	44925	168.170698266971	1.7508171948512
6	45410	169.921515461822	0.43212520454637
6	45504	170.353640666368	0.53059720071409
6	45652	170.884237867082	0.800683182685
6	45865	171.684921049767	0.99653231967504
6	46133	172.681453369442	3.6086161241274
6	47235	176.290069493569	0.41841601826978
6	47414	176.708485511839	0.1196580349801
6	47449	176.828143546819	0.4807700816622
6	47618	177.308913628481	0.3757973645514
6	47724	177.684710993032	3.2823369430844
6	48597	180.967047936116	0.042696361358483
6	48605	181.009744297474	1.0413275226714
6	48869	182.051071820145	1.3409377218767
6	49172	183.392009542022	3.1664179141808
6	50030	186.558427456203	1.0715197789214
6	50398	187.629947235124	1.6268492602584
6	50904	189.256796495382	0.24160765347191
6	50990	189.498404148854	0.2605676327161
6	51046	189.75897178157	0.53914526077589
6	51187	190.298117042346	2.1136358012906
6	51779	192.411752843637	1.0323806290749
6	52154	193.444133472712	0.89770542171107
6	52417	194.341838894423	1.0831760170536
6	52601	195.425014911477	1.5425844752613
6	52989	196.967599386738	0.18690460141352
6	53005	197.154503988152	0.75959566489772
6	53176	197.91409965305	2.1341277771656
6	53709	200.048227430216	3.4511412381354
6	54709	203.499368668351	1.5051146448708
6	55008	205.004483313222	0.85555679289699
6	55209	205.860040106119	0.14381749864963
6	55292	206.003857604769	0.64787444522696
6	55431	206.651732049996	2.0319217463459
6	55926	208.683653796342	0.54669180685233
6	56035	209.230345603194	1.3814177839259
6	56393	210.61176338712	0.91374390912158
6	56639	211.525507296242	1.6023910756517
6	56964	213.127898371894	0.11269012700057
6	56979	213.240588498895	0.78382760674387
6	57253	214.024416105639	0.45982764709528
6	57366	214.484243752734	0.2495361892162
6	57407	214.73377994195	0.24309934699521
6	57466	214.976879288945	2.5066449127116
6	58151	217.483524201657	1.6461596830665
6	58539	219.129683884723	0.89669541254352
6	58765	220.026379297267	1.6005802010089
6	59154	221.626959498276	0.42501177435329
6	59267	222.051971272629	0.80864664092288
6	59506	222.860617913552	0.30622429021478
6	59630	223.166842203767	2.2551838808788
6	60259	225.422026084646	2.4524256370365
6	60945	227.874451721683	2.6470477784697
6	61624	230.521499500153	0.54427117610876
6	61746	231.065770676262	3.8001860933545
6	62600	234.865956769617	0.77694520226012
6	62846	235.642901971877	2.4976116793948
6	63531	238.140513651272	0.93762204706648
6	63753	239.078135698338	0.040833697762833
6	63754	239.118969396101	1.7501367971248
6	64247	240.869106193226	1.3198420010276
6	64615	242.188948194254	0.97700505886266
6	64776	243.165953253117	2.2669658223574
6	65326	245.432919075474	0.19444939517962
6	65395	245.627368470654	1.819113490068
6	65967	247.446481960722	0.89466955295561
6	66256	248.341151513678	0.7688490026619
6	66457	249.11000051634	0.67190670046511
6	66637	249.781907216805	0.38760345676262
6	66781	250.169510673568	0.79386908963993
6	67002	250.963379763208	0.50625938536679
6	67138	251.469639148575	1.2023761550254
6	67455	252.6720153036	0.3249537313517
6	67551	252.996969034952	0.28211249288776
6	67629	253.27908152784	2.7527554023826
6	68517	256.031836930223	0.20656565709359
6	68593	256.238402587317	0.62314102416667
6	68774	256.861543611484	0.11718925108497
6	68803	256.978732862569	1.9124973477991
6	69336	258.891230210368	0.32028688870673
6	69407	259.211517099075	0.2392314846322
6	69468	259.450748583707	0.010302934684522
6	69469	259.461051518392	0.00012359181449871
6	69470	259.461175110206	0.99252330012643
6	69685	260.453698410332	0.097498464854526
6	69712	260.551196875187	0.34980191140012
6	69833	260.900998786587	0.19251298024655
6	69853	261.093511766834	0.20737668435934
6	69886	261.300888451193	0.72331605320716
6	70211	262.0242045044	0.10013867286612
6	70247	262.124343177266	2.1201831323787
6	70997	264.244526309645	0.33373411715272
6	71103	264.578260426798	1.5361499183842
6	71534	266.114410345182	0.24197523575218
6	71607	266.356385580934	0.75464217972414
6	71798	267.111027760658	0.33631747386842
6	71864	267.447345234526	0.3199819688709
6	72000	267.767327203397	0.63754192707526
6	72243	268.404869130472	0.026738453737199
6	72257	268.431607584209	0.79739014047039
6	72537	269.228997724679	2.0379819610922
6	73055	271.266979685771	1.8650602367259
6	73536	273.132039922497	0.32218775757927
6	73582	273.454227680076	4.4662526192604
6	74719	277.920480299336	0.15689987179823
6	74763	278.077380171134	0.050102515669037
6	74788	278.127482686803	0.7040294485407
6	74990	278.831512135344	0.26411952917844
6	75058	279.095631664522	0.40811060070872
6	75130	279.503742265231	1.0308922230364
6	75449	280.534634488267	0.17637379924298
6	75516	280.71100828751	0.17610082593866
6	75540	280.887109113449	0.24755148222442
6	75589	281.134660595673	2.0413437140347
6	76225	283.176004309708	1.8110502536933
6	76880	284.987054563401	0.24513666474835
6	76941	285.232191228149	1.2742093919155
6	77272	286.506400620065	1.3538467038763
6	77553	287.860247323941	0.052861038647014
6	77564	287.913108362588	1.0584896060232
6	77850	288.971597968611	0.97623272143115
6	78153	289.947830690042	1.6038809522826
6	78598	291.551711642325	0.33724949101715
6	78707	291.888961133342	0.031746180982872
6	78722	291.920707314325	1.6754813073159
6	79205	293.596188621641	0.26081170662736
6	79269	293.857000328268	0.78937773080339
6	79494	294.646378059071	1.2195180078308
6	79812	295.865896066902	0.018438994158877
6	79821	295.884335061061	0.091635699010483
6	79832	295.975970760071	0.016241446300164
6	79838	295.992212206371	0.031067101346268
6	79839	296.023279307717	2.7339178204843
6	80526	298.757197128201	0.44182042862901
6	80648	299.19901755683	0.49525691422706
6	80779	299.694274471057	0.89106653240342
6	80977	300.58534100346	2.4152557840872
6	81594	303.000596787547	0.053635745580626
6	81595	303.054232533128	1.7118326941504
6	82032	304.766065227278	0.067918809415694
6	82055	304.833984036694	0.094717771103499
6	82084	304.928701807797	0.044475731206528
6	82095	304.973177539004	0.44354135653916
6	82173	305.416718895543	0.50277604162904
6	82302	305.919494937172	0.019167659521677
6	82307	305.938662596694	1.1039074314704
6	82681	307.042570028164	0.59788558768001
6	82839	307.640455615844	0.22068047985552
6	82903	307.8611360957	0.030838920761374
6	82919	307.891975016461	2.0896248526716
6	83564	309.981599869133	0.31519575205227
6	83617	310.296795621185	0.56631913077113
6	83738	310.863114751956	0.0025859150943617
6	83739	310.86570066705	0.96664094849313
6	83990	311.832341615543	0.56871238861799
6	84090	312.401054004161	0.34309154004145
6	84237	312.744145544202	0.88472957012078
6	84430	313.628875114323	0.95517338546873
6	84674	314.584048499792	4.8263468095534
6	86022	319.410395309345	3.0717489887161
6	86896	322.482144298061	0.57185179038465
6	87079	323.053996088446	0.59423388938181
6	87224	323.648229977828	0.45008709826316
6	87348	324.098317076091	0.23199490237619
6	87407	324.330311978467	2.0645713735437
6	87969	326.394883352011	0.55402421708695
6	88070	326.948907569098	0.66369278432386
6	88234	327.612600353422	0.58802036509311
6	88445	328.200620718515	1.3620390347451
6	88786	329.56265975326	0.70849939034418
6	88945	330.271159143604	1.403159592749
6	89305	331.674318736353	0.74598535669201
6	89526	332.420304093045	0.39109367735869
6	89642	332.811397770404	0.043355608523314
6	89650	332.854753378927	1.3293523486438
6	90061	334.184105727571	0.17962809698369
6	90102	334.363733824555	0.20529103023816
6	90167	334.569024854793	0.59825013983952
6	90372	335.167274994633	0.1416692819768
6	90418	335.30894427661	1.2309027641298
6	90783	336.53984704074	0.010021958443374
6	90784	336.549868999183	1.503223365769
6	91245	338.053092364952	0.4668742188541
6	91362	338.519966583806	1.5010455147374
6	91908	340.021012098543	0.010859676165024
6	91914	340.031871774708	0.69872017606092
6	92230	340.730591950769	1.8869188789945
6	92811	342.617510829764	3.1407024991495
6	93702	345.758213328914	0.27861237868042
6	93770	346.036825707594	0.40327806717674
6	93846	346.440103774771	1.1395194560612
6	94145	347.579623230832	0.6567345559506
6	94287	348.236357786783	1.1305356902375
6	94682	349.36689347702	1.3798114151468
6	95200	350.746704892167	2.1700439508944
6	95908	352.916748843061	1.950798699639
6	96567	354.8675475427	0.16672266433768
6	96636	355.034270207038	0.5352208710624
6	96807	355.5694910781	2.9317087017057
6	97622	358.501199779806	1.8883883439488
6	98064	360.389588123755	0.34777712436991
6	98220	360.737365248125	0.58801438490204
6	98429	361.325379633027	1.3340835296095
6	98949	362.659463162636	1.2578908976684
6	99293	363.917354060304	0.64538415495975
6	99464	364.562738215264	0.0084842546290175
6	99465	364.571222469893	0.18016445594759
6	99506	364.751386925841	0.025524417592573
6	99507	364.776911343434	1.7570876466968
6	99940	366.533998990131	2.8209473091173
6	100588	369.354946299248	0.77587206955744
6	100816	370.130818368805	0.10773884165227
6	100847	370.238557210457	0.4372227187989
6	100931	370.675779929256	1.0846140859443
6	101209	371.7603940152	1.8451455877055
6	101805	373.605539602905	0.33304037809726
6	101934	373.938579981002	0.032321639015923
6	101945	373.970901620018	0.22419704153153
6	102035	374.19509866155	0.070138426489858
6	102059	374.26523708804	0.49156918792564
6	102214	374.756806275966	0.98934869027264
6	102543	375.746154966239	2.6023613006628
6	103286	378.348516266902	1.0077031694496
6	103528	379.356219436352	0.84460796775324
6	103759	380.200827404105	1.4685330070279
6	104117	381.669360411133	2.4854822060331
6	104959	384.154842617166	0.58230126385313
6	105140	384.737143881019	1.2115488980681
6	105434	385.948692779087	1.9552318480034
6	105861	387.90392462709	0.69558305515487
6	106025	388.599507682245	0.48072097924622
6	106131	389.080228661491	0.70539554280374
6	106312	389.785624204295	3.3461597666097
6	107105	393.131783970905	0.24695068407643
6	107134	393.378734654981	1.5155008147767
6	107552	394.894235469758	0.0046744288649914
6	107555	394.898909898623	0.55508189360776
6	107724	395.453991792231	0.54100350710359
6	107890	395.994995299335	0.42479801400954
6	107949	396.419793313345	0.82868311712706
6	108245	397.248476430472	0.77475343487035
6	108462	398.023229865342	2.0920152077087

