file 9849969 1613553649                                         
version 2
run Exponential-capacity-3-20210217-10:20:48-5772
attr configname Exponential-capacity
attr datetime 20210217-10:20:48
attr experiment Exponential-capacity
attr inifile aerocom.ini
attr iterationvars "$0=9, $1=3.5"
attr iterationvarsf 9,3.5-
attr measurement "$0=9, $1=3.5"
attr network Aerocom
attr processid 5772
attr repetition 0
attr replication #0
attr resultdir results
attr runnumber 3
attr seedset 0
param **.t 3s
param **.k 9ms
param **.X 0.5s
param **.m 3.5s
param **.tDistribution "\"exponential\""
param **.operationMode 0
param **.s "70 byte"
param **.dimPoolMax 10000
param **.dimPoolMin 8000
param **.nDL 10
param **.nA 1
param **.DLMaxCapacity 0
param **.trasmitting false

vector 0 Aerocom.aircraft[0].packetGenerator arrivalTime:vector ETV
attr "" ""
attr source computeArrivalTime
vector 1 Aerocom.aircraft[0].linkSelector responseTime:vector ETV
attr "" ""
attr source computeResponseTime
vector 2 Aerocom.aircraft[0].linkSelector waitingTime:vector ETV
attr "" ""
attr source computeWaitingTime
vector 3 Aerocom.aircraft[0].linkSelector queueLength:vector ETV
attr "" ""
attr source computeQueueLength
vector 4 Aerocom.aircraft[0].dataLink[1] actualCapacity:vector ETV
attr "" ""
attr source computeActualCapacity
vector 5 Aerocom.aircraft[0].linkSelector serviceTime:vector ETV
attr "" ""
attr source computeServiceTime
vector 6 Aerocom.aircraft[0].dataLink[4] tDistribution:vector ETV
attr "" ""
attr source computeTDistribution
vector 7 Aerocom.aircraft[0].dataLink[6] tDistribution:vector ETV
attr "" ""
attr source computeTDistribution
vector 8 Aerocom.aircraft[0].dataLink[1] tDistribution:vector ETV
attr "" ""
attr source computeTDistribution
vector 9 Aerocom.aircraft[0].dataLink[0] actualCapacity:vector ETV
attr "" ""
attr source computeActualCapacity
vector 10 Aerocom.aircraft[0].dataLink[2] actualCapacity:vector ETV
attr "" ""
attr source computeActualCapacity
vector 11 Aerocom.aircraft[0].dataLink[3] actualCapacity:vector ETV
attr "" ""
attr source computeActualCapacity
vector 12 Aerocom.aircraft[0].dataLink[4] actualCapacity:vector ETV
attr "" ""
attr source computeActualCapacity
vector 13 Aerocom.aircraft[0].dataLink[5] actualCapacity:vector ETV
attr "" ""
attr source computeActualCapacity
vector 14 Aerocom.aircraft[0].dataLink[6] actualCapacity:vector ETV
attr "" ""
attr source computeActualCapacity
vector 15 Aerocom.aircraft[0].dataLink[7] actualCapacity:vector ETV
attr "" ""
attr source computeActualCapacity
vector 16 Aerocom.aircraft[0].dataLink[8] actualCapacity:vector ETV
attr "" ""
attr source computeActualCapacity
vector 17 Aerocom.aircraft[0].dataLink[9] actualCapacity:vector ETV
attr "" ""
attr source computeActualCapacity
vector 18 Aerocom.aircraft[0].dataLink[5] tDistribution:vector ETV
attr "" ""
attr source computeTDistribution
vector 19 Aerocom.aircraft[0].dataLink[8] tDistribution:vector ETV
attr "" ""
attr source computeTDistribution
vector 20 Aerocom.aircraft[0].dataLink[0] tDistribution:vector ETV
attr "" ""
attr source computeTDistribution
vector 21 Aerocom.aircraft[0].dataLink[2] tDistribution:vector ETV
attr "" ""
attr source computeTDistribution
vector 22 Aerocom.aircraft[0].dataLink[7] tDistribution:vector ETV
attr "" ""
attr source computeTDistribution
vector 23 Aerocom.aircraft[0].dataLink[9] tDistribution:vector ETV
attr "" ""
attr source computeTDistribution
vector 24 Aerocom.aircraft[0].dataLink[3] tDistribution:vector ETV
attr "" ""
attr source computeTDistribution
1	3580 1342017 5875 192676 10.006636176719 301.881487452489 32768 0.007005604484 0.985715275255 1951.3608699659 675.70615698605
0	1345597 1341821 5873 192683 10.005231214764 301.895187569655 32768 3.6099e-008 0.096500924816 291.90165072413 5.2073499154391
2	2687418 1204433 5875 192684 10.006636176719 301.895187569655 32768 0 0.978660957004 1708.3519602113 648.85933694787
3	3891851 923816 5875 192684 10.006636176719 301.895187569655 32768 0 120 193415 8574125
5	4815667 1472300 5875 192684 10.006636176719 301.895187569655 32768 0.0070049034324027 0.0087249158668827 243.00210265953 1.8062120130594
0	6287967 446673 192690 253867 301.906881938898 399.984749715246 10690 2.075485e-006 0.093155895855 98.130373617798 1.8051015975744
1	6734640 446737 192680 253874 301.886348202665 399.992328753791 10692 0.007026701466 0.571405421302 530.91456810627 180.02644877533
2	7181377 398483 192691 253868 301.906881938898 399.984749715246 10690 0 0.564282914179 451.57790309698 172.82256326075
3	7579860 309866 192691 253868 301.906881938898 399.984749715246 10690 0 68 50803 2247169
4	7889726 183971 5875 253292 10.006636176719 399 5881 8083 9921 55659902 527702111342
5	8073697 489227 192691 253868 301.906881938898 399.984749715246 10690 0.0070245860511791 0.0086665841277702 79.322456138907 0.58988769396025
6	8562924 6581 5999 252227 10.203684607688 397.281470896017 155 0.010739517205868 10.933740481042 391.20523465692 1867.3384032852
7	8569505 5456 6037 253638 10.276687748401 399.582664491057 128 0.0046257705518035 21.866676562641 394.65348847132 2680.3533415531
8	8574961 5084 6090 253654 10.379485951627 399.598350968059 120 0.010023053548118 19.095471434865 392.76340000707 2407.0567308421
9	8580045 170005 6175 253292 10.5 399 5459 8066 9961 51592274 488643051916
10	8750050 89970 6175 253292 10.5 399 2834 8018 9888 26874469 255162599299
11	8840020 126521 6175 253292 10.5 399 3998 8044 9933 37826351 358457852667
12	8966541 141727 6175 253292 10.5 399 4482 8023 9965 41561664 386988149170
13	9108268 117423 6175 253292 10.5 399 3649 8089 9986 34327957 323635832767
14	9225691 120481 6175 253292 10.5 399 3779 8089 9978 35683644 337662028782
15	9346172 134865 6175 253868 10.5 399.984749715246 4192 8040 9987 39304192 369367631676
16	9481037 138244 6175 253292 10.5 399 4383 8032 9993 42577930 413796338126
17	9619281 190395 6175 253292 10.5 399 5921 8103 9935 55684340 524720731034
18	9809676 6331 6182 253476 10.512701937009 399.26724886852 146 0.0074565261417224 13.460148239681 393.83660967434 2049.2077779932
19	9816007 4768 6686 249914 11.360882962893 393.499445083393 110 0.00037077544349613 23.253607185995 395.47160748284 3033.4957189197
20	9820775 5776 7000 251747 11.986246086418 396.616178795411 133 0.039976272460222 11.530792426723 388.43385299836 2058.0400242859
21	9826551 5925 7070 251008 12.109370541993 395.436018372776 136 0.0061931119847609 15.274890465208 389.19202620404 2037.979323136
22	9832476 5700 7203 253265 12.313726549034 398.971737981676 131 0.029300814333314 15.865257109258 388.93846333758 2425.3017972606
23	9838176 5612 7645 253513 13.034736668212 399.363504255394 129 0.0077577452830852 19.513402438353 388.62563507912 2515.9534008334
24	9843788 6179 10622 252995 18.527692622347 398.597767503948 142 0.0056532962066554 13.09960706888 383.31012451243 1994.1847888339

