version 2
run Exponential-capacity-4-20210215-11:02:25-7284
attr configname Exponential-capacity
attr datetime 20210215-11:02:25
attr experiment Exponential-capacity
attr inifile aerocom.ini
attr iterationvars "$0=20, $1=2"
attr iterationvarsf 20,2-
attr measurement "$0=20, $1=2"
attr network Aerocom
attr processid 7284
attr repetition 0
attr replication #0
attr resultdir results
attr runnumber 4
attr seedset 0
param **.t 1s
param **.k 20ms
param **.X 0.4s
param **.m 2s
param **.tDistribution "\"exponential\""
param **.operationMode 0
param **.s "70 byte"
param **.dimPoolMax 10000
param **.dimPoolMin 8000
param **.nDL 1
param **.nA 1
param **.DLMaxCapacity 0
param **.trasmitting false

vector 0 Aerocom.aircraft[0].dataLink[0] actualCapacity:vector ETV
attr "" ""
attr source computeActualCapacity
vector 1 Aerocom.aircraft[0].packetGenerator arrivalTime:vector ETV
attr "" ""
attr source computeArrivalTime
vector 2 Aerocom.aircraft[0].dataLink[0] tDistribution:vector ETV
attr "" ""
attr source computeTDistribution
vector 3 Aerocom.aircraft[0].linkSelector waitingTime:vector ETV
attr "" ""
attr source computeWaitingTime
vector 4 Aerocom.aircraft[0].linkSelector queueLength:vector ETV
attr "" ""
attr source computeQueueLength
vector 5 Aerocom.aircraft[0].linkSelector serviceTime:vector ETV
attr "" ""
attr source computeServiceTime
vector 6 Aerocom.aircraft[0].linkSelector responseTime:vector ETV
attr "" ""
attr source computeResponseTime
0	2589	10	8763
0	2637	10.4	8799
0	2638	10.407955449483	8804
0	2641	10.415906380878	8808
0	2644	10.423853701496	8812
0	2649	10.431797414614	8817
0	2654	10.439736622962	8821
0	2661	10.44767223117	8825
0	2666	10.455604242501	8829
0	2669	10.463532660215	8834
0	2672	10.471456590484	8838
0	2683	10.479376934453	8842
0	2686	10.487293695367	8847
0	2691	10.495205982018	8851
0	2694	10.503114692898	8855
0	2697	10.511019831238	8859
0	2700	10.518921400264	8864
0	2703	10.526818512177	8868
0	2706	10.534712062019	8872
0	2709	10.542602053002	8876
0	2716	10.550488488333	8881
0	2719	10.558370483604	8885
0	2722	10.566248930424	8889
0	2727	10.574123831988	8893
0	2730	10.581995191484	8898
0	2733	10.589862127874	8902
0	2736	10.597725529357	8906
0	2739	10.605585399108	8910
0	2744	10.613441740298	8915
0	2747	10.621293675239	8919
0	2750	10.629142088738	8923
0	2753	10.636986983953	8927
0	2758	10.644828364036	8932
0	2761	10.652665354632	8936
0	2764	10.660498837175	8940
0	2767	10.668328814804	8944
0	2770	10.676155290654	8948
0	2773	10.683978267856	8953
0	2776	10.691796876144	8957
0	2783	10.720196564934	8972
0	2786	10.727998615759	8976
0	2793	10.751128572025	8989
0	2798	10.768786182924	8998
0	2803	10.776565689481	9003
0	2806	10.78434087553	9007
0	2811	10.792112608626	9011
0	2818	10.801777951633	9016
0	2823	10.819149266262	9026
0	2828	10.895029741924	9067
0	2833	10.926009975507	9083
0	2838	10.967841106959	9106
0	2843	10.986493344064	9116
0	2848	10.994747941399	9120
0	2851	11.002423379995	9125
0	2858	11.064854677387	9158
0	2863	11.077000263159	9165
0	2866	11.084638015478	9169
0	2873	11.124489580904	9191
0	2878	11.184133594413	9223
0	2883	11.197689634454	9230
0	2888	11.254422438322	9261
0	2893	11.279567178233	9274
0	2898	11.311676353494	9292
0	2903	11.324993203227	9299
0	2908	11.344902476094	9310
0	2913	11.369560085355	9323
0	2919	11.411035314617	9331
0	2924	11.424824005374	9324
0	2927	11.432331512882	9319
0	2934	11.46898770431	9299
0	2939	11.506789738272	9277
0	2942	11.514335281012	9273
0	2949	11.530351901136	9264
0	2954	11.560036750789	9247
0	2957	11.567606773499	9243
0	2964	11.633496402301	9206
0	2969	11.642027118542	9201
0	2974	11.681682096634	9178
0	2977	11.689309030607	9174
0	2984	11.715210157121	9159
0	2989	11.795369150218	9114
0	2994	11.879406338743	9067
0	2999	11.89242228559	9059
0	3004	11.920435799529	9043
0	3009	11.934194669098	9036
0	3012	11.941941459713	9031
0	3019	11.954679537283	9024
0	3022	11.962436629482	9020
0	3027	11.970197161633	9015
0	3034	11.980724666166	9009
0	3037	11.988494673936	9005
0	3042	11.996268133125	9001
0	3045	12	8998
0	3082	12.404045046801	9129
0	3083	12.411712918419	9193
0	3086	12.419327407704	9258
0	3089	12.426888436004	9321
0	3092	12.434398359832	9385
0	3095	12.441857070541	9448
0	3100	12.449266045986	9510
0	3105	12.456626718962	9572
0	3108	12.463939715201	9634
0	3111	12.471205648354	9695
0	3114	12.47842586496	9756
0	3119	12.485600936711	9817
0	3123	12.49273142464	9869
0	3128	12.499824341856	9853
0	3133	12.506928777053	9837
0	3140	12.514044767701	9821
0	3145	12.52117235145	9805
0	3148	12.528311566136	9790
0	3153	12.535461719354	9774
0	3156	12.542623577345	9758
0	3159	12.549797178493	9742
0	3162	12.556982561371	9726
0	3167	12.564179764743	9710
0	3172	12.571388827565	9693
0	3175	12.578610533951	9677
0	3178	12.585844180742	9661
0	3181	12.593089807489	9645
0	3188	12.618877940254	9588
0	3191	12.626178732911	9571
0	3198	12.633492493229	9555
0	3201	12.640818500555	9539
0	3208	12.691785841735	9425
0	3213	12.717648798911	9367
0	3218	12.725121842575	9351
0	3221	12.732607672967	9334
0	3226	12.740107137291	9317
0	3233	12.762852152584	9267
0	3236	12.770405837703	9250
0	3241	12.777973405271	9233
0	3249	12.816183369845	9148
0	3252	12.819327407704	9141
0	3255	12.823835315625	9131
0	3260	12.826888436004	9124
0	3273	12.848115935808	9077
0	3282	12.870413684246	9097
0	3292	12.903672999859	9128
0	3296	12.911341711515	9135
0	3304	12.920621371141	9144
0	3311	12.931534525436	9154
0	3320	12.959431907261	9180
0	3327	12.975732273879	9195
0	3336	13.011124670343	9227
0	3345	13.050525821655	9264
0	3350	13.060055393307	9273
0	3355	13.086024306019	9297
0	3358	13.093553616549	9304
0	3363	13.099212897438	9309
0	3366	13.101077262293	9311
0	3371	13.106732502122	9316
0	3381	13.121022167525	9329
0	3384	13.125121842575	9333
0	3393	13.135104992255	9342
0	3397	13.14259803443	9349
0	3405	13.155670276063	9361
0	3408	13.163148109628	9368
0	3416	13.17401848904	9378
0	3423	13.186199778146	9390
0	3428	13.201071441982	9403
0	3434	13.224066269737	9425
0	3442	13.235734745158	9436
0	3448	13.259524670185	9458
0	3454	13.297821515338	9493
0	3457	13.305195369757	9500
0	3465	13.315852991781	9510
0	3471	13.325411351531	9519
0	3478	13.360485644431	9551
0	3481	13.367057179592	9557
0	3489	13.378722916501	9568
0	3495	13.409797826542	9597
0	3500	13.417091772567	9603
0	3503	13.418711101469	9605
0	3511	13.434353667573	9619
0	3517	13.458233934985	9642
0	3520	13.465493839569	9648
0	3528	13.493026659057	9674
0	3540	13.530609027741	9641
0	3548	13.560657283615	9558
0	3556	13.583531096027	9495
0	3559	13.590903397238	9475
0	3564	13.59365451723	9467
0	3572	13.602828964416	9442
0	3575	13.60851587461	9426
0	3583	13.621992559539	9389
0	3588	13.62944809261	9369
0	3591	13.63149332544	9363
0	3601	13.673080624473	9249
0	3606	13.682348425024	9223
0	3611	13.689938146373	9202
0	3614	13.69754518832	9181
0	3623	13.719812080694	9120
0	3629	13.73213046637	9086
0	3637	13.783979438546	8943
0	3640	13.786038970013	8938
0	3648	13.810010069223	8872
0	3658	13.842178426205	8833
0	3663	13.855677445678	8830
0	3666	13.863604965497	8829
0	3672	13.871533383211	8827
0	3680	13.88458857211	8824
0	3686	13.927450566119	8815
0	3689	13.935391575762	8814
0	3697	13.948184229488	8811
0	3702	13.965417579324	8807
0	3708	13.976125666346	8805
0	3714	14	8800
0	3722	14.040221842938	8791
0	3725	14.048184532052	8790
0	3732	14.064792665738	8786
0	3737	14.077690835561	8783
0	3740	14.080649010244	8783
0	3751	14.109027860535	8777
0	3756	14.120284364571	8774
0	3762	14.136542331795	8771
0	3768	14.150810017451	8768
0	3771	14.158793594093	8766
0	3778	14.169658987495	8764
0	3781	14.177646207942	8762
0	3790	14.195640606787	8759
0	3795	14.216606388886	8754
0	3799	14.224602733414	8752
0	3806	14.238606653886	8749
0	3809	14.246607568276	8748
0	3814	14.250103253557	8747
0	3822	14.259220716621	8745
0	3825	14.263604965497	8744
0	3836	14.325057546748	8731
0	3841	14.333074955979	8729
0	3844	14.335391575762	8729
0	3847	14.34109420217	8728
0	3860	14.382321759755	8719
0	3866	14.399620521944	8715
0	3872	14.415317262336	8712
0	3875	14.423352156735	8710
0	3880	14.431388896115	8709
0	3887	14.477743197292	8699
0	3892	14.5204916311	8690
0	3895	14.528546867003	8688
0	3900	14.536603957242	8686
0	3907	14.566722695166	8680
0	3912	14.592481934668	8675
0	3917	14.634414660138	8666
0	3922	14.644598709875	8664
0	3925	14.652678118924	8662
0	3932	14.693438493144	8653
0	3937	14.704551671407	8651
0	3942	14.727976945306	8646
0	3947	14.740796416211	8643
0	3952	14.764850691888	8638
0	3957	14.782210091528	8634
0	3960	14.790317573576	8633
0	3967	14.81534453394	8627
0	3973	14.843620200531	8640
0	3976	14.851722052383	8647
0	3983	14.864384425802	8656
0	3988	14.890674867764	8676
0	3991	14.898743101973	8683
0	3998	14.925295342436	8703
0	4003	14.933338545929	8709
0	4006	14.941376208118	8715
0	4013	14.960822654584	8730
0	4016	14.96884098219	8736
0	4023	15.032159412911	8785
0	4026	15.040127540401	8791
0	4033	15.049716183836	8798
0	4038	15.063716696558	8809
0	4043	15.081596724612	8823
0	4048	15.143058229068	8870
0	4053	15.182057767305	8900
0	4058	15.198378138584	8912
0	4063	15.21059928981	8922
0	4066	15.2184450643	8928
0	4073	15.273329179118	8970
0	4078	15.292769396939	8985
0	4083	15.309918098991	8998
0	4088	15.349676888088	9028
0	4093	15.384058274324	9055
0	4096	15.39178880994	9061
0	4103	15.435392642659	9094
0	4108	15.533062622466	9169
0	4113	15.566867321561	9195
0	4120	15.574480154622	9201
0	4123	15.582088023332	9207
0	4126	15.589690934161	9212
0	4131	15.597289718356	9218
0	4138	15.614008144601	9231
0	4143	15.624172533682	9239
0	4148	15.683808126829	9284
0	4151	15.69134798034	9290
0	4158	15.740315529799	9328
0	4163	15.751349602051	9336
0	4168	15.763211233998	9345
0	4171	15.770701870702	9351
0	4179	15.795214550195	9369
0	4184	15.833029133284	9362
0	4189	15.860143503561	9357
0	4192	15.867624533806	9356
0	4197	15.875106363648	9354
0	4204	15.932030281196	9344
0	4207	15.939521719552	9342
0	4212	15.947014761727	9341
0	4219	15.955098668518	9339
0	4224	15.963921764733	9338
0	4229	15.97386595046	9336
0	4232	15.981363808215	9334
0	4239	15.989374511625	9333
0	4242	15.996874779492	9331
0	4245	16	9331
0	4297	16.404376654961	9255
0	4302	16.411940134161	9253
0	4305	16.419505248178	9252
0	4310	16.427071179868	9250
0	4317	16.434638747436	9249
0	4322	16.442207133207	9248
0	4325	16.449776337359	9246
0	4330	16.457347178804	9245
0	4335	16.464918839161	9243
0	4338	16.472492137874	9242
0	4341	16.48006625603	9240
0	4344	16.487642013606	9239
0	4351	16.495218591158	9238
0	4358	16.502795988863	9236
0	4361	16.510375027408	9235
0	4368	16.517954886639	9233
0	4371	16.525536387776	9232
0	4374	16.533118710133	9230
0	4377	16.540702675463	9229
0	4380	16.548287462547	9228
0	4383	16.555873071563	9226
0	4386	16.563460324977	9225
0	4389	16.571048400858	9223
0	4392	16.578638122207	9222
0	4395	16.586228666557	9220
0	4398	16.593820857446	9219
0	4403	16.601413871873	9218
0	4406	16.609007710016	9216
0	4409	16.616603196127	9215
0	4416	16.624199506491	9213
0	4419	16.631797465896	9212
0	4422	16.639396250091	9210
0	4425	16.646996684402	9209
0	4428	16.654597944039	9208
0	4431	16.662200029182	9206
0	4434	16.669803765875	9205
0	4437	16.677408328613	9203
0	4440	16.685014543978	9202
0	4443	16.692621585925	9200
0	4448	16.700230281577	9199
0	4453	16.707839804351	9198
0	4456	16.715450154427	9196
0	4459	16.723062159647	9195
0	4466	16.797605537029	9181
0	4469	16.805229978811	9179
0	4474	16.811940134161	9178
0	4479	16.816484085395	9177
0	4485	16.820041620552	9176
0	4497	16.85566031405	9170
0	4505	16.876024665626	9166
0	4514	16.908928334167	9160
0	4521	16.922407203051	9157
0	4529	16.942841569999	9153
0	4546	17.033798047036	9136
0	4552	17.042978605586	9134
0	4555	17.046996684402	9134
0	4560	17.051830527586	9133
0	4572	17.082409305	9127
0	4581	17.114782526328	9121
0	4585	17.122457123412	9120
0	4590	17.123062159647	9119
0	4593	17.130132562008	9118
0	4604	17.151587659581	9114
0	4609	17.173311725804	9110
0	4614	17.182895979694	9108
0	4617	17.190581530858	9107
0	4625	17.208643580114	9103
0	4634	17.230567431334	9099
0	4640	17.282880249982	9089
0	4646	17.297447801443	9087
0	4653	17.335922572856	9079
0	4658	17.346958615289	9077
0	4664	17.36072889305	9075
0	4669	17.376908486953	9072
0	4674	17.388075022738	9070
0	4677	17.395792773565	9068
0	4684	17.429424337866	9062
0	4691	17.453946982111	9057
0	4698	17.480752501351	9052
0	4704	17.491470477258	9050
0	4710	17.503323625617	9045
0	4715	17.512266423669	9038
0	4726	17.58167932528	8979
0	4734	17.616961073124	8949
0	4739	17.625985849094	8941
0	4745	17.677782372004	8897
0	4750	17.687916836282	8888
0	4753	17.690581867322	8886
0	4762	17.715699216527	8865
0	4765	17.723595437621	8858
0	4772	17.732918299822	8850
0	4777	17.741488451906	8843
0	4787	17.796871341563	8796
0	4793	17.830615707338	8767
0	4796	17.83714890198	8761
0	4809	17.921223493823	8690
0	4814	17.930841058309	8682
0	4819	18	8623
0	4824	18.024783176152	8602
0	4825	18.032920818561	8595
0	4833	18.071254666658	8562
0	4841	18.116728809992	8523
0	4845	18.124941880507	8516
0	4850	18.131497898673	8511
0	4861	18.222939332724	8433
0	4864	18.231240056073	8426
0	4869	18.23860019462	8420
0	4872	18.239547675347	8419
0	4877	18.245138857465	8414
0	4889	18.255075762945	8408
0	4894	18.315375128389	8433
0	4901	18.359799412053	8452
0	4904	18.36808147547	8455
0	4909	18.376360600248	8459
0	4916	18.397391145553	8468
0	4922	18.407121528348	8472
0	4925	18.415384040152	8475
0	4932	18.458036717418	8493
0	4937	18.48427597904	8504
0	4940	18.492507399548	8507
0	4947	18.529386654856	8523
0	4952	18.549332633339	8531
0	4955	18.557538001994	8534
0	4960	18.565740486175	8538
0	4965	18.573939127543	8541
0	4970	18.582134889163	8544
0	4975	18.590327773058	8548
0	4980	18.598516823128	8551
0	4987	18.62229998391	8561
0	4992	18.645095892043	8571
0	4995	18.653262967063	8574
0	5002	18.682274152471	8586
0	5005	18.690426959366	8590
0	5012	18.700066357143	8594
0	5017	18.711997355481	8598
0	5020	18.72013878372	8602
0	5025	18.728276426129	8605
0	5032	18.769709875543	8623
0	5037	18.806260400899	8638
0	5042	18.814933698006	8641
0	5045	18.823034612252	8645
0	5052	18.847181131827	8655
0	5057	18.861139882804	8661
0	5062	18.877349745748	8667
0	5067	18.934498252704	8691
0	5070	18.942552561759	8694
0	5077	18.959101415552	8701
0	5082	18.975005859578	8708
0	5087	19.015397549642	8725
0	5092	19.030062056416	8731
0	5097	19.086400291015	8754
0	5102	19.09497852773	8758
0	5107	19.122765697869	8769
0	5110	19.13074836408	8773
0	5117	19.147315406678	8780
0	5120	19.155288071826	8783
0	5127	19.219357139207	8810
0	5130	19.227302655666	8813
0	5137	19.325887589923	8854
0	5142	19.350501966944	8864
0	5147	19.362525059872	8869
0	5152	19.387218657393	8879
0	5155	19.395102428088	8883
0	5163	19.407610819766	8920
0	5166	19.415458353398	8967
0	5173	19.43682865095	9096
0	5176	19.444524341363	9142
0	5181	19.452181309204	9188
0	5188	19.462809176513	9252
0	5193	19.486628805581	9396
0	5196	19.494078784295	9441
0	5201	19.501493253101	9485
0	5208	19.517483274089	9581
0	5211	19.524789400798	9625
0	5216	19.532062128071	9669
0	5224	19.593749022664	9667
0	5229	19.638898558479	9582
0	5232	19.646203922704	9568
0	5239	19.709114862512	9450
0	5242	19.716522269919	9436
0	5249	19.725336830263	9419
0	5254	19.803155032071	9273
0	5257	19.810703829655	9259
0	5262	19.818264041341	9245
0	5269	19.830737499221	9221
0	5272	19.838328866752	9207
0	5279	19.882138761428	9125
0	5282	19.889809994305	9110
0	5287	19.897493858191	9096
0	5294	19.91478173664	9063
0	5299	19.930844472078	9033
0	5303	20	8903
0	5349	20.4	8367
0	5350	20.40836620055	8362
0	5353	20.416737403611	8357
0	5356	20.42511361517	8353
0	5359	20.433493837844	8348
0	5362	20.441879079818	8343
0	5365	20.450269347108	8338
0	5368	20.458664645741	8334
0	5373	20.467063973795	8329
0	5376	20.475468344068	8324
0	5379	20.483877762617	8320
0	5382	20.492291224155	8315
0	5385	20.500709744901	8310
0	5390	20.509133330942	8305
0	5397	20.517561988377	8301
0	5400	20.525994707327	8296
0	5403	20.534432508677	8291
0	5406	20.542875398558	8286
0	5409	20.55132338311	8282
0	5414	20.559775447829	8277
0	5419	20.568232618301	8272
0	5424	20.576694900699	8267
0	5429	20.585162301207	8263
0	5432	20.593633800662	8258
0	5435	20.602110429386	8253
0	5438	20.610592193593	8248
0	5441	20.61907909951	8244
0	5446	20.627570123285	8239
0	5451	20.636066300005	8234
0	5456	20.644567635929	8229
0	5461	20.653074137326	8224
0	5464	20.661585810478	8220
0	5469	20.670101625563	8215
0	5472	20.678622623737	8210
0	5475	20.687148811313	8205
0	5480	20.695680194616	8201
0	5485	20.704215739062	8196
0	5492	20.725880082408	8184
0	5497	20.740984318763	8175
0	5502	20.760461890593	8164
0	5507	20.818364242933	8132
0	5512	20.843158204545	8118
0	5517	20.887831001567	8093
0	5520	20.896480451709	8088
0	5527	20.915026488966	8077
0	5530	20.923693073094	8072
0	5537	20.943767385767	8061
0	5543	20.966322594438	8064
0	5548	20.982220051159	8082
0	5553	21.024498187452	8131
0	5556	21.033107214632	8140
0	5563	21.046557181711	8156
0	5566	21.055139820259	8166
0	5571	21.063711948596	8176
0	5578	21.095213040528	8212
0	5581	21.103737151585	8221
0	5588	21.115987346798	8236
0	5593	21.140768076946	8264
0	5598	21.149238551293	8274
0	5601	21.15769878818	8283
0	5606	21.166149832488	8293
0	5613	21.17459068622	8303
0	5616	21.183021373923	8312
0	5621	21.191442933115	8322
0	5628	21.201659344694	8334
0	5633	21.252708874565	8392
0	5638	21.261670633933	8403
0	5641	21.270000992138	8412
0	5646	21.278322437692	8422
0	5653	21.287932939104	8433
0	5658	21.296233662453	8442
0	5663	21.304525536417	8452
0	5668	21.312807599834	8461
0	5671	21.321080853587	8471
0	5678	21.358561888361	8514
0	5683	21.378031339234	8536
0	5688	21.386231901558	8546
0	5691	21.394422868092	8555
0	5698	21.45413438401	8623
0	5701	21.462252208433	8633
0	5708	21.482323904076	8656
0	5713	21.490410780231	8665
0	5716	21.498489256861	8674
0	5721	21.506559351396	8684
0	5726	21.51462015287	8693
0	5733	21.534701772071	8716
0	5738	21.55019210783	8734
0	5743	21.57248432789	8759
0	5748	21.598242132672	8789
0	5753	21.657706299462	8857
0	5758	21.66755512699	8868
0	5763	21.675448676832	8877
0	5766	21.683334223751	8886
0	5773	21.693597851105	8898
0	5778	21.70573209929	8912
0	5783	21.724077535228	8933
0	5788	21.795647569745	9015
0	5793	21.813418143992	9036
0	5799	21.849311606272	9078
0	5804	21.915124582877	9166
0	5809	21.964377468265	9232
0	5812	21.971959790622	9242
0	5819	21.98672715135	9262
0	5823	22	9279
0	5859	22.4	9475
0	5860	22.407387862797	9478
0	5867	22.414773387169	9481
0	5870	22.422156574596	9484
0	5877	22.429537426557	9487
0	5880	22.436915944529	9490
0	5883	22.444292129987	9492
0	5886	22.451666761255	9495
0	5889	22.459039062466	9498
0	5894	22.466409035092	9501
0	5897	22.473776680603	9504
0	5902	22.481142000468	9506
0	5905	22.488505770718	9509
0	5910	22.495867217768	9512
0	5913	22.503226343083	9515
0	5918	22.510583148128	9518
0	5921	22.517937634365	9521
0	5924	22.525289803255	9523
0	5927	22.532640428058	9526
0	5930	22.539988737947	9529
0	5933	22.547334734379	9532
0	5938	22.55467841881	9535
0	5941	22.562019792696	9537
0	5944	22.569359627025	9540
0	5947	22.57669715323	9543
0	5950	22.584032372763	9546
0	5957	22.596601693398	9551
0	5962	22.639024782535	9567
0	5967	22.65831477777	9574
0	5972	22.666273745663	9577
0	5975	22.673582923903	9580
0	5980	22.680889813256	9583
0	5987	22.758332450394	9613
0	5992	22.774066112703	9619
0	5997	22.81514716238	9634
0	6002	22.83458814175	9642
0	6007	22.848560213089	9647
0	6012	22.858100168108	9651
0	6017	22.909210522441	9670
0	6022	22.924833898241	9676
0	6027	22.940424598818	9682
0	6030	22.947654509993	9685
0	6037	22.994360824313	9703
0	6042	23.017193134783	9712
0	6047	23.052620201169	9725
0	6050	23.059818144614	9728
0	6057	23.128409226412	9754
0	6060	23.135585769369	9757
0	6067	23.179748120322	9774
0	6074	23.186909978313	9777
0	6079	23.194069638741	9779
0	6084	23.201227834876	9782
0	6089	23.208383835694	9785
0	6094	23.215537642541	9788
0	6097	23.222689256762	9790
0	6100	23.22983940998	9793
0	6107	23.272962676467	9810
0	6112	23.289509194939	9816
0	6117	23.296643519992	9819
0	6123	23.344008241052	9809
0	6126	23.351144544447	9805
0	6133	23.364861549113	9796
0	6138	23.408346207256	9768
0	6143	23.426569123417	9756
0	6148	23.438395179128	9748
0	6151	23.445576139325	9744
0	6158	23.491524802764	9714
0	6163	23.508917109981	9703
0	6168	23.516131373611	9698
0	6171	23.5233493567	9693
0	6178	23.537205144658	9684
0	6183	23.545383495243	9679
0	6188	23.556989287003	9672
0	6193	23.576634050691	9659
0	6196	23.583881177723	9654
0	6201	23.591132058187	9650
0	6208	23.611037084767	9637
0	6213	23.65941811265	9606
0	6216	23.666705224872	9601
0	6223	23.707258114689	9575
0	6226	23.71456881965	9570
0	6233	23.721883344206	9565
0	6236	23.72920169235	9561
0	6241	23.736523102244	9556
0	6246	23.74384834293	9551
0	6251	23.751177418419	9546
0	6258	23.797068056386	9517
0	6261	23.804423315396	9512
0	6268	23.828076309801	9497
0	6273	23.839486429563	9489
0	6278	23.885154310251	9460
0	6281	23.892553887418	9455
0	6288	23.911638747446	9443
0	6293	23.936758659421	9427
0	6298	23.951814052462	9417
0	6303	23.96661909629	9407
0	6306	23.974060363431	9403
0	6313	23.981609923019	9398
0	6317	24	9386
0	6352	24.4	9128
0	6353	24.407668711656	9123
0	6356	24.415341626267	9118
0	6359	24.423018748443	9113
0	6362	24.430700082801	9108
0	6365	24.438385633965	9103
0	6370	24.446075406567	9098
0	6373	24.453769405248	9093
0	6376	24.461467634655	9088
0	6381	24.469170099444	9083
0	6386	24.476876804277	9078
0	6391	24.484587753825	9073
0	6394	24.492302952767	9068
0	6399	24.500022405789	9063
0	6404	24.507746117584	9058
0	6407	24.515474092854	9053
0	6412	24.523206336309	9048
0	6417	24.530942852666	9043
0	6420	24.53868364665	9038
0	6423	24.546428722994	9033
0	6426	24.554178086439	9028
0	6429	24.561931741734	9023
0	6432	24.569689693635	9018
0	6437	24.577451946906	9013
0	6440	24.58521850632	9008
0	6445	24.592989376657	9003
0	6450	24.600764562706	8998
0	6455	24.608544069263	8993
0	6458	24.616327901132	8988
0	6465	24.658708099506	8961
0	6470	24.670903342963	8953
0	6475	24.688837059695	8941
0	6480	24.697071071252	8936
0	6485	24.708376176878	8929
0	6490	24.778839203703	8883
0	6495	24.796807251032	8872
0	6498	24.804697242015	8866
0	6505	24.812592572491	8861
0	6508	24.820492358068	8856
0	6515	24.831864468217	8849
0	6520	24.840277821665	8844
0	6526	24.861406641549	8835
0	6531	24.879288759312	8840
0	6536	24.913776597021	8849
0	6541	24.935304406209	8855
0	6546	24.945613357209	8858
0	6551	24.955738636551	8860
0	6554	24.963639313752	8862
0	6561	25.101173781562	8899
0	6567	25.184682653647	8917
0	6572	25.193356643055	8918
0	6577	25.205245963389	8919
0	6582	25.230806005972	8922
0	6587	25.286301098404	8927
0	6592	25.306600277571	8930
0	6597	25.328897614652	8932
0	6602	25.362436309312	8935
0	6605	25.370270668573	8936
0	6612	25.443423201338	8944
0	6617	25.460028414273	8946
0	6622	25.504136430349	8950
0	6627	25.567036381403	8957
0	6632	25.595962532846	8960
0	6635	25.603775032846	8961
0	6642	25.622334725958	8963
0	6645	25.630144611041	8964
0	6650	25.637953624874	8964
0	6657	25.645762638707	8965
0	6660	25.653570781484	8966
0	6667	25.670759314752	8968
0	6674	25.678564845528	8969
0	6679	25.686369506025	8970
0	6684	25.694173296437	8970
0	6689	25.701977086849	8971
0	6692	25.709780007371	8972
0	6697	25.717582058196	8973
0	6700	25.725383239518	8974
0	6707	25.754079105728	8977
0	6712	25.783742573889	8980
0	6715	25.791537674112	8981
0	6722	25.851454892693	8987
0	6727	25.862812646555	8988
0	6730	25.870600808549	8989
0	6737	25.878388104132	8990
0	6740	25.886174533498	8991
0	6745	25.893960096839	8991
0	6752	25.910766172788	8993
0	6757	25.965890434338	8999
0	6762	25.993251514766	9002
0	6763	26	9003
0	6795	26.401027564533	9045
0	6798	26.408766646899	9046
0	6801	26.41650487374	9047
0	6806	26.424242245244	9047
0	6809	26.431979616748	9048
0	6812	26.439716133105	9049
0	6815	26.447451794504	9050
0	6818	26.455186601134	9051
0	6821	26.462920553183	9052
0	6826	26.470653650841	9052
0	6829	26.478386748499	9053
0	6832	26.486118991954	9054
0	6835	26.493850381395	9055
0	6838	26.501580917011	9056
0	6843	26.50931059899	9056
0	6852	26.517040280969	9057
0	6855	26.524769109499	9058
0	6860	26.532497084769	9059
0	6863	26.540224206968	9060
0	6868	26.547950476284	9060
0	6871	26.5556767456	9061
0	6874	26.563402162221	9062
0	6879	26.571126726335	9063
0	6884	26.57885043813	9064
0	6893	26.586573297795	9065
0	6896	26.594295305517	9065
0	6899	26.602017313239	9066
0	6902	26.609738469206	9067
0	6909	26.668670730896	9073
0	6914	26.707933196687	9077
0	6919	26.753312578419	9082
0	6924	26.761020131821	9083
0	6927	26.768726836654	9084
0	6932	26.776432693105	9085
0	6939	26.786382998898	9086
0	6942	26.794087159145	9086
0	6949	26.801914273191	9087
0	6955	26.814129356688	9089
0	6962	26.828330763601	9090
0	6977	26.906533578994	9098
0	6991	26.974916309048	9106
0	6997	26.985939068014	9107
0	7001	26.993625463095	9108
0	7012	27.026961048076	9111
0	7017	27.034644068601	9112
0	7020	27.04232624595	9113
0	7027	27.050007580308	9113
0	7030	27.057688914666	9114
0	7035	27.065369406217	9115
0	7040	27.073049055147	9116
0	7047	27.080727861641	9116
0	7052	27.088406668135	9113
0	7057	27.096088002493	9111
0	7064	27.111464261011	9106
0	7067	27.11564499574	9105
0	7072	27.122562288769	9102
0	7081	27.161426299896	9090
0	7089	27.186445273109	9082
0	7095	27.196650701064	9078
0	7102	27.217038604825	9072
0	7108	27.226644441101	9069
0	7114	27.236833011305	9065
0	7117	27.244555019027	9063
0	7122	27.252278730822	9060
0	7127	27.260005000138	9058
0	7134	27.277039496309	9052
0	7139	27.298710460075	9045
0	7142	27.306449542441	9043
0	7150	27.319798479349	9038
0	7155	27.354363666808	9027
0	7163	27.403429783638	9011
0	7168	27.424622682502	9004
0	7175	27.446904977231	8997
0	7183	27.472822533561	8989
0	7189	27.480656224359	8986
0	7196	27.496053463075	8981
0	7200	27.503771023018	8979
0	7205	27.505997244489	8978
0	7216	27.541830331207	8966
0	7221	27.552215405705	8963
0	7227	27.582120028068	8953
0	7232	27.592516466966	8950
0	7236	27.600337696016	8948
0	7242	27.608160673218	8945
0	7250	27.631892729331	8937
0	7253	27.634363042931	8937
0	7262	27.64899232367	8932
0	7270	27.675723692016	8923
0	7276	27.685928875023	8920
0	7279	27.693776408655	8917
0	7286	27.703391794703	8914
0	7293	27.722035529514	8908
0	7296	27.727543555693	8906
0	7304	27.748112362835	8900
0	7310	27.77002536024	8893
0	7315	27.790170814008	8886
0	7318	27.798048374215	8883
0	7328	27.854725645067	8865
0	7336	27.898741982554	8835
0	7339	27.903847695343	8831
0	7349	27.923844180527	8814
0	7356	27.964217455726	8779
0	7361	28	8749
0	7365	28.008603366161	8741
0	7370	28.015986274112	8735
0	7371	28.016611603205	8735
0	7378	28.02453080889	8728
0	7389	28.079892810044	8681
0	7395	28.090251278945	8672
0	7405	28.153799891374	8618
0	7411	28.168654366368	8605
0	7418	28.200478411635	8578
0	7424	28.209564163176	8570
0	7430	28.306315912157	8488
0	7434	28.31177431747	8483
0	7439	28.319321419198	8477
0	7442	28.320026115183	8476
0	7453	28.357429883439	8444
0	7458	28.372032323844	8432
0	7465	28.401484581095	8407
0	7470	28.438486365492	8375
0	7475	28.463983394543	8353
0	7480	28.473326459072	8345
0	7485	28.49339694683	8328
0	7488	28.501802326273	8321
0	7495	28.5102147767	8314
0	7498	28.518634310017	8307
0	7505	28.527060938162	8300
0	7510	28.535494673102	8292
0	7521	28.543936544786	8285
0	7531	28.552385549011	8285
0	7534	28.560834553236	8311
0	7541	28.56925712573	8336
0	7546	28.57765443859	8362
0	7549	28.586025641651	8388
0	7552	28.594370896777	8413
0	7555	28.602691353213	8438
0	7560	28.610987157906	8464
0	7565	28.619257479267	8489
0	7572	28.627503444634	8514
0	7575	28.635725197042	8539
0	7580	28.643922878269	8564
0	7583	28.652096628853	8589
0	7586	28.660246588103	8614
0	7589	28.668372894116	8639
0	7596	28.687857223067	8699
0	7601	28.717553504548	8789
0	7606	28.760801603403	8921
0	7611	28.77299278702	8959
0	7616	28.818507186681	9098
0	7619	28.826201185362	9121
0	7624	28.833875782446	9145
0	7629	28.841530238433	9168
0	7636	28.859325190368	9222
0	7641	28.870672552761	9257
0	7646	28.88180796899	9291
0	7651	28.896833416463	9337
0	7654	28.904330471191	9360
0	7661	28.912613774174	9385
0	7664	28.920072484883	9408
0	7671	28.944491543204	9483
0	7676	28.955449791958	9516
0	7681	28.983257578503	9601
0	7686	28.993088485678	9631
0	7691	29.045492517216	9791
0	7696	29.052641940155	9813
0	7701	29.059775334632	9835
0	7704	29.066892772354	9857
0	7712	29.103406601655	9854
0	7715	29.110510315883	9848
0	7720	29.117618358125	9843
0	7727	29.156361798639	9812
0	7732	29.198497641157	9779
0	7737	29.220525562723	9761
0	7742	29.24399991728	9743
0	7745	29.251184562666	9737
0	7752	29.335681556202	9670
0	7757	29.385724715853	9631
0	7762	29.414207336166	9608
0	7767	29.431542157579	9595
0	7772	29.440610425946	9587
0	7777	29.452782813027	9578
0	7782	29.466688328647	9567
0	7787	29.487252435013	9551
0	7792	29.496697009986	9543
0	7795	29.504032229519	9537
0	7802	29.511638108877	9531
0	7807	29.527656282534	9519
0	7810	29.535009996159	9513
0	7815	29.542368347888	9507
0	7822	29.550234288954	9501
0	7825	29.557601934465	9495
0	7832	29.577607793386	9479
0	7837	29.59204096834	9468
0	7840	29.599434293224	9462
0	7845	29.606832306329	9456
0	7852	29.615451602717	9449
0	7857	29.653642703087	9419
0	7860	29.661074489901	9413
0	7865	29.668511013857	9407
0	7872	29.675952280998	9401
0	7877	29.683398297379	9395
0	7880	29.690849069066	9390
0	7885	29.69830380815	9384
0	7892	29.764193166898	9332
0	7897	29.791667552192	9310
0	7900	29.799186349184	9304
0	7907	29.810525280726	9295
0	7910	29.818056211334	9289
0	7917	29.831762675677	9278
0	7922	29.850742402613	9263
0	7927	29.858299349606	9257
0	7930	29.865861194696	9251
0	7937	29.879359142838	9241
0	7942	29.922083021364	9207
0	7947	29.997356637235	9147
0	7948	30	9145
0	7984	30.405009419568	8825
0	7985	30.412941430899	8819
0	7988	30.420878838768	8812
0	7991	30.428822551886	8806
0	7994	30.436771677482	8800
0	8001	30.444726222937	8794
0	8006	30.452686195646	8787
0	8009	30.460652509519	8781
0	8018	30.468624266722	8775
0	8023	30.476601474699	8768
0	8026	30.484585051341	8762
0	8029	30.492574094938	8756
0	8032	30.500568612983	8749
0	8035	30.508569527373	8743
0	8038	30.516575932497	8737
0	8041	30.524587835896	8730
0	8044	30.532606163502	8724
0	8047	30.540630005776	8718
0	8052	30.548659370309	8711
0	8057	30.556695187092	8705
0	8060	30.564736542635	8699
0	8065	30.572783444578	8692
0	8068	30.580836826999	8686
0	8071	30.588895772428	8680
0	8074	30.596960288557	8673
0	8077	30.605031313577	8667
0	8082	30.613107926015	8660
0	8089	30.632056612171	8645
0	8094	30.644324973493	8636
0	8099	30.653390662909	8629
0	8104	30.665151539143	8619
0	8109	30.687186777489	8602
0	8114	30.695379320691	8595
0	8119	30.712344656888	8582
0	8124	30.754863268287	8548
0	8129	30.784668250021	8525
0	8138	30.842686430845	8479
0	8149	30.888758568378	8442
0	8167	30.985052528373	8615
0	8173	30.995413109515	8677
0	8179	31.004868980409	8733
0	8188	31.050010723242	9002
0	8198	31.1177255413	9405
0	8201	31.12050126374	9422
0	8210	31.150464247736	9560
0	8216	31.17359823353	9572
0	8222	31.196119289484	9584
0	8225	31.203423129217	9588
0	8230	31.210723921874	9592
0	8237	31.222473661647	9599
0	8241	31.229766087941	9600
0	8249	31.257011442332	9599
0	8252	31.264303868626	9599
0	8259	31.288097506802	9597
0	8265	31.339313385097	9595
0	8270	31.364875110975	9594
0	8273	31.372171337783	9593
0	8280	31.38503013966	9593
0	8286	31.397099715509	9592
0	8289	31.403480413883	9592
0	8298	31.415036417897	9591
0	8301	31.422334926916	9591
0	8308	31.449755956122	9590
0	8314	31.465090463765	9589
0	8319	31.502278595213	9587
0	8324	31.51379705467	9586
0	8327	31.521099370547	9586
0	8338	31.590561398345	9583
0	8343	31.601695451627	9582
0	8347	31.609000815852	9582
0	8358	31.645864218006	9580
0	8361	31.653171107359	9580
0	8370	31.681588101403	9578
0	8376	31.707544832786	9577
0	8379	31.714854011026	9577
0	8389	31.783825566869	9573
0	8392	31.791137799189	9573
0	8402	31.817700114252	9572
0	8406	31.825013110491	9571
0	8414	31.832326870809	9571
0	8419	31.839640631127	9571
0	8424	31.846954391445	9570
0	8427	31.854268916001	9570
0	8434	31.857055226195	9570
0	8435	31.861583440557	9570
0	8446	31.89875651326	9568
0	8452	31.915553183288	9567
0	8458	31.926865641708	9566
0	8462	31.934183224815	9566
0	8467	31.941500807922	9566
0	8474	31.957359844986	9565
0	8479	32	9563
0	8482	32.012120310891	9562
0	8485	32.016306180077	9562
0	8493	32.044212324695	9561
0	8502	32.118709812177	9557
0	8508	32.137592637218	9556
0	8514	32.191523334296	9554
0	8517	32.198450031509	9553
0	8522	32.20152187686	9553
0	8535	32.255141778655	9550
0	8538	32.261583440557	9550
0	8548	32.283095110889	9549
0	8551	32.290425721424	9549
0	8556	32.297756331959	9548
0	8564	32.307152945387	9548
0	8571	32.314484323686	9548
0	8574	32.321815701985	9547
0	8577	32.322870001517	9547
0	8580	32.329147848209	9547
0	8594	32.381493612853	9544
0	8599	32.391988821734	9544
0	8605	32.415616929706	9543
0	8610	32.425094161286	9542
0	8615	32.449519764824	9541
0	8620	32.482667655237	9539
0	8625	32.500797680781	9538
0	8630	32.525488758177	9537
0	8635	32.540899504592	9537
0	8640	32.60262744737	9534
0	8645	32.614788079885	9533
0	8650	32.623463403675	9533
0	8655	32.641798881109	9532
0	8660	32.687365075965	9529
0	8665	32.708596142291	9528
0	8670	32.737986808608	9527
0	8675	32.747324252157	9526
0	8680	32.756169675937	9526
0	8685	32.778236181991	9525
0	8690	32.797675709853	9524
0	8695	32.809884380714	9523
0	8698	32.817235005517	9523
0	8703	32.82458563032	9523
0	8710	32.859965076691	9521
0	8713	32.867317245581	9521
0	8722	32.874669414471	9520
0	8727	32.882022355647	9520
0	8732	32.889375296823	9520
0	8735	32.896728237999	9519
0	8738	32.904081951624	9519
0	8743	32.911435665249	9519
0	8748	32.918789378874	9518
0	8753	32.926143865111	9518
0	8760	32.951681330563	9517
0	8765	32.977590463842	9515
0	8770	32.99255974854	9515
0	8775	33.015227513746	9513
0	8780	33.028603487429	9513
0	8787	33.035961839158	9512
0	8790	33.043320964473	9512
0	8799	33.050680089788	9512
0	8804	33.058039215103	9511
0	8809	33.065399114167	9511
0	8814	33.072759013231	9511
0	8817	33.080118912295	9510
0	8820	33.087479585271	9510
0	8823	33.094840258247	9510
0	8830	33.122402926945	9508
0	8835	33.129765148232	9508
0	8838	33.137127369519	9508
0	8845	33.147539841664	9507
0	8850	33.186626017098	9505
0	8855	33.211687578978	9504
0	8860	33.244167787854	9502
0	8865	33.251534657987	9502
0	8868	33.25890152812	9502
0	8873	33.266268398253	9501
0	8880	33.278044232837	9501
0	8885	33.304028219486	9499
0	8888	33.311397416244	9499
0	8895	33.32825885871	9498
0	8900	33.354289700879	9497
0	8905	33.392835790824	9495
0	8910	33.413128325909	9494
0	8915	33.429304128435	9493
0	8920	33.462723859939	9492
0	8923	33.470098491207	9491
0	8928	33.477473899489	9491
0	8933	33.484849307771	9491
0	8940	33.52675108529	9489
0	8945	33.534128048089	9488
0	8948	33.541505788393	9488
0	8953	33.548883528697	9487
0	8958	33.556262046669	9487
0	8965	33.579062618576	9486
0	8970	33.604171632006	9485
0	8973	33.611551705807	9484
0	8978	33.618932557768	9484
0	8985	33.627858608799	9484
0	8988	33.63523946076	9483
0	8995	33.666492724377	9482
0	8998	33.673875133152	9481
0	9005	33.690849754921	9481
0	9010	33.724852233506	9479
0	9015	33.740641765403	9478
0	9020	33.753458286833	9478
0	9025	33.771232367385	9477
0	9030	33.814021917845	9475
0	9035	33.859381725662	9472
0	9040	33.885813527786	9471
0	9045	33.902930512215	9470
0	9050	33.913473888009	9470
0	9055	33.924431261889	9469
0	9060	33.933783743434	9469
0	9065	33.958060954695	9468
0	9070	33.972559423421	9467
0	9075	33.981398087198	9466
0	9079	34	9466
0	9110	34.4	9446
0	9115	34.407410544146	9446
0	9120	34.414821088292	9445
0	9125	34.422232417037	9445
0	9128	34.429643745782	9445
0	9131	34.437055074527	9444
0	9136	34.444467188038	9444
0	9139	34.451879301549	9444
0	9142	34.45929141506	9443
0	9145	34.466704313503	9443
0	9148	34.474117211946	9442
0	9151	34.481530895488	9442
0	9154	34.48894457903	9442
0	9159	34.496358262572	9441
0	9164	34.503772731378	9441
0	9167	34.511187200184	9441
0	9170	34.51860166899	9440
0	9173	34.526016923227	9440
0	9176	34.533432177464	9440
0	9179	34.540847431701	9439
0	9182	34.548263471536	9439
0	9187	34.555679511371	9439
0	9190	34.563095551206	9438
0	9195	34.570512376805	9438
0	9200	34.577929202404	9437
0	9207	34.59999838779	9436
0	9212	34.608297519444	9436
0	9215	34.61571591707	9436
0	9222	34.628880673803	9435
0	9227	34.641842080997	9434
0	9232	34.707885760046	9431
0	9238	34.725503912392	9434
0	9241	34.732923882712	9440
0	9246	34.740339136949	9445
0	9253	34.747750465694	9450
0	9256	34.755157873101	9455
0	9263	34.786339517477	9478
0	9268	34.806653770938	9492
0	9273	34.820195005185	9502
0	9278	34.84879939215	9523
0	9283	34.894644384667	9556
0	9288	34.903542354047	9562
0	9291	34.910862998264	9567
0	9298	34.932328010949	9583
0	9303	34.947542342986	9594
0	9308	34.965246679879	9606
0	9313	34.973145185721	9612
0	9318	35.006317053459	9636
0	9323	35.013928871445	9641
0	9326	35.021189529053	9646
0	9333	35.030337299989	9653
0	9338	35.062168942251	9676
0	9343	35.073519593928	9684
0	9346	35.080748011937	9689
0	9353	35.088558640058	9695
0	9356	35.095778856664	9700
0	9363	35.144937815068	9735
0	9368	35.221429208197	9790
0	9373	35.247745492833	9809
0	9376	35.254881796228	9814
0	9383	35.274693392424	9828
0	9386	35.281815899547	9833
0	9391	35.288934784933	9839
0	9398	35.300464965286	9847
0	9403	35.317706197832	9859
0	9408	35.327138112241	9866
0	9413	35.357346208615	9888
0	9416	35.364425496641	9893
0	9423	35.394642863136	9914
0	9428	35.417718138403	9931
0	9434	35.426166207391	9934
0	9439	35.44829326869	9913
0	9444	35.477762824223	9885
0	9449	35.544104171777	9823
0	9454	35.570732258786	9798
0	9459	35.612905608424	9758
0	9462	35.620079209572	9751
0	9469	35.735281845382	9643
0	9474	35.775472017716	9605
0	9480	35.784488213929	9488
0	9485	35.796131834992	9319
0	9488	35.803643370564	9211
0	9493	35.811242979727	9100
0	9498	35.818935287419	8989
0	9505	35.830151415687	8826
0	9510	35.843891328405	8627
0	9516	35.860670794064	8604
0	9519	35.868806544878	8593
0	9526	35.883863679355	8574
0	9529	35.892027896756	8563
0	9534	35.900202601883	8552
0	9541	35.9114884432	8538
0	9546	35.951804792487	8485
0	9550	36	8423
0	9592	36.4	8649
0	9593	36.408093421205	8666
0	9598	36.416170965631	8684
0	9603	36.424231767105	8701
0	9606	36.432276819398	8718
0	9609	36.440306183931	8736
0	9614	36.448319004444	8753
0	9619	36.456316262527	8770
0	9622	36.464298018513	8787
0	9625	36.472264332386	8804
0	9632	36.480215263781	8821
0	9637	36.488150871989	8838
0	9640	36.496071215958	8855
0	9643	36.503976354298	8872
0	9646	36.511866345281	8889
0	9649	36.519741246845	8906
0	9654	36.527601116596	8923
0	9657	36.535446011811	8940
0	9660	36.54327598944	8956
0	9663	36.551091978721	8973
0	9670	36.558893160043	8990
0	9673	36.566679589409	9007
0	9678	36.574451322505	9023
0	9681	36.582209274406	9040
0	9684	36.589952637238	9057
0	9687	36.597681465768	9073
0	9690	36.60539666471	9090
0	9693	36.613097434787	9106
0	9696	36.62078467397	9123
0	9699	36.628457588581	9139
0	9702	36.636117069925	9156
0	9709	36.648003089893	9181
0	9714	36.655627531675	9198
0	9719	36.663237881751	9214
0	9722	36.670835016546	9230
0	9729	36.70145445706	9296
0	9734	36.72760028476	9352
0	9740	36.744317836111	9378
0	9745	36.761582806996	9329
0	9750	36.770757513823	9303
0	9753	36.7782819683	9282
0	9760	36.786455626677	9259
0	9766	36.876201594902	9109
0	9771	36.904525464512	9308
0	9776	36.921593278236	9429
0	9781	36.929147552347	9482
0	9787	36.987137525421	9749
0	9792	37.008556626348	9747
0	9797	37.024965977706	9745
0	9802	37.039534257214	9744
0	9807	37.056167116268	9742
0	9812	37.069437549967	9740
0	9815	37.076624408283	9740
0	9822	37.116773569746	9735
0	9825	37.123964119309	9734
0	9832	37.135149299022	9733
0	9837	37.154210367546	9731
0	9843	37.189283647893	9739
0	9848	37.215591697744	9750
0	9853	37.241453136502	9761
0	9858	37.248624532875	9765
0	9861	37.255792991656	9768
0	9869	37.314305920077	9787
0	9874	37.343971724043	9781
0	9879	37.371008661181	9776
0	9882	37.37816905398	9774
0	9887	37.385330911971	9773
0	9894	37.428026033854	9765
0	9899	37.448706150309	9761
0	9902	37.455877546682	9759
0	9907	37.463050412754	9758
0	9912	37.470224013902	9757
0	9919	37.491988916526	9752
0	9922	37.499166931292	9751
0	9929	37.511660102994	9749
0	9934	37.524569698415	9746
0	9939	37.552835094721	9741
0	9944	37.587133556803	9734
0	9947	37.594324845071	9733
0	9952	37.601516872195	9731
0	9959	37.653860044117	9721
0	9962	37.661060949374	9720
0	9969	37.756373087285	9702
0	9974	37.764390611558	9700
0	9977	37.771607106403	9699
0	9984	37.801613181226	9693
0	9989	37.815999116671	9690
0	9992	37.823223058879	9689
0	9999	37.858849635399	9682
0	10002	37.866079546574	9680
0	10007	37.873310951533	9679
0	10014	37.880543103615	9678
0	10017	37.887776002974	9676
0	10024	37.904002288186	9673
0	10029	37.930268015293	9668
0	10034	37.940326263627	9666
0	10039	38	9634
0	10072	38.4	8979
0	10073	38.407795968371	8966
0	10078	38.415603240287	8953
0	10083	38.423421848575	8940
0	10086	38.431251826204	8927
0	10089	38.439093206287	8915
0	10094	38.446945141228	8902
0	10099	38.454808542711	8889
0	10104	38.462683444275	8876
0	10109	38.470569879606	8863
0	10114	38.47846788254	8850
0	10117	38.48637748706	8837
0	10122	38.4942987273	8824
0	10125	38.502231637545	8811
0	10130	38.510176252231	8798
0	10133	38.518132605948	8785
0	10138	38.526100733438	8772
0	10141	38.534080669599	8759
0	10144	38.542072449483	8746
0	10147	38.550076108298	8733
0	10152	38.558091681411	8720
0	10155	38.566119204347	8707
0	10158	38.574158712788	8693
0	10161	38.582211168787	8680
0	10166	38.590275684916	8667
0	10169	38.598352297354	8654
0	10172	38.606441042443	8640
0	10177	38.614542894295	8627
0	10180	38.622656954803	8614
0	10187	38.652445381075	8565
0	10192	38.666133759906	8543
0	10197	38.674327602818	8529
0	10200	38.682534895584	8516
0	10207	38.693122438227	8498
0	10212	38.723839735543	8448
0	10215	38.732125720391	8435
0	10220	38.740424475578	8421
0	10227	38.752019062613	8402
0	10232	38.790517779366	8339
0	10235	38.798912071248	8325
0	10240	38.807320479656	8311
0	10245	38.81574305215	8298
0	10252	38.875905985013	8199
0	10257	38.88908415595	8177
0	10263	38.902598202265	8185
0	10268	38.92877210546	8232
0	10273	38.937275506821	8247
0	10278	38.945763441828	8262
0	10281	38.95423596664	8277
0	10288	38.980549180077	8324
0	10293	39.027123697821	8407
0	10298	39.053670157271	8455
0	10301	39.061949282049	8469
0	10306	39.070214720708	8484
0	10313	39.135867120381	8601
0	10318	39.19185757575	8701
0	10323	39.203601683176	8722
0	10328	39.217718723078	8748
0	10333	39.226865881307	8764
0	10338	39.398086246493	9070
0	10343	39.429277272127	9125
0	10346	39.436948505004	9139
0	10353	39.446260905064	9155
0	10358	39.461571314541	9183
0	10361	39.469194095767	9196
0	10366	39.476806100987	9210
0	10373	39.505302829188	9261
0	10376	39.512861408175	9274
0	10383	39.543812960537	9330
0	10388	39.561696960341	9362
0	10393	39.576168795703	9387
0	10398	39.627117820721	9478
0	10401	39.634503345093	9492
0	10408	39.660034625652	9537
0	10411	39.667374459981	9550
0	10418	39.688709383619	9588
0	10423	39.713604625195	9633
0	10429	39.729986716063	9647
0	10434	39.747860553898	9536
0	10439	39.798958169693	9221
0	10444	39.823040592895	9072
0	10449	39.836600303329	8989
0	10454	39.845555268824	8933
0	10459	39.886958115587	8678
0	10464	39.906809497944	8555
0	10469	39.942722636721	8334
0	10474	39.954135091881	8263
0	10477	39.962606591336	8211
0	10482	39.971131740526	8158
0	10490	39.999129158486	8105
0	10491	40	8107
0	10549	40.407765802533	8329
0	10550	40.416170172806	8328
0	10553	40.424575552249	8327
0	10556	40.432981941105	8326
0	10559	40.441389339616	8324
0	10562	40.449798758165	8323
0	10567	40.458209187097	8322
0	10570	40.466620626655	8321
0	10573	40.475033077082	8319
0	10578	40.483447549975	8318
0	10581	40.491863034466	8317
0	10588	40.500279530799	8315
0	10591	40.508698051545	8314
0	10596	40.517117584862	8313
0	10599	40.525538130995	8312
0	10602	40.533959690187	8310
0	10605	40.542383276228	8309
0	10608	40.55080787606	8308
0	10613	40.559233489926	8307
0	10618	40.567660118071	8305
0	10621	40.576088775506	8304
0	10630	40.584518447953	8303
0	10639	40.592949135656	8301
0	10642	40.601381854606	8300
0	10645	40.609815589546	8299
0	10648	40.618250340721	8298
0	10651	40.626686108376	8296
0	10654	40.635123909726	8295
0	10657	40.643562728291	8294
0	10660	40.652002564317	8292
0	10667	40.660444436001	8291
0	10670	40.668887325882	8290
0	10675	40.677331234205	8289
0	10678	40.685776161217	8287
0	10683	40.694223126343	8286
0	10688	40.702671110895	8285
0	10691	40.71112011512	8284
0	10694	40.719570139263	8282
0	10697	40.728022203982	8281
0	10702	40.736475289358	8280
0	10707	40.744929395638	8278
0	10710	40.753385544466	8277
0	10713	40.761842714938	8276
0	10716	40.770300907301	8275
0	10721	40.778760121803	8273
0	10730	40.787221381322	8272
0	10733	40.79568366372	8271
0	10736	40.804146969245	8269
0	10741	40.812612321766	8268
0	10744	40.816170172806	8268
0	10745	40.821078698157	8267
0	10752	40.824575552249	8266
0	10753	40.824636549197	8266
0	10767	40.835666305523	8265
0	10787	40.960214948883	8246
0	10790	40.967660118071	8245
0	10801	40.996460835038	8240
0	10808	41.014226517081	8238
0	10812	41.022723725141	8236
0	10822	41.047476526261	8233
0	10829	41.06094774207	8231
0	10832	41.068887325882	8229
0	10842	41.093586619271	8226
0	10850	41.112964627329	8223
0	10859	41.149592086931	8217
0	10866	41.170004136624	8214
0	10870	41.178526172173	8213
0	10887	41.234540902208	8204
0	10890	41.243073325416	8203
0	10898	41.267543582549	8199
0	10903	41.321038770426	8191
0	10908	41.358761746964	8185
0	10915	41.380981213891	8182
0	10920	41.39446457848	8180
0	10928	41.436260056234	8174
0	10931	41.444823794918	8172
0	10936	41.453389629475	8171
0	10948	41.555175623981	8156
0	10951	41.558111011113	8155
0	10954	41.563758262529	8154
0	10961	41.569327028337	8154
0	10970	41.582079662722	8152
0	10976	41.590666512575	8150
0	10981	41.59925546963	8149
0	10984	41.607845480674	8148
0	10992	41.648421484527	8142
0	10998	41.669104909302	8138
0	11005	41.736110211416	8128
0	11008	41.74472241614	8127
0	11015	41.767311920367	8124
0	11021	41.779276824674	8122
0	11024	41.787895391529	8120
0	11030	41.796516081184	8119
0	11035	41.803022035693	8118
0	11045	41.851379971409	8410
0	11049	41.859703395904	8464
0	11057	41.869510269929	8529
0	11060	41.877717562695	8583
0	11067	41.914614800452	8826
0	11072	41.929537700392	8924
0	11077	41.937381716528	8976
0	11080	41.945180290503	9027
0	11085	41.952934804738	9078
0	11090	41.960645754286	9129
0	11099	41.96851923438	9181
0	11106	41.988227039271	9310
0	11112	41.996121035255	9362
0	11114	42	9388
0	11121	42.022126569844	9533
0	11124	42.029469483932	9582
0	11131	42.036774848157	9630
0	11134	42.044043799351	9678
0	11139	42.05127669871	9725
0	11145	42.057018880744	9755
0	11153	42.072779117004	9747
0	11159	42.086349507974	9741
0	11164	42.124729456467	9722
0	11169	42.133196064588	9718
0	11175	42.146095581342	9712
0	11181	42.154123066846	9708
0	11191	42.223731695253	9675
0	11194	42.230966837372	9671
0	11203	42.238204972001	9668
0	11206	42.245445352638	9664
0	11209	42.252688730121	9661
0	11219	42.280358392315	9647
0	11225	42.293581785997	9641
0	11230	42.304262252811	9636
0	11233	42.311526677884	9632
0	11241	42.332784413734	9622
0	11250	42.367497782724	9605
0	11257	42.379541948605	9600
0	11260	42.386833615272	9596
0	11265	42.3941283214	9592
0	11271	42.401426069523	9589
0	11282	42.449795543205	9566
0	11291	42.481125739309	9551
0	11294	42.488454814798	9547
0	11302	42.508858375261	9537
0	11307	42.521989868111	9531
0	11313	42.538321094732	9523
0	11316	42.540399192804	9522
0	11326	42.564657402052	9510
0	11329	42.572018075028	9507
0	11336	42.580713497316	9503
0	11341	42.603843512639	9491
0	11344	42.611218920921	9488
0	11351	42.618898370117	9484
0	11354	42.626279222078	9481
0	11362	42.635099348457	9476
0	11369	42.649416277403	9469
0	11376	42.685120559755	9452
0	11379	42.687614534121	9451
0	11384	42.692526399789	9449
0	11387	42.695021157759	9447
0	11400	42.736203572832	9428
0	11410	42.803549139076	9395
0	11416	42.824615851347	9385
0	11422	42.863796133757	9366
0	11427	42.884279629337	9356
0	11434	42.888454814798	9354
0	11435	42.891761459179	9353
0	11438	42.895786961022	9351
0	11452	42.936379585508	9289
0	11462	42.993211604625	9138
0	11467	43.00087192417	9117
0	11474	43.008549888413	9097
0	11477	43.011218920921	9090
0	11478	43.016244732867	9076
0	11492	43.053768777536	8977
0	11498	43.07728997208	8914
0	11503	43.085142787875	8893
0	11508	43.092526399789	8874
0	11509	43.093014147371	8872
0	11515	43.099934591132	8854
0	11527	43.127150338686	8782
0	11533	43.20100381311	8585
0	11539	43.217557849545	8541
0	11545	43.237961050772	8487
0	11550	43.264183160045	8417
0	11556	43.278890804893	8378
0	11559	43.287246020935	8356
0	11565	43.295623234913	8333
0	11573	43.304023570926	8311
0	11580	43.333734014235	8232
0	11587	43.347532585671	8196
0	11590	43.356073337257	8242
0	11595	43.36456642146	8288
0	11607	43.424586378532	8611
0	11620	43.548070319991	9176
0	11625	43.587553653797	9155
0	11631	43.609794631524	9143
0	11637	43.629023373642	9132
0	11643	43.672068684294	9109
0	11647	43.679753391726	9104
0	11652	43.687246020935	9100
0	11662	43.707065777221	9090
0	11670	43.758828450548	9061
0	11677	43.807730867382	9035
0	11680	43.815478515417	9030
0	11687	43.82839894584	9023
0	11690	43.832715515682	9021
0	11698	43.840581770057	9017
0	11703	43.871497894235	9000
0	11706	43.879275672013	8996
0	11713	43.946311556817	8959
0	11719	43.974433427158	8944
0	11722	43.982259903008	8939
0	11729	44	8930
0	11732	44.0189745615	8919
0	11737	44.026822974999	8915
0	11742	44.03467490994	8911
0	11745	44.036688726248	8910
0	11753	44.05930403957	8897
0	11758	44.07423292902	8889
0	11761	44.079753391726	8886
0	11771	44.098943338406	8876
0	11779	44.16720160366	8847
0	11786	44.229469657269	8915
0	11794	44.248562910633	8936
0	11797	44.256396393176	8945
0	11804	44.267148939241	8957
0	11809	44.275959854844	8966
0	11813	44.28376712676	8975
0	11819	44.291566569657	8983
0	11826	44.34215447127	9039
0	11832	44.375099191331	9075
0	11835	44.382259903008	9083
0	11840	44.384853525996	9085
0	11850	44.420075796869	9124
0	11855	44.46196114582	9170
0	11860	44.546100678226	9262
0	11865	44.575819471896	9294
0	11870	44.606413220589	9328
0	11876	44.649465276982	9417
0	11881	44.664102617772	9455
0	11886	44.73368650173	9631
0	11889	44.740954698179	9650
0	11896	44.752093898377	9678
0	11901	44.764882758245	9710
0	11906	44.777147768675	9742
0	11911	44.788681947777	9771
0	11916	44.801954901282	9805
0	11919	44.809094115968	9823
0	11927	44.851661636135	9903
0	11932	44.862680275626	9884
0	11935	44.869762428601	9872
0	11940	44.876853190351	9860
0	11947	44.885628504517	9845
0	11950	44.892738712745	9833
0	11957	44.909699550484	9803
0	11962	44.921345057107	9783
0	11967	44.94652297721	9740
0	11970	44.953709835526	9727
0	11975	44.960906298978	9715
0	11982	44.968546868297	9702
0	11987	45.04502137977	9570
0	11990	45.052335904326	9557
0	11995	45.059660378533	9544
0	12002	45.101128689695	9473
0	12005	45.108518112264	9460
0	12012	45.139639754926	9406
0	12015	45.147081813187	9393
0	12022	45.16306446244	9366
0	12027	45.246757468649	9221
0	12032	45.284942478448	9155
0	12037	45.307029683243	9117
0	12042	45.372642086825	9004
0	12045	45.380416409348	8990
0	12052	45.388202838714	8977
0	12055	45.396000543961	8963
0	12062	45.405032967344	8948
0	12065	45.412855944546	8934
0	12073	45.530822218985	8835
0	12078	45.539848650697	8837
0	12083	45.628121752781	8858
0	12088	45.662839148398	8866
0	12093	45.681331806793	8871
0	12096	45.68922268719	8873
0	12101	45.697111788959	8875
0	12106	45.704999112903	8877
0	12113	45.717210502232	8879
0	12118	45.74587291387	8886
0	12121	45.753750474077	8888
0	12128	45.769725305122	8892
0	12131	45.777597549836	8894
0	12136	45.785468024313	8896
0	12143	45.847323669626	8910
0	12146	45.855180010816	8912
0	12151	45.863034588913	8914
0	12158	45.903780043679	8924
0	12163	45.924123829534	8929
0	12168	45.941240055939	8933
0	12171	45.949076169227	8935
0	12176	45.956910528488	8936
0	12182	46	8947
0	12241	46.4	9042
0	12244	46.407741650077	9043
0	12247	46.415482444061	9045
0	12250	46.423221526427	9047
0	12257	46.430958897931	9049
0	12262	46.43869455933	9051
0	12265	46.446428511379	9053
0	12268	46.454160754834	9055
0	12275	46.46189129045	9056
0	12280	46.469620972429	9058
0	12283	46.477348947699	9060
0	12286	46.485075217015	9062
0	12289	46.492799781129	9064
0	12293	46.500522640794	9065
0	12298	46.508244648516	9061
0	12301	46.515970065137	9056
0	12304	46.523699747116	9051
0	12307	46.531433699165	9046
0	12310	46.539171926006	9041
0	12313	46.546914432366	9036
0	12316	46.554661222981	9031
0	12321	46.562412302596	9026
0	12324	46.570167675962	9021
0	12327	46.577927347839	9017
0	12330	46.585690461957	9012
0	12333	46.593457883173	9007
0	12336	46.601229616269	9002
0	12339	46.609005666036	8997
0	12342	46.616786037271	8992
0	12347	46.62457073478	8987
0	12350	46.632359763377	8982
0	12353	46.640153127884	8977
0	12356	46.647950833131	8972
0	12361	46.655752883956	8967
0	12366	46.663559285205	8962
0	12369	46.671370041733	8958
0	12372	46.679184285984	8953
0	12375	46.687002894272	8948
0	12378	46.694825871474	8943
0	12381	46.702653222475	8938
0	12384	46.710484952168	8933
0	12391	46.744238983269	8911
0	12396	46.779305757351	8889
0	12401	46.82297746968	8862
0	12406	46.830876363835	8857
0	12409	46.838779717115	8852
0	12416	46.846687534557	8847
0	12419	46.854599821208	8842
0	12426	46.874434869784	8829
0	12431	46.920128252563	8800
0	12436	46.928082798018	8795
0	12439	46.93604186567	8790
0	12444	46.944005460664	8785
0	12451	46.955261008658	8778
0	12456	46.99990487751	8750
0	12461	47.008669431316	8744
0	12470	47.016674920794	8739
0	12473	47.024684990596	8734
0	12478	47.032699645966	8729
0	12481	47.040718892157	8724
0	12484	47.048742734431	8719
0	12491	47.06053382751	8712
0	12496	47.07197124281	8704
0	12501	47.108925375216	8681
0	12506	47.140983485965	8661
0	12511	47.150010231298	8655
0	12516	47.201407902418	8623
0	12519	47.209525726841	8618
0	12524	47.217648261072	8612
0	12531	47.227793188474	8606
0	12536	47.237626859377	8600
0	12539	47.245766394261	8595
0	12546	47.254252260405	8589
0	12551	47.273443559975	8577
0	12556	47.291185552157	8566
0	12561	47.318089197062	8549
0	12566	47.400610641238	8497
0	12571	47.424956231426	8481
0	12576	47.448858491321	8466
0	12581	47.502646879089	8432
0	12586	47.512518007862	8426
0	12591	47.530929684324	8414
0	12594	47.539249151878	8409
0	12601	47.555140991539	8399
0	12607	47.61301379097	8470
0	12612	47.639724693656	8510
0	12615	47.647950310577	8522
0	12622	47.668514655751	8553
0	12627	47.693992968103	8591
0	12630	47.702141030028	8604
0	12637	47.752451017543	8679
0	12642	47.784367036684	8727
0	12647	47.806219576603	8759
0	12652	47.853179544655	8830
0	12657	47.864179691937	8846
0	12662	47.894408567094	8891
0	12665	47.902281697226	8903
0	12672	47.936706524124	8955
0	12677	47.945867245011	8969
0	12682	47.98363990414	9025
0	12686	48	9050
0	12722	48.4	9292
0	12725	48.407533362032	9288
0	12728	48.415069968406	9284
0	12733	48.422609821917	9280
0	12736	48.430152925365	9276
0	12739	48.437699281553	9273
0	12744	48.445248079137	9269
0	12747	48.452800134375	9265
0	12750	48.460355450079	9261
0	12755	48.467914029066	9257
0	12758	48.475475874156	9253
0	12763	48.483040988173	9249
0	12768	48.490609373944	9246
0	12771	48.498180215389	9242
0	12774	48.505754333545	9238
0	12777	48.51333173125	9234
0	12786	48.520912411345	9230
0	12789	48.528496376675	9226
0	12794	48.536083630089	9222
0	12799	48.543674174439	9219
0	12804	48.551267188866	9215
0	12807	48.55886349923	9211
0	12810	48.566463108393	9207
0	12815	48.574066019222	9203
0	12818	48.581672234587	9199
0	12821	48.589281757361	9195
0	12824	48.596894590422	9191
0	12827	48.604510736652	9187
0	12830	48.612130198936	9184
0	12833	48.619752150156	9180
0	12840	48.630107026521	9174
0	12845	48.638506040746	9170
0	12850	48.682338553727	9148
0	12855	48.700847676852	9138
0	12860	48.740214365656	9118
0	12865	48.759639474935	9108
0	12870	48.780808071103	9098
0	12873	48.788502069784	9094
0	12880	48.796342707356	9090
0	12885	48.80870013973	9083
0	12890	48.82461921511	9075
0	12895	48.847710120016	9063
0	12900	48.881482452484	9046
0	12905	48.911196707837	9031
0	12908	48.918947787452	9027
0	12915	48.934111159107	9019
0	12920	48.966407694997	9003
0	12925	48.976154404414	8998
0	12930	48.983933910971	8994
0	12933	48.991716877393	8990
0	12940	49.011539321982	8980
0	12945	49.05779362889	8956
0	12950	49.090753441611	8939
0	12957	49.098584295174	8935
0	12960	49.106418654435	8931
0	12965	49.114256522535	8927
0	12968	49.122097902618	8923
0	12975	49.144463905281	8912
0	12980	49.158425213583	8905
0	12985	49.166285965969	8901
0	12988	49.174150250881	8897
0	12995	49.206799395666	8880
0	12998	49.214682278549	8876
0	13005	49.255689086695	8855
0	13010	49.285368036036	8840
0	13013	49.293286588072	8836
0	13020	49.303292599133	8831
0	13025	49.363593289239	8800
0	13030	49.4450831142	8759
0	13035	49.459533087573	8751
0	13040	49.540157982718	8710
0	13043	49.548194722098	8706
0	13050	49.638479208431	8660
0	13055	49.653299280807	8652
0	13058	49.661389895694	8648
0	13063	49.669484252771	8644
0	13070	49.721099650635	8618
0	13076	49.805579393003	8579
0	13079	49.813738852147	8580
0	13084	49.821897360306	8580
0	13089	49.830055868465	8581
0	13096	49.841315931493	8582
0	13101	49.869643298035	8584
0	13106	49.877798004466	8584
0	13109	49.885952710897	8585
0	13116	49.918040945014	8587
0	13121	49.934749524963	8589
0	13126	49.942899484213	8589
0	13129	49.951049443463	8590
0	13136	49.969127800188	8591
0	13139	49.977275862113	8592
0	13148	49.985422975707	8592
0	13153	49.993570089301	8593
0	13156	50	8593
0	13212	50.401716254785	8623
0	13213	50.409834079208	8624
0	13216	50.417950962325	8624
0	13219	50.426067845442	8625
0	13222	50.434183787471	8626
0	13227	50.44229878863	8626
0	13230	50.450413789789	8627
0	13237	50.458527850297	8627
0	13240	50.466641910805	8628
0	13243	50.474755030879	8629
0	13246	50.482867210738	8629
0	13249	50.490979390597	8630
0	13252	50.499090630458	8630
0	13256	50.507201870319	8629
0	13259	50.515314050178	8626
0	13262	50.523429051337	8624
0	13267	50.531545934454	8621
0	13272	50.539665642145	8618
0	13279	50.547788176376	8616
0	13282	50.55591259606	8613
0	13285	50.564039845567	8611
0	13288	50.572168982717	8608
0	13293	50.580300952977	8605
0	13296	50.588435758323	8603
0	13299	50.596572454824	8600
0	13302	50.604711989708	8598
0	13305	50.612853417947	8595
0	13308	50.620997687871	8592
0	13311	50.629144801465	8590
0	13316	50.637293811942	8587
0	13319	50.645445669401	8585
0	13324	50.653599425953	8582
0	13327	50.661756032805	8579
0	13332	50.669915491949	8577
0	13337	50.678076853731	8574
0	13340	50.686241071132	8572
0	13343	50.694407193391	8569
0	13346	50.702576174602	8566
0	13349	50.710748016769	8564
0	13352	50.718921767353	8561
0	13359	50.762864756407	8547
0	13366	50.825094772561	8527
0	13375	50.852796789689	8518
0	13382	50.871038579754	8513
0	13387	50.874755030879	8511
0	13388	50.87926129795	8510
0	13401	50.906015753536	8501
0	13408	50.916825621376	8498
0	13419	50.964705037409	8483
0	13427	50.99513190471	8473
0	13436	51.021748347463	8465
0	13443	51.045415223565	8457
0	13447	51.053599425953	8454
0	13460	51.10121822011	8439
0	13464	51.109513041771	8437
0	13469	51.110748016769	8436
0	13472	51.117809829729	8434
0	13484	51.143074008996	8426
0	13491	51.24198976288	8394
0	13496	51.254308864116	8390
0	13502	51.268172663948	8386
0	13509	51.285220669055	8381
0	13518	51.398555380186	8344
0	13526	51.46059799167	8325
0	13532	51.482092239465	8318
0	13542	51.559631451534	8293
0	13548	51.612939423582	8336
0	13554	51.652490262361	8424
0	13560	51.673114145975	8470
0	13566	51.682011691941	8490
0	13569	51.690256686052	8508
0	13577	51.73140603966	8600
0	13580	51.739545574544	8618
0	13587	51.759329319539	8662
0	13592	51.805985845884	8766
0	13598	51.817228111122	8791
0	13603	51.868273128526	8904
0	13606	51.869006400078	8906
0	13614	51.88931447017	8951
0	13620	51.918719134069	9017
0	13623	51.926482248187	9034
0	13630	51.934726988239	9052
0	13633	51.942460085897	9070
0	13641	51.97162693823	9134
0	13644	51.979290612414	9151
0	13650	52	9198
0	13653	52.021336736442	9245
0	13656	52.028908396799	9262
0	13663	52.054023982392	9318
0	13666	52.060799854004	9333
0	13671	52.064530025535	9341
0	13679	52.076156686124	9367
0	13688	52.108425464246	9379
0	13693	52.124504373439	9382
0	13699	52.140423318818	9385
0	13702	52.147668108775	9387
0	13710	52.158418862132	9389
0	13713	52.165874395203	9390
0	13721	52.186058790531	9394
0	13726	52.19351035536	9396
0	13729	52.200960334074	9397
0	13738	52.238172995591	9405
0	13741	52.245615845139	9406
0	13748	52.256962809644	9409
0	13751	52.264402495052	9410
0	13756	52.271841389845	9412
0	13769	52.348042430584	9427
0	13773	52.355467910588	9429
0	13778	52.362891815562	9430
0	13788	52.410884693736	9440
0	13793	52.418912052996	9442
0	13798	52.428251605723	9444
0	13801	52.435663719234	9445
0	13806	52.443075047979	9447
0	13811	52.450484807691	9448
0	13818	52.458672015835	9450
0	13823	52.466394864344	9451
0	13828	52.476417680109	9453
0	13833	52.535094314065	9465
0	13838	52.543352611578	9467
0	13843	52.580659106669	9475
0	13848	52.58978837895	9476
0	13853	52.599438462641	9478
0	13858	52.639705347758	9487
0	13861	52.64708386573	9488
0	13868	52.66393801598	9491
0	13873	52.699498830072	9499
0	13876	52.70686802683	9500
0	13883	52.721465156322	9503
0	13888	52.784936378976	9516
0	13891	52.792292410922	9518
0	13898	52.822939311523	9524
0	13903	52.9337280985	9546
0	13908	52.984509340703	9557
0	13911	52.99183381491	9558
0	13916	52.999157522799	9560
0	13924	53.032494153745	9566
0	13929	53.055818892712	9567
0	13932	53.063135710941	9568
0	13939	53.138028525459	9573
0	13944	53.149459632528	9573
0	13947	53.156771864848	9574
0	13954	53.183917517069	9576
0	13959	53.21138019326	9577
0	13964	53.234013754615	9579
0	13967	53.241321406771	9579
0	13974	53.295137930329	9583
0	13979	53.309405752695	9584
0	13984	53.328817540691	9585
0	13987	53.336120618417	9586
0	13992	53.343422934294	9586
0	13999	53.357637030597	9587
0	14004	53.400782559972	9590
0	14009	53.424051291818	9591
0	14014	53.453371513687	9593
0	14017	53.460668501074	9594
0	14024	53.47912942807	9595
0	14029	53.49506571139	9596
0	14032	53.502360417518	9596
0	14039	53.516781862014	9597
0	14044	53.526872860575	9598
0	14049	53.543771965434	9599
0	14052	53.551064391728	9600
0	14057	53.558356058395	9600
0	14064	53.588340729431	9602
0	14067	53.595630877317	9603
0	14074	53.617445832283	9604
0	14077	53.624734462021	9604
0	14084	53.663705579063	9607
0	14089	53.692237345691	9609
0	14094	53.760206433017	9613
0	14099	53.791679970033	9615
0	14104	53.821490645918	9617
0	14109	53.837475815461	9618
0	14114	53.940588179022	9625
0	14119	53.955787838944	9626
0	14124	53.974866127411	9627
0	14129	53.983826476954	9628
0	14136	53.991096938109	9628
0	14139	53.998367399264	9629
0	14142	54	9629
0	14178	54.40563710536	9655
0	14179	54.412887234827	9656
0	14184	54.420136613452	9656
0	14187	54.427385992077	9657
0	14194	54.434634620015	9657
0	14197	54.441883247953	9658
0	14200	54.44913112536	9658
0	14203	54.456379002767	9659
0	14206	54.463626129799	9659
0	14209	54.470873256831	9660
0	14212	54.478119633643	9660
0	14215	54.485366010455	9661
0	14218	54.492611637202	9661
0	14221	54.499857263949	9662
0	14224	54.507102140786	9662
0	14227	54.514347017623	9663
0	14234	54.521591144706	9663
0	14239	54.528835271789	9663
0	14242	54.536079398872	9664
0	14247	54.543322776355	9664
0	14250	54.550566153838	9665
0	14253	54.557808781877	9665
0	14258	54.565051409916	9666
0	14263	54.572293288666	9666
0	14268	54.579535167416	9667
0	14273	54.586776297032	9667
0	14276	54.594017426648	9668
0	14279	54.601257807285	9668
0	14287	54.612776334216	9667
0	14292	54.627703776458	9665
0	14297	54.642707218207	9662
0	14302	54.656511589602	9659
0	14305	54.663758716634	9658
0	14312	54.714545472493	9649
0	14315	54.721800110279	9648
0	14322	54.734876895918	9645
0	14325	54.742134542367	9644
0	14330	54.749392941372	9643
0	14337	54.760418476031	9641
0	14340	54.767679133639	9639
0	14347	54.785260703462	9636
0	14350	54.792525128535	9635
0	14362	54.846648031943	9625
0	14369	54.857537667395	9623
0	14377	54.881226782715	9619
0	14384	54.895786581852	9616
0	14393	54.926177871772	9611
0	14401	54.946974775404	9607
0	14405	54.954261129104	9606
0	14413	54.963418662728	9604
0	14420	54.972788761784	9603
0	14428	54.994259307751	9599
0	14434	55.004940518004	9597
0	14437	55.008498187922	9596
0	14446	55.028146341452	9593
0	14449	55.034946404497	9591
0	14454	55.035460636363	9591
0	14464	55.067924645892	9585
0	14468	55.075227723618	9584
0	14475	55.094175351818	9581
0	14480	55.102973040594	9579
0	14487	55.131163315771	9574
0	14495	55.164409763512	9568
0	14501	55.173919041557	9566
0	14507	55.191154623336	9563
0	14514	55.209527176886	9560
0	14517	55.216849352618	9559
0	14522	55.224172294348	9557
0	14527	55.231496768555	9556
0	14534	55.251230903051	9553
0	14540	55.260512509543	9551
0	14543	55.264811906198	9550
0	14552	55.291667044263	9545
0	14555	55.299000726819	9544
0	14563	55.317505682559	9541
0	14569	55.351062538333	9535
0	14577	55.37568135928	9530
0	14580	55.380078150517	9529
0	14589	55.407060692405	9524
0	14599	55.473831239376	9512
0	14603	55.481190364691	9511
0	14612	55.505541353268	9507
0	14618	55.521434158502	9504
0	14623	55.536280674988	9501
0	14629	55.551957551561	9498
0	14636	55.595409402636	9491
0	14643	55.622322626386	9486
0	14652	55.662126363998	9479
0	14662	55.724997355669	9467
0	14667	55.754868431873	9462
0	14671	55.762266444978	9461
0	14680	55.793302616466	9455
0	14686	55.824830579179	9449
0	14691	55.855249096506	9444
0	14696	55.87682355742	9440
0	14703	55.893689291035	9437
0	14708	55.911050632801	9434
0	14715	55.937005391663	9429
0	14722	55.966827805987	9424
0	14727	55.979046236782	9422
0	14731	56	9418
0	14735	56.036705905176	9411
0	14740	56.069117478188	9405
0	14744	56.076560327736	9404
0	14751	56.097080074799	9400
0	14754	56.10452688331	9399
0	14762	56.140511249193	9393
0	14768	56.168746547229	9388
0	14775	56.221227106604	9378
0	14780	56.228691384702	9377
0	14783	56.232238770522	9376
0	14788	56.237770481628	9375
0	14796	56.250865226222	9373
0	14799	56.258333486117	9371
0	14809	56.305645829278	9363
0	14812	56.313122065527	9362
0	14817	56.318470603121	9361
0	14825	56.339985640346	9357
0	14830	56.344429296637	9356
0	14831	56.347466670591	9355
0	14838	56.352646532378	9354
0	14848	56.393968262953	9347
0	14854	56.405254665935	9345
0	14859	56.41701164153	9343
0	14864	56.432163014123	9340
0	14869	56.446121919282	9338
0	14874	56.458843928164	9335
0	14879	56.474376589255	9333
0	14884	56.498322745255	9328
0	14889	56.519066182911	9325
0	14894	56.534676150698	9322
0	14899	56.543134173014	9320
0	14904	56.558766767567	9317
0	14907	56.566279915576	9316
0	14914	56.582903671771	9313
0	14919	56.590569299878	9312
0	14924	56.605348520669	9309
0	14929	56.612868125353	9308
0	14932	56.620388537901	9306
0	14937	56.6279105667	9305
0	14944	56.659905485142	9299
0	14949	56.667560837335	9298
0	14952	56.675089338088	9297
0	14959	56.737744719744	9285
0	14964	56.784129262946	9277
0	14969	56.851601459065	9265
0	14974	56.87215896506	9261
0	14979	56.891517271897	9258
0	14984	56.920384619404	9252
0	14989	56.939605009003	9249
0	14992	56.947173394774	9248
0	14999	57.031604535641	9232
0	15002	57.039186857998	9231
0	15009	57.078656447855	9224
0	15014	57.099736898598	9220
0	15019	57.128706248182	9215
0	15024	57.136928299351	9213
0	15027	57.144526258756	9212
0	15034	57.155704562806	9210
0	15039	57.164804152836	9208
0	15044	57.202658259013	9202
0	15049	57.21026530096	9200
0	15052	57.217873996612	9199
0	15057	57.225483519386	9198
0	15064	57.252587163373	9193
0	15069	57.345441526406	9176
0	15074	57.397058977182	9167
0	15079	57.445701682681	9158
0	15084	57.459816210654	9155
0	15091	57.467462305684	9154
0	15094	57.475109235988	9153
0	15099	57.482757001748	9151
0	15102	57.490406438968	9150
0	15109	57.521832004895	9144
0	15112	57.529487297983	9143
0	15119	57.540466192127	9141
0	15124	57.548123997619	9140
0	15127	57.555782640945	9138
0	15134	57.613989403888	9128
0	15139	57.636385301373	9124
0	15142	57.644057375025	9122
0	15149	57.664285823261	9119
0	15152	57.671962103555	9117
0	15157	57.679640067798	9116
0	15164	57.702582107462	9112
0	15167	57.710264284811	9110
0	15174	57.723622497277	9108
0	15177	57.731308048441	9107
0	15184	57.76613154431	9100
0	15187	57.773823852002	9099
0	15194	57.947457785014	9068
0	15199	57.955177238036	9066
0	15206	57.962898394003	9065
0	15209	57.970620401725	9064
0	15212	57.97834326139	9062
0	15217	57.986067825504	9061
0	15223	58	9058
0	15260	58.4	8986
0	15261	58.407789895393	8985
0	15266	58.415580657775	8984
0	15269	58.423372287339	8982
0	15272	58.431165651846	8981
0	15275	58.438959884114	8979
0	15278	58.446755852485	8978
0	15281	58.454552689197	8977
0	15284	58.462350394444	8975
0	15289	58.470149837341	8974
0	15292	58.477950149353	8972
0	15297	58.485752200178	8971
0	15300	58.4935551207	8970
0	15309	58.501358911112	8968
0	15312	58.509164441888	8967
0	15315	58.516970843137	8965
0	15320	58.524778985914	8964
0	15325	58.532587999747	8963
0	15328	58.54039788483	8961
0	15331	58.548209512996	8960
0	15336	58.556022012996	8958
0	15341	58.563836257247	8957
0	15344	58.571651373916	8956
0	15347	58.579467363197	8954
0	15350	58.587285098287	8953
0	15353	58.595103706575	8951
0	15356	58.602924061843	8950
0	15359	58.610745290893	8948
0	15364	58.618568268095	8947
0	15371	58.63174796935	8945
0	15376	58.643991673915	8943
0	15381	58.665394717508	8939
0	15386	58.679763540407	8936
0	15391	58.692126197858	8934
0	15396	58.739962900401	8925
0	15401	58.79467971065	8915
0	15404	58.802531645591	8914
0	15411	58.843553247618	8907
0	15414	58.851412234931	8905
0	15421	58.873877733061	8901
0	15426	58.927094607251	8892
0	15431	58.940549145718	8889
0	15436	58.949899644442	8888
0	15439	58.957775432021	8886
0	15446	58.982259661057	8882
0	15451	58.992376876055	8880
0	15456	59.000682428991	8878
0	15461	59.025057494913	8874
0	15464	59.032945707669	8873
0	15469	59.040834809438	8871
0	15476	59.048725689835	8870
0	15479	59.056617459846	8868
0	15484	59.064511009688	8867
0	15491	59.108108942601	8859
0	15494	59.116010511627	8858
0	15501	59.137816022515	8854
0	15506	59.164002874558	8849
0	15511	59.183107478539	8846
0	15514	59.191020659638	8844
0	15521	59.216117383943	8840
0	15526	59.232235427427	8837
0	15531	59.26835008438	8830
0	15536	59.285541522477	8827
0	15541	59.298753534677	8825
0	15545	59.306685546008	8819
0	15552	59.348944162329	8780
0	15555	59.356916827477	8773
0	15562	59.399492683682	8734
0	15567	59.413854192502	8721
0	15572	59.421880794956	8714
0	15575	59.42991384522	8707
0	15582	59.440216699634	8697
0	15587	59.477902482221	8663
0	15592	59.492858099123	8649
0	15597	59.552522278441	8595
0	15602	59.567963739321	8581
0	15605	59.576121296715	8574
0	15612	59.629624328223	8525
0	15615	59.637835471918	8518
0	15622	59.646053363442	8510
0	15625	59.654278980363	8503
0	15632	59.727810218096	8436
0	15635	59.736107989552	8428
0	15642	59.778671975168	8389
0	15645	59.787016235509	8382
0	15650	59.795367464333	8374
0	15657	59.835510857231	8338
0	15662	59.869525838153	8307
0	15667	59.900645233636	8279
0	15672	59.929956054601	8252
0	15675	59.938438846651	8244
0	15682	59.95982950872	8225
0	15687	59.980532512287	8206
0	15690	59.989062855938	8198
0	15696	60	8188
0	15745	60.4	8916
0	15750	60.407851054284	8979
0	15753	60.415647022655	9042
0	15756	60.423388672732	9105
0	15759	60.431076756203	9167
0	15762	60.438712842164	9229
0	15769	60.446297629248	9290
0	15774	60.453832613102	9351
0	15777	60.461318443494	9412
0	15782	60.468755757561	9472
0	15788	60.476145960264	9493
0	15793	60.483519814683	9482
0	15798	60.490902223458	9470
0	15801	60.498293986922	9459
0	15804	60.505694346368	9447
0	15809	60.51310410608	9435
0	15812	60.52052328997	9424
0	15815	60.527951133773	9412
0	15818	60.53538844784	9400
0	15821	60.542835256351	9389
0	15824	60.550290789422	9377
0	15827	60.55775586354	9365
0	15830	60.565230503156	9354
0	15835	60.572713932705	9342
0	15838	60.58020697488	9330
0	15843	60.587709654408	9318
0	15846	60.595221996112	9307
0	15849	60.602743216699	9295
0	15854	60.610274147307	9283
0	15859	60.61781481304	9271
0	15862	60.6253652391	9259
0	15865	60.632925450786	9248
0	15869	60.640494654938	9252
0	15872	60.648060586628	9257
0	15875	60.655622431718	9261
0	15878	60.663181010705	9266
0	15881	60.670735511029	9270
0	15888	60.679994049528	9276
0	15893	60.700198814716	9288
0	15898	60.715362954124	9297
0	15903	60.728542807986	9305
0	15908	60.760939495466	9325
0	15913	60.836898222738	9371
0	15918	60.846279551728	9376
0	15921	60.853745422035	9381
0	15926	60.861207313091	9385
0	15933	60.883189420858	9399
0	15938	60.892694337915	9404
0	15943	60.98012866261	9457
0	15948	61.001579492546	9470
0	15953	61.053651504358	9502
0	15958	61.062560164792	9507
0	15961	61.069923160479	9511
0	15968	61.114507704919	9538
0	15973	61.139929134141	9554
0	15978	61.221745990578	9603
0	15983	61.231518744602	9609
0	15986	61.238803581734	9614
0	15993	61.260636605333	9627
0	15998	61.267907821704	9631
0	16003	61.275176018153	9636
0	16006	61.282440443226	9640
0	16013	61.342318253474	9676
0	16018	61.349552647852	9680
0	16023	61.356784052811	9685
0	16026	61.364011724468	9689
0	16033	61.375639834619	9696
0	16038	61.387480306663	9703
0	16043	61.395958414486	9709
0	16048	61.432237334397	9730
0	16051	61.439431579001	9735
0	16056	61.446622128564	9739
0	16061	61.453809724826	9743
0	16068	61.464928491536	9750
0	16073	61.535987364488	9793
0	16078	61.589063930697	9825
0	16081	61.596188612631	9829
0	16088	61.613507181875	9840
0	16091	61.620621003013	9844
0	16098	61.646177832384	9860
0	16103	61.677982022888	9879
0	16108	61.693996401875	9889
0	16113	61.728291893095	9909
0	16118	61.807004341411	9957
0	16123	61.820307001732	9965
0	16128	61.838073809492	9976
0	16134	61.902922861021	9955
0	16137	61.909954503412	9952
0	16144	61.923616453499	9948
0	16147	61.930653043768	9945
0	16154	61.945909652974	9940
0	16159	61.956285922797	9936
0	16164	61.992074376132	9924
0	16168	62	9921
0	16207	62.4	9784
0	16210	62.407154538021	9782
0	16213	62.414310538839	9779
0	16216	62.421468734974	9777
0	16219	62.428628395402	9774
0	16224	62.435790253393	9772
0	16229	62.442953577175	9770
0	16232	62.450118367349	9767
0	16235	62.457285358237	9765
0	16238	62.464453817018	9762
0	16243	62.471624478768	9760
0	16248	62.478796609916	9757
0	16251	62.48597094629	9755
0	16254	62.493146753568	9752
0	16257	62.500324768334	9750
0	16260	62.507504255513	9747
0	16263	62.514685952445	9745
0	16268	62.521869123302	9742
0	16271	62.52905450618	9740
0	16274	62.536241364496	9738
0	16277	62.543429698856	9735
0	16280	62.550620248419	9733
0	16283	62.557812275543	9730
0	16286	62.565006520147	9728
0	16291	62.572202243831	9725
0	16296	62.579400187276	9723
0	16299	62.586599611322	9720
0	16306	62.603754917018	9714
0	16311	62.620096653432	9709
0	16316	62.64966983111	9699
0	16321	62.660855395934	9695
0	16326	62.688829720376	9685
0	16331	62.74015006522	9668
0	16336	62.750521957147	9664
0	16341	62.75776533463	9662
0	16344	62.765010211467	9659
0	16351	62.835557821068	9635
0	16356	62.888995185647	9617
0	16361	62.930656358482	9602
0	16366	62.954365522973	9594
0	16369	62.961661749781	9592
0	16376	62.986022739194	9583
0	16381	62.999527563496	9579
0	16386	63.030894878179	9568
0	16391	63.056180625672	9559
0	16396	63.090851276542	9547
0	16401	63.117651063745	9538
0	16406	63.12728746465	9535
0	16411	63.174682083868	9519
0	16416	63.229282233036	9500
0	16421	63.261457539321	9489
0	16426	63.27413956899	9484
0	16431	63.281587828477	9482
0	16434	63.288970237252	9479
0	16441	63.300254154948	9475
0	16446	63.314710819982	9470
0	16451	63.338909682833	9462
0	16456	63.359566002161	9455
0	16459	63.366969492378	9453
0	16464	63.374374548974	9450
0	16471	63.381781956381	9447
0	16474	63.389191716093	9445
0	16479	63.396603044838	9442
0	16484	63.40401672838	9440
0	16489	63.411431982617	9437
0	16496	63.4226053947	9433
0	16501	63.462296642125	9420
0	16506	63.491812773644	9410
0	16511	63.5094639617	9404
0	16514	63.516907602704	9401
0	16519	63.524353619085	9399
0	16526	63.541741514185	9393
0	16531	63.579528920119	9380
0	16534	63.586991606686	9377
0	16541	63.615414705708	9367
0	16546	63.638273190213	9359
0	16552	63.766472028057	9321
0	16557	63.774842524295	9322
0	16562	63.812429132609	9324
0	16567	63.849726836627	9326
0	16572	63.860431133852	9326
0	16577	63.872620908286	9327
0	16580	63.880126001028	9327
0	16585	63.88763109377	9328
0	16592	63.917404491031	9329
0	16597	63.946158325585	9331
0	16600	63.953660201054	9331
0	16606	64	9333
0	16653	64.4	9354
0	16656	64.407483429549	9355
0	16659	64.414966059159	9355
0	16662	64.422448688769	9356
0	16667	64.429930518611	9356
0	16670	64.437412348453	9356
0	16675	64.444894178295	9357
0	16678	64.45237520854	9357
0	16681	64.459856238785	9358
0	16684	64.467336469604	9358
0	16689	64.474816700423	9358
0	16692	64.482296931242	9359
0	16697	64.489776362805	9359
0	16700	64.497255794368	9360
0	16705	64.504734426847	9360
0	16708	64.512213059326	9360
0	16711	64.519691691805	9361
0	16714	64.52716952537	9361
0	16719	64.534647358935	9362
0	16724	64.542124393757	9362
0	16729	64.549601428579	9362
0	16734	64.557078463401	9363
0	16739	64.56455469965	9363
0	16746	64.572030935899	9363
0	16749	64.579507172148	9364
0	16756	64.586982609995	9364
0	16759	64.594458047842	9365
0	16762	64.601932687458	9365
0	16765	64.609407327074	9365
0	16768	64.61688196669	9366
0	16773	64.624355808245	9366
0	16780	64.6318296498	9367
0	16783	64.639302693464	9367
0	16786	64.646775737128	9367
0	16789	64.654248780792	9368
0	16794	64.661721026736	9368
0	16797	64.66919327268	9369
0	16800	64.676664721074	9369
0	16803	64.684136169468	9369
0	16808	64.691607617862	9370
0	16811	64.699078268876	9370
0	16816	64.70654891989	9371
0	16819	64.714018773694	9371
0	16822	64.721488627498	9371
0	16829	64.736204711673	9372
0	16834	64.765579893261	9374
0	16839	64.775621307971	9374
0	16844	64.804921085401	9376
0	16849	64.832156577823	9377
0	16854	64.870994387892	9379
0	16859	64.880856953289	9380
0	16864	64.906339084628	9381
0	16869	64.913917121806	9381
0	16874	64.9911921796	9385
0	16877	64.998650890309	9386
0	16884	65.042380500604	9388
0	16889	65.074952067539	9390
0	16894	65.092624529408	9391
0	16897	65.100078474675	9391
0	16904	65.110957065074	9392
0	16909	65.118410216692	9392
0	16914	65.12586336831	9392
0	16917	65.133316519928	9393
0	16924	65.254695154214	9399
0	16929	65.273406193264	9400
0	16932	65.280853001775	9401
0	16937	65.288299018156	9401
0	16944	65.314292056996	9402
0	16949	65.336049156244	9404
0	16954	65.37045824422	9405
0	16957	65.377901093768	9406
0	16962	65.385343152029	9406
0	16967	65.39278521029	9406
0	16972	65.400227268551	9407
0	16979	65.410754631441	9407
0	16982	65.418195898582	9408
0	16989	65.43232146853	9409
0	16994	65.459936146305	9410
0	16997	65.467375041098	9410
0	17004	65.478272889827	9411
0	17007	65.485710994173	9411
0	17014	65.509342183936	9413
0	17017	65.516778707892	9413
0	17024	65.559690294871	9415
0	17029	65.594289720485	9417
0	17034	65.601723085676	9417
0	17037	65.609156450867	9418
0	17044	65.648335152622	9420
0	17049	65.657280740316	9420
0	17054	65.667888605467	9421
0	17057	65.675318814574	9421
0	17062	65.682749023681	9422
0	17069	65.693073669582	9422
0	17074	65.750389607212	9425
0	17079	65.829289761568	9429
0	17084	65.92274096441	9434
0	17089	65.933669514083	9435
0	17092	65.941088697973	9435
0	17099	65.95572453917	9436
0	17104	65.977115612221	9437
0	17109	65.995004775025	9438
0	17114	66	9438
0	17164	66.402421600624	9459
0	17167	66.40982196007	9460
0	17174	66.417221537237	9460
0	17179	66.424621114404	9461
0	17182	66.432019909457	9461
0	17185	66.43941870451	9461
0	17188	66.446817499563	9462
0	17191	66.454215512668	9462
0	17194	66.461613525773	9462
0	17199	66.469011538878	9463
0	17204	66.4764087702	9463
0	17207	66.483806001522	9464
0	17210	66.491202451226	9464
0	17215	66.49859890093	9464
0	17218	66.505995350634	9465
0	17221	66.513391018885	9465
0	17226	66.520786687136	9466
0	17229	66.5281815741	9466
0	17232	66.535576461064	9466
0	17237	66.542971348028	9467
0	17240	66.550365453869	9467
0	17243	66.55775955971	9468
0	17246	66.565152884594	9468
0	17251	66.572546209478	9468
0	17256	66.579939534362	9469
0	17259	66.587332078453	9469
0	17262	66.594724622544	9469
0	17265	66.602117166635	9470
0	17268	66.609508930099	9470
0	17271	66.616900693563	9471
0	17276	66.624291676564	9471
0	17279	66.631682659565	9471
0	17282	66.639073642566	9472
[...]
6	106053	390.277188161197	0.007316053512
6	106056	390.27966583655	0.008071540707
6	106063	390.296192153445	0.007323707889
6	106071	390.356067263492	0.007349081365
6	106076	390.363419432382	0.014412801151
6	106079	390.370774691392	0.011049433759
6	106085	390.403733043243	0.007369196758
6	106090	390.466766577324	0.007395668251
6	106095	390.493316557448	0.007406623638
6	106104	390.549609765731	0.007430997877
6	106107	390.557043920361	0.01436533507
6	106110	390.564481234428	0.015465942167
6	106117	390.584727376432	0.007446016381
6	106120	390.592176562342	0.007971917593
6	106125	390.617087662466	0.007459505541
6	106132	390.637317851221	0.007468259895
6	106137	390.644789299615	0.012908070746
6	106140	390.652264737462	0.010668764665
6	106145	390.66444988539	0.007480230819
6	106150	390.672481996134	0.007483429549
6	106155	390.688409462988	0.007490636704
6	106160	390.709478114897	0.007500267867
6	106167	390.754545744465	0.007519604684
6	106170	390.762068581649	0.009568252613
6	106177	390.771735401281	0.00752688172
6	106180	390.779265521763	0.010514502269
6	106187	390.792668980831	0.007536606374
6	106190	390.800208834342	0.007960593564
6	106195	390.815806859128	0.007546356188
6	106200	390.833982293048	0.007554500324
6	106207	390.848642218976	0.0075610283
6	106210	390.856206515496	0.011021663015
6	106217	390.891132739856	0.007579859231
6	106220	390.898715883611	0.013241936115
6	106225	390.951690863796	0.007607041947
6	106230	390.966847819108	0.007613661083
6	106235	391.01615397759	0.007636085961
6	106242	391.034986697713	0.00764442503
6	106247	391.042634463473	0.01091783242
6	106250	391.050285572884	0.012559205607
6	106255	391.085893283519	0.007667871618
6	106262	391.115047544981	0.007680491551
6	106269	391.122732252413	0.007717875182
6	106272	391.130420335884	0.013955302081
6	106275	391.138111798361	0.021388879013
6	106280	391.149389603083	0.007696536559
6	106285	391.164630222653	0.007703312424
6	106292	391.174858220894	0.007708402158
6	106297	391.182570019947	0.013439850734
6	106300	391.190285218889	0.010770501197
6	106305	391.201070314377	0.007720304401
6	106310	391.213946935977	0.007726269316
6	106315	391.240883954322	0.007739082366
6	106320	391.318382377551	0.007775186049
6	106325	391.355786552338	0.007792496939
6	106332	391.387465110086	0.007807271916
6	106337	391.395275866614	0.007821860832
6	106340	391.403090983283	0.011314813117
6	106349	391.436108815443	0.007829977629
6	106352	391.443943174704	0.01177558183
6	106355	391.451781042804	0.018436909497
6	106360	391.46808629215	0.00784577449
6	106367	391.487217643312	0.007854578097
6	106370	391.495075748386	0.007953176881
6	106375	391.503587513754	0.007862518252
6	106380	391.534963051196	0.007877560207
6	106385	391.550885803851	0.007885546919
6	106392	391.565894057571	0.007892659826
6	106395	391.573790278665	0.01152630869
6	106402	391.587679021373	0.00790335328
6	106407	391.595585945579	0.010550873778
6	106410	391.60349644394	0.013219071372
6	106415	391.634407968793	0.007925724638
6	106420	391.642871109344	0.007930214116
6	106427	391.674835989204	0.007945516459
6	106430	391.6827851148	0.009853371748
6	106435	391.719426765581	0.007967220578
6	106440	391.754671246861	0.007984487282
6	106445	391.767694251295	0.00799086758
6	106450	391.776906523184	0.007995431182
6	106455	391.798619471163	0.008006405124
6	106460	391.83886783985	0.008026602454
6	106465	391.851131145497	0.008033050264
6	106472	391.910758034911	0.008062658374
6	106475	391.918824409652	0.010398733734
6	106482	391.928005719185	0.00807102502
6	106485	391.93608139985	0.016022365825
6	106490	391.963705836866	0.00808967988
6	106525	392.408321445554	0.402238969917
6	106528	392.416646849931	0.348252048751
6	106533	392.424977208136	0.332695125135
6	106536	392.433311533651	0.333789108775
6	106539	392.44165082362	0.311678619641
6	106544	392.449994089413	0.300077408614
6	106549	392.458342330319	0.306885576092
6	106552	392.46669455559	0.274981111577
6	106555	392.475051766669	0.240442000515
6	106560	392.483412970682	0.239055479033
6	106563	392.491779171232	0.244247986795
6	106570	392.500149373313	0.236021819309
6	106573	392.508524582693	0.207361603921
6	106578	392.516903802229	0.211986388672
6	106581	392.525288039862	0.191431024594
6	106584	392.533677301607	0.115775213034
6	106589	392.542070586979	0.097317726617
6	106594	392.550468907315	0.092228659388
6	106599	392.558871259974	0.077387334717
6	106602	392.567278658485	0.074114387166
6	106605	392.575690098043	0.078000315011
6	106610	392.584106594376	0.071345096895
6	106613	392.592527140509	0.058318973953
6	106616	392.600952754375	0.051217856471
6	106619	392.609383442078	0.057349520551
6	106622	392.617818193253	0.035852731392
6	106627	392.629675015971	0.008441871684
6	106634	392.653418314286	0.00845410628
6	106637	392.661877528788	0.012441179645
6	106642	392.701512913355	0.008481764207
6	106647	392.713101363555	0.008487935007
6	106652	392.74209878599	0.008504434455
6	106659	392.789423376229	0.008530343651
6	106662	392.797958920675	0.016169184426
6	106671	392.822075473237	0.008549096238
6	106674	392.830629793169	0.011794097675
6	106677	392.839188296654	0.019575242823
6	106682	392.851230645705	0.008565834557
6	106687	392.86464638429	0.0085731782
6	106692	392.901892079016	0.008594229589
6	106697	392.916795492031	0.00860267912
6	106702	392.930085730816	0.008610086101
6	106707	392.966177517142	0.008631319359
6	106712	392.991850653792	0.008646245059
6	106717	393.010035994609	0.008656937917
6	106724	393.024763983244	0.008665511265
6	106729	393.033433787554	0.015971356317
6	106734	393.042108964156	0.014608312788
6	106739	393.050789519712	0.012403603796
6	106742	393.059475460896	0.014027005726
6	106749	393.075731010747	0.008694572103
6	106752	393.08443098589	0.016293969092
6	106760	393.165247825897	0.008596340415
6	106765	393.173797966364	0.013626089632
6	106770	393.182302400819	0.01243762043
6	106773	393.190761615321	0.013598094676
6	106778	393.268689825578	0.008067304368
6	106783	393.280124077472	0.008013737836
6	106788	393.295969137202	0.007939208348
6	106793	393.314774906067	0.007852815795
6	106800	393.327182174285	0.007796836712
6	106805	393.334944427556	0.012392440703
6	106808	393.342672402826	0.009382703959
6	106813	393.36276970547	0.007641087218
6	106821	393.380014767741	0.007567567568
6	106826	393.387555433474	0.012188785202
6	106829	393.395093663067	0.00853592042
6	106834	393.417792297263	0.007531740908
6	106839	393.427462204317	0.007528500753
6	106844	393.4765470927	0.007513954487
6	106851	393.553012260518	0.007490636704
6	106854	393.560500493295	0.009935580113
6	106859	393.571694417851	0.00748502994
6	106864	393.57949879805	0.00748262961
6	106871	393.609789723076	0.007473841555
6	106874	393.61726117147	0.010294787519
6	106883	393.62855112244	0.007468259895
6	106888	393.636016992747	0.013659327954
6	106891	393.643480474995	0.015845281141
6	106894	393.65094157071	0.016813137334
6	106899	393.700846746208	0.007446016381
6	106904	393.714887256348	0.007442058261
6	106911	393.757498916883	0.007429420505
6	106916	393.764925972586	0.008796127168
6	106919	393.77235145259	0.013160136193
6	106924	393.801678667911	0.007416039835
6	106933	393.844919506964	0.007403490217
6	106936	393.852320648854	0.014750226049
6	106939	393.859720226021	0.017761444025
6	106944	393.867394789442	0.007397231322
6	106951	393.884204330704	0.007391763464
6	106954	393.891594533407	0.01016642425
6	106959	393.942280911422	0.007375408282
6	106964	393.961011062667	0.007369972626
6	106969	393.977630530936	0.007364544976
6	107024	394.40724187875	0.398696801738
6	107027	394.414481510563	0.401180716223
6	107032	394.421719645192	0.398352571966
6	107037	394.428955535206	0.399432019325
6	107040	394.436189181997	0.393787191646
6	107043	394.443420586956	0.378319039653
6	107046	394.450650498131	0.31465199995
6	107049	394.457878169788	0.2943892214
6	107052	394.465103603314	0.291771343337
6	107055	394.472327545522	0.281077665141
6	107060	394.479549251908	0.269566024794
6	107063	394.486768723855	0.270175770963
6	107066	394.493985962746	0.269981966966
6	107071	394.5012017137	0.273062872026
6	107076	394.508415233898	0.248757344901
6	107079	394.515626524719	0.234704893719
6	107082	394.522836330054	0.231386294754
6	107085	394.530043908308	0.23338394026
6	107088	394.537249260856	0.203109142552
6	107093	394.544453130363	0.206759668866
6	107096	394.551654776454	0.198596147121
6	107101	394.5588542005	0.202984076268
6	107104	394.566051403872	0.208406128945
6	107107	394.573247127556	0.188749061514
6	107110	394.580440632848	0.188229909192
6	107113	394.587631921116	0.170531442269
6	107116	394.594821732127	0.17201951233
6	107119	394.602009328389	0.126730765401
6	107122	394.609194711267	0.11312178652
6	107125	394.616378619313	0.114237252668
6	107130	394.623560316245	0.085969638369
6	107133	394.630739803424	0.075343751171
6	107136	394.63791708221	0.01525652932
6	107141	394.680245685085	0.007166257166
6	107148	394.725986902163	0.007153075823
6	107151	394.733138516384	0.009245375324
6	107156	394.744123068212	0.00714869281
6	107161	394.756221007943	0.007145044401
6	107166	394.765344980888	0.007142857143
6	107171	394.832846970805	0.007123956849
6	107176	394.841740126128	0.00712178248
6	107183	394.904105177342	0.007517182131
6	107188	394.970216302691	0.007992692396
6	107193	394.984552711931	0.007997258083
6	107198	395.006709271651	0.008004574042
6	107203	395.018621328503	0.008008237044
6	107208	395.028478012043	0.008010986496
6	107213	395.086441971008	0.008029364533
6	107218	395.1090563403	0.00803673938
6	107225	395.127360545206	0.008042279412
6	107230	395.135405597499	0.009773682142
6	107235	395.143453424586	0.01214926633
6	107238	395.151504028381	0.011407234442
6	107243	395.162719407711	0.008054309055
6	107248	395.186239063835	0.008061729817
6	107255	395.203242209464	0.008066374741
6	107258	395.211311373729	0.010205844167
6	107265	395.225251621742	0.008073817762
6	107270	395.23332823418	0.010454830952
6	107277	395.241407643229	0.008127517717
6	107280	395.249488917761	0.01252564259
6	107285	395.257572992134	0.0174433855
6	107288	395.265659868289	0.015221188242
6	107293	395.299043433587	0.008097165992
6	107300	395.310535744581	0.008100914246
6	107303	395.318639472296	0.013821581442
6	107310	395.376269064396	0.008122534231
6	107321	395.384394427135	0.01324380366
6	107324	395.392522620354	0.015218113118
6	107329	395.400652701655	0.020115498118
6	107332	395.408785616724	0.027392292246
6	107335	395.416921367538	0.034723880479
6	107338	395.425059956074	0.028935836192
6	107345	395.443269222096	0.008144269924
6	107348	395.45141633569	0.014282743603
6	107356	395.489724114839	0.00813197026
6	107361	395.497850420852	0.00974489855
6	107364	395.505972012684	0.015251474038
6	107369	395.515771161496	0.008115001159
6	107376	395.528144612855	0.008106543138
6	107381	395.536245527101	0.010800845177
6	107384	395.544340820266	0.008905524406
6	107391	395.553702605473	0.00808967988
6	107394	395.561786679846	0.013476734488
6	107399	395.609697546567	0.008052455999
6	107406	395.649631528916	0.008026602454
6	107409	395.657652612908	0.014794898895
6	107414	395.690769646324	0.008
6	107419	395.702267731818	0.007992692396
6	107424	395.729254952896	0.007975390224
6	107431	395.74964267158	0.007961783439
6	107434	395.757599929736	0.012275031038
6	107441	395.770751900912	0.007948223004
6	107444	395.77869561403	0.009771494415
6	107453	395.798456046328	0.007931112622
6	107456	395.806381770966	0.011585441032
6	107459	395.814303011206	0.018569868074
6	107466	395.839369965928	0.00790513834
6	107469	395.847269751505	0.010057717064
6	107478	395.857713486972	0.007893549842
6	107481	395.865601699728	0.015103886039
6	107484	395.873485470423	0.019726775785
6	107491	395.883067634232	0.007877560207
6	107496	395.890940764364	0.015547760781
6	107501	395.898808584978	0.012495851977
6	107504	395.90667110323	0.013829617996
6	107509	395.918191656779	0.007855459544
6	107514	395.991240812675	0.007810756528
6	107523	396.003928106038	0.007804660497
6	107573	396.412305320016	0.415537796712
6	107577	396.420694581761	0.356698301446
6	107580	396.429094917774	0.31661453429
6	107583	396.43748619085	0.322080700044
6	107588	396.445868420523	0.329269194626
6	107591	396.454241626265	0.322103916813
6	107594	396.462605827484	0.308187288751
6	107597	396.470961043526	0.305139327546
6	107600	396.479307293675	0.304879242358
6	107603	396.48764559028	0.301853130513
6	107610	396.495974957248	0.298024808273
6	107613	396.504295413684	0.304526577734
6	107616	396.512606978633	0.307839694106
6	107619	396.520909671078	0.300296960694
6	107624	396.529204492739	0.300326094745
6	107627	396.537490477587	0.280535259467
6	107630	396.545767644431	0.281445972099
6	107633	396.554036012019	0.268278587032
6	107640	396.562296573737	0.25185736136
6	107643	396.57054837145	0.254828420973
6	107650	396.578791423735	0.222073261391
6	107653	396.587026717853	0.22537821514
6	107656	396.59525330147	0.223075297302
6	107659	396.603471192994	0.193732811301
6	107662	396.611681373618	0.168062554129
6	107667	396.619882896758	0.131290918935
6	107672	396.628075780653	0.139251473887
6	107679	396.636261000485	0.110944509706
6	107684	396.644437615366	0.088126245306
6	107689	396.652605643371	0.095166640971
6	107692	396.660766053723	0.088398041127
6	107695	396.668917911182	0.090213003356
6	107700	396.677061233658	0.062473611446
6	107703	396.685196984472	0.061012993124
6	107708	396.693324233979	0.064067140166
6	107711	396.70144394167	0.070220725794
6	107714	396.709555181531	0.068876042506
6	107717	396.717658909246	0.06532858282
6	107720	396.725754202411	0.04949660065
6	107725	396.733841078566	0.044791885676
6	107730	396.741920487615	0.015138408034
6	107733	396.749991512635	0.012592994632
6	107738	396.758475063191	0.008062658374
6	107743	396.795582046838	0.008026602454
6	107751	396.833009178122	0.00799086758
6	107758	396.846421003881	0.007977207977
6	107764	396.862302081918	0.007962689114
6	107773	396.889794890087	0.007936507937
6	107789	396.984757624696	0.007846653963
6	107797	397.010396066764	0.007822977202
6	107810	397.057370315676	0.007780371235
6	107816	397.065142911723	0.010433975184
6	107820	397.072908609526	0.008456582592
6	107827	397.089884906319	0.007750221435
6	107842	397.152066203621	0.007693998681
6	107845	397.157680440579	0.012210436068
6	107851	397.182130383247	0.007667871618
6	107857	397.1959317892	0.007655293088
6	107864	397.21082840547	0.007641921397
6	107867	397.218463658524	0.01276690032
6	107879	397.307670649737	0.007667031763
6	107882	397.315346930031	0.015298253475
6	107887	397.331492989931	0.007696536559
6	107894	397.341025039122	0.007709251101
6	107897	397.348743640952	0.011099357311
6	107906	397.411460095349	0.007799442897
6	107909	397.418204209541	0.012121960785
6	107916	397.436922647041	0.00783260602
6	107921	397.444765784296	0.009596376706
6	107924	397.452618600091	0.008850584166
6	107932	397.478253789079	0.007887323944
6	107938	397.503331954254	0.007920343969
6	107943	397.519343543421	0.007941910597
6	107948	397.535751027327	0.007964501081
6	107953	397.545886425054	0.007978117164
6	107960	397.567477122528	0.008007320979
6	107970	397.59592858398	0.008046901943
6	107976	397.603986601708	0.013588254258
6	107979	397.603989806928	0.013109961195
6	107983	397.612055765973	0.008476841433
6	107989	397.645288459057	0.008115001159
6	107994	397.676400903343	0.008159459144
6	107999	397.70402788936	0.008198641368
6	108007	397.713727611496	0.008213070515
6	108011	397.721952261948	0.012463757521
6	108019	397.7800171146	0.008309591643
6	108024	397.789885861142	0.008324414318
6	108031	397.808166891584	0.008351228824
6	108035	397.816530093496	0.015947924682
6	108046	397.865971955083	0.00843780135
6	108049	397.874422999391	0.016651690389
6	108055	397.883165959673	0.0084643289
6	108067	397.995157005143	0.008639842014
6	108072	398.003809662745	0.012572369203
6	108082	398.013302320671	0.00866873065
6	108087	398.020736321529	0.010042928119
6	108091	398.028691976515	0.0086934923
6	108099	398.046041005153	0.0086902545
6	108102	398.053974400241	0.012256248105
6	108108	398.085753014715	0.00866873065
6	108117	398.118657105841	0.008651588184
6	108121	398.127304418997	0.012960545791
6	108126	398.14744614746	0.008635578584
6	108133	398.163194786426	0.008628127696
6	108138	398.171817599927	0.017219793011
6	108142	398.180436166782	0.017209357722
6	108148	398.201334190806	0.008606910119
6	108157	398.236574940108	0.008588957055
6	108160	398.245158631095	0.014808623822
6	108166	398.26791374696	0.008572128337
6	108175	398.327257434103	0.008540751586
6	108182	398.335794019469	0.016243148458
6	108185	398.344325402772	0.016683139092
6	108190	398.352852628987	0.020442042789
6	108193	398.361375702164	0.016968234691
6	108200	398.371192196099	0.008517887564
6	108203	398.379705939714	0.016931764182
6	108210	398.40829158903	0.00849823965
6	108218	398.443064185296	0.008480736613
6	108227	398.462555048065	0.008470474347
6	108230	398.471021424456	0.009568600992
6	108237	398.521567450802	0.008439836026
6	108243	398.53781807193	0.008431703204
6	108249	398.550591243876	0.008425613866
6	108258	398.602801801492	0.008399328054
6	108265	398.630065741441	0.008385241974
6	108271	398.638446967495	0.013369141873
6	108274	398.644952154086	0.011626398503
6	108283	398.6820827131	0.00835920707
6	108288	398.690437929142	0.015161510611
6	108291	398.698788161756	0.009639240284
6	108296	398.725602851063	0.008337303478
6	108309	398.777237959997	0.008311564949
6	108313	398.785545579271	0.008980730667
6	108319	398.819415107891	0.008290891863
6	108324	398.831197509953	0.008285004143
6	108333	398.842894714363	0.008279124778
6	108341	398.851169924199	0.010412054476
6	108344	398.851339395132	0.008723604458
6	108347	398.859441222793	0.009340582476
6	108350	398.859609716493	0.008895820402
6	108357	398.889772301661	0.00825569053
6	108365	398.931218043309	0.008235294118
6	108373	398.939449463817	0.015576603444
6	108376	398.946046589621	0.009313811363
6	108379	398.947677014358	0.010003875695
6	108385	398.967685760564	0.008217891524
6	108390	398.987412105534	0.008208255159
6	108399	399.030073853878	0.008188092175
6	108404	399.038250004273	0.015340163991
6	108407	399.038361161002	0.008184262832
6	108414	399.059452936158	0.008173750584
6	108426	399.104652809135	0.008151857459
6	108429	399.11280087106	0.012933702687
6	108436	399.120945140984	0.020519601342
6	108440	399.129085622435	0.016102330746
6	108443	399.133741439599	0.014190130882
6	108448	399.146441392163	0.00813197026
6	108456	399.179827735756	0.008116883117
6	108459	399.185352020505	0.008748158185
6	108466	399.223076542879	0.00809622947
6	108472	399.241839788733	0.008086876155
6	108485	399.299761460773	0.008059873345
6	108490	399.307817623738	0.014033766116
6	108493	399.315870079737	0.014866501315
6	108498	399.324955667571	0.008048752443
6	108507	399.355244870071	0.008033972225
6	108513	399.37387214729	0.008025682183
6	108524	399.458002284499	0.007987220447
6	108530	399.465985861141	0.015860915161
6	108533	399.473965797302	0.008867399198
6	108548	399.566447916438	0.007937407869
6	108553	399.5743817258	0.010048221155
6	108559	399.582311939916	0.015950065059
6	108563	399.587755255575	0.020598547612
6	108566	399.590238562043	0.011116779999
6	108577	399.61555108443	0.007915865656
6	108581	399.623463371081	0.012457786095
6	108586	399.630985253759	0.016990044355
6	108589	399.631372081961	0.016505825066
6	108594	399.638890392099	0.014238200848
6	108600	399.646479282742	0.007901569026
6	108603	399.65387607031	0.007898002934
6	108608	399.672002423352	0.007889990983
6	108615	399.682784219207	0.007885546919
6	108618	399.690666214478	0.01030220721
6	108627	399.735514637666	0.00786163522
6	108633	399.757686199058	0.007851934941
6	108638	399.768782495317	0.007847533632
6	108644	399.797136155662	0.007834359261
6	108649	399.845893418795	0.007813372028
6	108657	399.889176775149	0.007794232268
6	108662	399.921899184403	0.007780371235
6	108669	399.936499973545	0.007773459189
6	108672	399.944269981315	0.008739289518
6	108679	399.958594585928	0.007763975155
6	108682	399.966355118079	0.007867384163
6	108689	399.977797326625	0.007755373366
6	108695	399.987029655793	0.007751937984

