version 2
run Exponential-capacity-22-20210216-13:45:54-21956
attr configname Exponential-capacity
attr datetime 20210216-13:45:54
attr experiment Exponential-capacity
attr inifile aerocom.ini
attr iterationvars "$0=0.5, $1=50, $2=4, $3=4"
attr iterationvarsf 0.5,50,4,4-
attr measurement "$0=0.5, $1=50, $2=4, $3=4"
attr network Aerocom
attr processid 21956
attr repetition 1
attr replication #1
attr resultdir results
attr runnumber 22
attr seedset 1
param **.t 0.5s
param **.k 50ms
param **.X 4s
param **.m 4s
param **.tDistribution "\"exponential\""
param **.operationMode 0
param **.s "70 byte"
param **.dimPoolMax 10000
param **.dimPoolMin 8000
param **.nDL 10
param **.nA 1
param **.DLMaxCapacity 0
param **.trasmitting false

vector 0 Aerocom.aircraft[0].linkSelector responseTime:vector ETV
attr "" ""
attr source computeResponseTime
vector 1 Aerocom.aircraft[0].dataLink[2] tDistribution:vector ETV
attr "" ""
attr source computeTDistribution
vector 2 Aerocom.aircraft[0].dataLink[7] tDistribution:vector ETV
attr "" ""
attr source computeTDistribution
vector 3 Aerocom.aircraft[0].dataLink[4] tDistribution:vector ETV
attr "" ""
attr source computeTDistribution
vector 4 Aerocom.aircraft[0].dataLink[3] tDistribution:vector ETV
attr "" ""
attr source computeTDistribution
vector 5 Aerocom.aircraft[0].packetGenerator arrivalTime:vector ETV
attr "" ""
attr source computeArrivalTime
vector 6 Aerocom.aircraft[0].linkSelector waitingTime:vector ETV
attr "" ""
attr source computeWaitingTime
vector 7 Aerocom.aircraft[0].linkSelector queueLength:vector ETV
attr "" ""
attr source computeQueueLength
vector 8 Aerocom.aircraft[0].dataLink[1] actualCapacity:vector ETV
attr "" ""
attr source computeActualCapacity
vector 9 Aerocom.aircraft[0].linkSelector serviceTime:vector ETV
attr "" ""
attr source computeServiceTime
vector 10 Aerocom.aircraft[0].dataLink[6] tDistribution:vector ETV
attr "" ""
attr source computeTDistribution
vector 11 Aerocom.aircraft[0].dataLink[9] tDistribution:vector ETV
attr "" ""
attr source computeTDistribution
vector 12 Aerocom.aircraft[0].dataLink[5] tDistribution:vector ETV
attr "" ""
attr source computeTDistribution
vector 13 Aerocom.aircraft[0].dataLink[1] tDistribution:vector ETV
attr "" ""
attr source computeTDistribution
vector 14 Aerocom.aircraft[0].dataLink[0] tDistribution:vector ETV
attr "" ""
attr source computeTDistribution
vector 15 Aerocom.aircraft[0].dataLink[8] tDistribution:vector ETV
attr "" ""
attr source computeTDistribution
vector 16 Aerocom.aircraft[0].dataLink[0] actualCapacity:vector ETV
attr "" ""
attr source computeActualCapacity
vector 17 Aerocom.aircraft[0].dataLink[2] actualCapacity:vector ETV
attr "" ""
attr source computeActualCapacity
vector 18 Aerocom.aircraft[0].dataLink[3] actualCapacity:vector ETV
attr "" ""
attr source computeActualCapacity
vector 19 Aerocom.aircraft[0].dataLink[4] actualCapacity:vector ETV
attr "" ""
attr source computeActualCapacity
vector 20 Aerocom.aircraft[0].dataLink[5] actualCapacity:vector ETV
attr "" ""
attr source computeActualCapacity
vector 21 Aerocom.aircraft[0].dataLink[6] actualCapacity:vector ETV
attr "" ""
attr source computeActualCapacity
vector 22 Aerocom.aircraft[0].dataLink[7] actualCapacity:vector ETV
attr "" ""
attr source computeActualCapacity
vector 23 Aerocom.aircraft[0].dataLink[8] actualCapacity:vector ETV
attr "" ""
attr source computeActualCapacity
vector 24 Aerocom.aircraft[0].dataLink[9] actualCapacity:vector ETV
attr "" ""
attr source computeActualCapacity
0	1281	10.000759202124	0.007840501792
0	1290	10.078248819655	0.00786163522
0	1295	10.093907150891	0.007866052365
0	1301	10.127105453761	0.007875787579
0	1309	10.236109014296	0.007906031172
0	1314	10.266492063662	0.007914970602
0	1320	10.301485872775	0.007924827352
0	1325	10.313783580174	0.007928417714
0	1330	10.356254642565	0.007940108893
0	1335	10.366011166224	0.007943713118
0	1343	10.386975989753	0.007949125596
0	1346	10.394927824355	0.012077224335
0	1352	10.437849221439	0.007963594994
0	1360	10.54918004823	0.007830853563
0	1363	10.557000403498	0.009224450243
0	1370	10.606633274076	0.007750221435
0	1375	10.614373212156	0.013505377137
0	1378	10.622102040686	0.013498945647
0	1394	11.146578064008	0.007206836199
0	1399	11.17329438247	0.007190549563
0	1406	11.188879962823	0.007180960197
0	1409	11.19605650578	0.011839715135
0	1414	11.206253569722	0.007169927276
0	1419	11.217993437206	0.007163323782
0	1424	11.234175708933	0.007153075823
0	1431	11.299733704119	0.007113098262
0	1436	11.314225380385	0.007104435197
0	1443	11.366927242306	0.007154538021
0	1450	11.481100669328	0.007317583107
0	1456	11.513746585301	0.007365319865
0	1462	11.604047522605	0.007501071582
0	1467	11.620136569856	0.007526072465
0	1472	11.628058448863	0.007538229593
0	1477	11.680951049077	0.007621121394
0	1485	11.950959271148	0.008072886634
0	1493	12.106748764424	0.00717066175
0	1500	12.128746021972	0.007186120522
0	1505	12.157360044888	0.007207578254
0	1514	12.19699669649	0.007236638065
0	1517	12.20423857524	0.010842857583
0	1525	12.234505682886	0.007264425073
0	1532	12.241775388982	0.011560881158
0	1535	12.249050383786	0.011892401844
0	1539	12.256330674998	0.014847335229
0	1548	12.347157161495	0.007349081365
0	1557	12.507861034218	0.007473841555
0	1562	12.520191096904	0.007483429549
0	1569	12.55912196754	0.007505092742
0	1576	12.646052507442	0.007477833565
0	1584	12.736865371741	0.007448393275
0	1600	13.055128521165	0.007349081365
0	1605	13.064443935685	0.007345996432
0	1619	13.301569204333	0.007274238803
0	1624	13.316643247506	0.007269706096
0	1629	13.325219385196	0.007266687429
0	1636	13.3840812002	0.007249378625
0	1641	13.415878234941	0.007239631813
0	1650	13.528806769559	0.007206094297
0	1657	13.590241095236	0.007187596262
0	1663	13.61106315319	0.007181696932
0	1670	13.631833484612	0.007175807278
0	1673	13.63900708576	0.011006444184
0	1680	13.694817990332	0.007157464213
0	1693	13.794821008396	0.00736144705
0	1702	13.864041620274	0.007584787084
0	1707	13.881285582004	0.007642755759
0	1714	13.966497956281	0.007932011331
0	1722	14.033671319325	0.007543103448
0	1733	14.127373432015	0.007142857143
0	1740	14.136007879969	0.007176542957
0	1743	14.143213232517	0.010127359326
0	1750	14.199890159316	0.007438104346
0	1755	14.218355663823	0.007517989475
0	1766	14.310618214374	0.007705856451
0	1773	14.351791337966	0.007717750827
0	1784	14.416752137484	0.007736516357
0	1794	14.542989211652	0.007774322523
0	1803	14.565240804642	0.007781236105
0	1806	14.573023771064	0.010579741473
0	1815	14.635103465352	0.007802050825
0	1823	14.661146595288	0.007809885083
0	1826	14.668958223454	0.008111340161
0	1831	14.707329588176	0.007822977202
0	1836	14.72616641291	0.00782910189
0	1843	14.778612386536	0.007844895215
0	1848	14.805820709971	0.007852815795
0	1853	14.824377285541	0.007858987313
0	1859	14.929273992369	0.007890880397
0	1864	15.021356486634	0.007919447901
0	1869	15.029704723073	0.00792124024
0	1874	15.064040455982	0.007932011331
0	1883	15.170682213262	0.008508569345
0	1894	15.231452570277	0.008453085376
0	1904	15.31159435362	0.008381226054
0	1912	15.368341970483	0.008331349679
0	1922	15.546300244617	0.008178525529
0	1927	15.595088424415	0.008137642409
0	1933	15.617988407999	0.008117824423
0	1949	15.923989451506	0.007871359496
0	1954	15.935447480531	0.007862518252
0	1959	15.944137093111	0.007855459544
0	1965	15.957885905856	0.007844895215
0	1974	16.042793109269	0.007139214686
0	1980	16.130804346901	0.007177278786
0	1985	16.148824229291	0.007184645386
0	1995	16.316845337472	0.007258399005
0	1999	16.32410674826	0.008921712218
0	2005	16.382472847853	0.007287112222
0	2010	16.399345359632	0.007294706128
0	2015	16.432297596587	0.00730994152
0	2020	16.494844266779	0.007337526205
0	2025	16.511769149043	0.007345225603
0	2030	16.52539439303	0.007351396765
0	2037	16.615129992394	0.007392544091
0	2043	16.674968508739	0.00741997032
0	2053	16.777872424345	0.007467463196
0	2057	16.785343075359	0.013645146078
0	2061	16.792817714975	0.016286993979
0	2067	16.915965357191	0.007532551383
0	2072	16.928135125782	0.007538229593
0	2077	16.950700962715	0.007548797584
0	2083	17.039862867298	0.007592190889
0	2091	17.120387997117	0.007631091246
0	2097	17.214727831778	0.007677122176
0	2103	17.278328136865	0.007708402158
0	2108	17.297228985098	0.007717750827
0	2113	17.34337885445	0.007740793984
0	2119	17.359763665211	0.007749363445
0	2124	17.372933734902	0.007756232687
0	2129	17.401124999923	0.00777000777
0	2134	17.430451973409	0.007784697509
0	2140	17.469238249161	0.007804660497
0	2147	17.520775919428	0.007830853563
0	2150	17.528611155604	0.010643747405
0	2157	17.602091695386	0.007873130132
0	2165	17.692812217622	0.007920343969
0	2172	17.771789944784	0.007961783439
0	2178	17.810068220831	0.007982666211
0	2183	17.834057740988	0.007995431182
0	2191	17.908659905822	0.008022003209
0	2196	17.93486900721	0.008025682183
0	2203	17.947993418784	0.008027522936
0	2206	17.956021862413	0.010472547892
0	2214	18.121642971826	0.008052455999
0	2219	18.150549565436	0.008057090239
0	2224	18.22008038242	0.008067304368
0	2231	18.316380835478	0.008081274532
0	2237	18.33739434182	0.008084074373
0	2244	18.51180507686	0.008109360519
0	2254	18.660009357107	0.007978117164
0	2259	18.723594749807	0.007888212756
0	2265	18.783795207442	0.007804660497
0	2270	18.810148208088	0.007768283209
0	2278	18.901830742408	0.00764609503
0	2287	18.909466828369	0.00778889073
0	2290	18.91709293143	0.013086753052
0	2295	18.92470907766	0.019585720111
0	2298	18.932315293025	0.024329462146
0	2301	18.939911603389	0.019350143856
0	2307	18.99596797684	0.007523645744
0	2313	19.018001339226	0.007496251874
0	2318	19.036147748641	0.007473043664
0	2327	19.112390281852	0.007378517972
0	2332	19.148710060467	0.007333682556
0	2339	19.178557505019	0.007343684431
0	2344	19.187086471639	0.007376962799
0	2350	19.219617574011	0.007505897491
0	2363	19.410814672089	0.007975390224
0	2368	19.447070881085	0.007918552036
0	2374	19.481949837375	0.007864284912
0	2379	19.504895958699	0.00782910189
0	2386	19.593067448323	0.007695690413
0	2394	19.608265047883	0.007673755755
0	2397	19.61592704438	0.011489659217
0	2402	19.693171745383	0.00755042606
0	2407	19.725717755418	0.007504288165
0	2417	19.841106580269	0.007376962799
0	2420	19.848481211537	0.011536427754
0	2425	19.866711526123	0.007367645511
0	2434	19.974484615648	0.007328308208
0	2444	20.082094090075	0.007201646091
0	2449	20.111606490719	0.007201646091
0	2456	20.129880569673	0.007202387077
0	2459	20.13708295675	0.010854139955
0	2466	20.150113277706	0.007202387077
0	2469	20.157315664783	0.010425751555
0	2474	20.166061939172	0.007202387077
0	2479	20.204757318184	0.007202387077
0	2486	20.232017397149	0.007203128216
0	2491	20.239220525365	0.010477553572
0	2496	20.246423653581	0.010957173573
0	2499	20.253626781797	0.008007204869
0	2508	20.500484061237	0.007315288954
0	2516	20.529212453109	0.007376962799
0	2522	20.557691321717	0.007438894793
0	2529	20.592204934294	0.00751637496
0	2535	20.64026221737	0.007626103061
0	2541	20.684135808866	0.00772882853
0	2552	20.877943868314	0.008190966534
0	2558	20.926590879876	0.008391273076
0	2565	20.944023197839	0.008462282398
0	2571	20.967325141543	0.008438818565
0	2578	20.997581116205	0.008409418549
0	2585	21.045748137612	0.008363201912
0	2590	21.071109496645	0.008338296605
0	2595	21.079655487267	0.008330358205
0	2601	21.157279384226	0.008256664308
0	2606	21.17337906232	0.008242081714
0	2613	21.221380964354	0.008198641368
0	2619	21.301463946103	0.00812913715
0	2625	21.346191775156	0.008090614887
0	2632	21.354493235822	0.008084074373
0	2636	21.362570780248	0.009506658778
0	2643	21.37376796023	0.008067304368
0	2648	21.381828761704	0.014557225791
0	2653	21.389883070759	0.008693374544
0	2658	21.402437582971	0.008043203493
0	2668	21.435059842426	0.008016491067
0	2671	21.443069912228	0.015384683816
0	2679	21.451072656026	0.023350137701
0	2682	21.459069000554	0.015292296873
0	2685	21.467058956039	0.021743240042
0	2692	21.595492218031	0.007884658707
0	2697	21.626420289497	0.007859869751
0	2702	21.642609208745	0.007847533632
0	2709	21.651470112999	0.007840501792
0	2712	21.659303595542	0.011733283434
0	2718	21.712255873829	0.007791629564
0	2723	21.728278273762	0.007779506557
0	2729	21.807503706765	0.007717750827
0	2737	22.02080889586	0.007493844342
0	2743	22.063897389272	0.007425480004
0	2748	22.091317433118	0.007382408775
0	2756	22.150561111636	0.007292426294
0	2761	22.215959148813	0.007194244604
0	2766	22.240716504144	0.007158196135
0	2774	22.288397841495	0.007089325501
0	2779	22.295477129521	0.011798506337
0	2783	22.302546408455	0.008900075934
0	2791	22.330566480586	0.00798084597
0	2797	22.398696792429	0.008015573113
0	2802	22.421968850898	0.008028443629
0	2808	22.444725294489	0.008040431886
0	2813	22.490190716703	0.008064516129
0	2823	22.56520577657	0.008103727715
0	2826	22.573314197745	0.009006032438
0	2832	22.651287951247	0.00814995925
0	2837	22.66421549461	0.008157557394
0	2842	22.71453977213	0.008184262832
0	2849	22.798897162103	0.008230452675
0	2854	22.870426598898	0.008270321361
0	2859	22.885783779747	0.008279124778
0	2865	22.936625132204	0.008307619274
0	2870	22.963048728495	0.008322434907
0	2876	23.016308473107	0.008352225271
0	2884	23.153591197922	0.008213070515
0	2889	23.161790799656	0.01638872574
0	2892	23.169977934159	0.008458563727
0	2899	23.207552700607	0.008126306013
0	2902	23.215666761115	0.008390716508
0	2907	23.225208615025	0.008099039685
0	2912	23.285650615876	0.008004574042
0	2918	23.359046532148	0.008104665972
0	2926	23.401209847678	0.008409418549
0	2930	23.409683398096	0.015615782011
0	2940	23.449828402139	0.008475602373
0	2943	23.458301952557	0.0135421758
0	2948	23.466773452012	0.019866689849
0	2951	23.475242901498	0.008590292125
0	2957	23.502116191583	0.008462282398
0	2966	23.545949032642	0.008450024143
0	2969	23.554397017194	0.016684230302
0	2974	23.56284296314	0.019830045007
0	2977	23.571286871463	0.014120286715
0	2983	23.600452416647	0.008435767655
0	2989	23.661654513573	0.008419533317
0	3003	23.742354877068	0.008398320336
0	3006	23.750751182694	0.013618835395
0	3011	23.759145474576	0.018364709148
0	3014	23.767537753679	0.009300847816
0	3022	23.857892663745	0.008368200837
0	3035	24.078604773379	0.007465870307
0	3040	24.137373706443	0.007631091246
0	3050	24.315327799458	0.008177570093
0	3053	24.323533168113	0.009754484027
0	3058	24.354963438928	0.008310578179
0	3063	24.393230789838	0.008442889881
0	3069	24.459893350087	0.0085731782
0	3075	24.552928633215	0.008570029383
0	3080	24.603000379773	0.008568980291
0	3087	24.651030356051	0.008567931457
0	3092	24.682368548886	0.008566882878
0	3104	24.942693968761	0.008559550012
0	3111	25.039959595512	0.008556411197
0	3118	25.060295568669	0.008555365436
0	3123	25.069763979878	0.008555365436
0	3130	25.16274527442	0.008553274682
0	3135	25.250880897834	0.008550140467
0	3142	25.276948033337	0.008550140467
0	3146	25.285497129575	0.014950233125
0	3153	25.376206104361	0.008547008547
0	3160	25.47705587573	0.008543878921
0	3168	25.556615524547	0.008541793777
0	3178	25.612964544131	0.008540751586
0	3181	25.621504253781	0.011492441507
0	3186	25.648073300368	0.00853970965
0	3191	25.710901069891	0.00853762654
0	3196	25.766570603333	0.008535544446
0	3203	25.855128154416	0.008533463367
0	3208	25.885970553427	0.008532423208
0	3213	25.936331353549	0.008531383303
0	3219	26.012036393499	0.008529304252
0	3226	26.0328363204	0.008528265107
0	3231	26.041364585507	0.011035976083
0	3235	26.049892850614	0.0089489113
0	3241	26.083873747837	0.007449978714
0	3246	26.125764302775	0.0075610283
0	3254	26.228639818972	0.007849293564
0	3257	26.236512063686	0.014351340449
0	3265	26.361645044286	0.00825569053
0	3271	26.369927107703	0.013816263522
0	3274	26.378235713044	0.009680236566
0	3281	26.461859682589	0.008590011044
0	3286	26.476423536324	0.00864090853
0	3292	26.562942669029	0.008513743615
0	3300	26.679813069731	0.008207292766
0	3303	26.687999246786	0.015228862711
0	3308	26.702116801578	0.008150908244
0	3315	26.71243945082	0.008125362739
0	3318	26.720544116792	0.013302334944
0	3323	26.771317129444	0.007981755986
0	3329	26.833913158702	0.007834359261
0	3341	26.953141294492	0.007569204152
0	3346	26.97984195825	0.007512341704
0	3352	27.042634681111	0.007380851961
0	3357	27.108964183257	0.007247877407
0	3364	27.18680042867	0.007278777165
0	3371	27.21924218165	0.007303077726
0	3374	27.226550596768	0.009974037652
0	3382	27.258622651499	0.007332146224
0	3387	27.286883520077	0.007353713625
0	3393	27.313930279824	0.007373854419
0	3400	27.436916760497	0.007468259895
0	3405	27.45408900483	0.007481829842
0	3410	27.526374267575	0.007538229593
0	3419	27.641953089785	0.007631091246
0	3424	27.653473149551	0.00764025322
0	3430	27.708768215281	0.007685551164
0	3435	27.721963412433	0.007696536559
0	3442	27.799783412052	0.007761392616
0	3451	27.913245359286	0.007858105074
0	3458	28.025728150682	0.007297748123
0	3463	28.093760701511	0.007376185458
0	3468	28.108174542145	0.007393324884
0	3473	28.135289296419	0.007424692406
0	3479	28.261616440392	0.007577397705
0	3487	28.446149835781	0.007779506557
0	3492	28.545426752699	0.007811628166
0	3499	28.726239085003	0.007869589657
0	3506	28.761520222026	0.007881107859
0	3509	28.769403992721	0.01284632559
0	3514	28.806409051465	0.007896221094
0	3523	28.845234085304	0.00790871088
0	3526	28.853145477709	0.009715550123
0	3532	28.950854270902	0.007943713118
0	3540	29.022676351295	0.007967220578
0	3546	29.067574319426	0.007982666211
0	3551	29.077088186147	0.007985398129
0	3560	29.190808831948	0.008023842274
0	3567	29.228982621961	0.00803673938
0	3577	29.268735513778	0.008049678013
0	3580	29.276787969777	0.009343365442
0	3589	29.367863087123	0.008084074373
0	3592	29.375949963278	0.012385336633
0	3598	29.421781711215	0.008102789675
0	3605	29.468753582746	0.008118765948
0	3612	29.547097688154	0.008146165484
0	3620	29.580894401136	0.008157557394
0	3623	29.589054811488	0.014093924706
0	3629	29.63930572967	0.008177570093
0	3635	29.655220828623	0.008183306056
0	3643	29.733484844999	0.008211143695
0	3651	29.783058610985	0.008228517691
0	3661	29.985948103845	0.00830170778
0	3671	30.03139298909	0.008317490494
0	3675	30.039713445526	0.012246597266
0	3684	30.238547840263	0.007924827352
0	3691	30.288331424019	0.007831729693
0	3696	30.336218926824	0.007744219493
0	3704	30.379157926695	0.007667031763
0	3709	30.421413813597	0.007592190889
0	3715	30.473907231577	0.007502679528
0	3722	30.535689602106	0.007398795053
0	3728	30.574798490072	0.007334450964
0	3733	30.594158055761	0.007303077726
0	3739	30.634843871326	0.007238134629
0	3745	30.66166061257	0.007196463452
0	3753	30.763176985192	0.007254637786
0	3758	30.805531339464	0.007282563462
0	3763	30.835626151853	0.007302315877
0	3768	30.845494650045	0.00730917824
0	3774	30.883803190645	0.007334450964
0	3780	30.943918354103	0.007375408282
0	3787	31.002673027315	0.007415254237
0	3796	31.032570716105	0.007435734013
0	3799	31.040011983246	0.010189206995
0	3804	31.063867983104	0.007457121551
0	3809	31.092163015636	0.007477034822
0	3821	31.262438398703	0.007597134795
0	3826	31.270041309532	0.009813310917
0	3831	31.277650005184	0.014646001828
0	3835	31.285263666267	0.014845688374
0	3846	31.342159575392	0.007655293088
0	3849	31.349820733321	0.015210059868
0	3854	31.391748632713	0.007691462477
0	3859	31.40352548067	0.007700770077
0	3864	31.429806438571	0.007719453022
0	3869	31.442023785657	0.00772882853
0	3875	31.451022822825	0.007735661399
0	3880	31.487359056825	0.007763114118
0	3885	31.509989573499	0.007779506557
0	3892	31.552244418883	0.007811628166
0	3897	31.567111596272	0.007822977202
0	3903	31.654031145915	0.007889990983
0	3909	31.700808811643	0.007926622127
0	3914	31.734180757391	0.007952738014
0	3920	31.890510166821	0.008077544426
0	3930	32.001630938956	0.008168981211
0	3938	32.108261180923	0.007761392616
0	3944	32.133339555713	0.007708402158
0	3950	32.182346663378	0.007606215365
0	3958	32.250457165262	0.007468259895
0	3964	32.305852607865	0.007359899064
0	3969	32.346008718981	0.007283321194
0	3980	32.459530563941	0.007075710098
0	3986	32.508754374663	0.007414468806
0	3994	32.566449190697	0.007860752386
0	4000	32.582343524474	0.007992692396
0	4005	32.616414092239	0.008291873964
0	4013	32.755078543092	0.008250825083
0	4020	32.824271708086	0.008165169719
0	4026	32.897592876226	0.008077544426
0	4033	32.911286382105	0.008060801474
0	4038	32.919337911896	0.00824483155
0	4041	32.927380191308	0.015791824743
0	4048	32.958142198195	0.008005489478
0	4051	32.966138542723	0.011665509992
0	4056	33.235637843426	0.007693998681
0	4064	33.270778487625	0.007656130373
0	4067	33.278426253385	0.012788873653
0	4072	33.307202737004	0.007617803896
0	4077	33.325219288017	0.007598784195
0	4083	33.376058739778	0.00754554274
0	4090	33.443534271911	0.007510729614
0	4100	33.486353794664	0.007557762902
0	4103	33.493920544205	0.013116659564
0	4106	33.501495481982	0.016808387883
0	4112	33.560982346102	0.007641921397
0	4117	33.586242419627	0.007671232877
0	4122	33.628889409043	0.007720304401
0	4127	33.653328664286	0.007749363445
0	4132	33.719190185801	0.007827351001
0	4137	33.739888048761	0.007851934941
0	4142	33.779954772513	0.007900677201
0	4147	33.817423350037	0.007946418436
0	4155	33.957726639577	0.008073817762
0	4160	33.995792426421	0.008081274532
0	4165	34.017059276728	0.008085008085
0	4170	34.055741827923	0.008092485549
0	4176	34.098471184489	0.008100914246
0	4185	34.161780686169	0.008113120074
0	4188	34.169895687328	0.013622387992
0	4193	34.19073754853	0.008118765948
0	4198	34.231054305315	0.008127249507
0	4205	34.276977265739	0.008135750814
0	4213	34.304166997318	0.008141428239
0	4216	34.312310319794	0.014469279031
0	4225	34.509961233849	0.007914970602
0	4230	34.536556767905	0.00782122905
0	4240	34.681657047126	0.007345225603
0	4249	34.804282981661	0.00702106319
0	4254	34.81172771493	0.007024586051
0	4261	34.922794648591	0.007076425394
0	4264	34.929874652637	0.012031110931
0	4273	35.021707968661	0.007123956849
0	4276	35.02883555241	0.007821501067
0	4281	35.048043518134	0.007137030995
0	4288	35.058754521524	0.007142128354
0	4292	35.065900295309	0.009778337985
0	4297	35.128059788999	0.007175807278
0	4302	35.149049262217	0.007186120522
0	4309	35.188329200599	0.007205352548
0	4312	35.195538263421	0.014110642336
0	4319	35.226930174879	0.00722468779
0	4322	35.234158592888	0.011837603617
0	4327	35.260793291072	0.007241129616
0	4336	35.416422881906	0.007319878699
0	4340	35.423746589795	0.014307750283
0	4345	35.492938725424	0.007359125315
0	4350	35.517868968614	0.007371524853
0	4355	35.556688561058	0.007391763464
0	4369	35.899271675876	0.007574118156
0	4384	36.203806348566	0.00754391637
0	4391	36.289849005975	0.007765697803
0	4399	36.399648591895	0.007756232687
0	4407	36.442170548274	0.007745933385
0	4412	36.449914767767	0.011169101195
0	4415	36.457657274127	0.007975007352
0	4421	36.469887618683	0.007739082366
0	4434	36.596438471004	0.007709251101
0	4441	36.691643995593	0.007686395081
0	4447	36.719232413918	0.00767964893
0	4457	36.826949554193	0.007653619068
0	4462	36.875221950673	0.007635253054
0	4468	36.90801699588	0.00762195122
0	4477	36.919364633023	0.007617803896
0	4483	36.932246699135	0.007612833061
0	4488	36.952118993753	0.007605388961
0	4495	37.025087945031	0.007577397705
0	4502	37.046232201502	0.007569204152
0	4505	37.053798133192	0.011998067224
0	4510	37.074464483928	0.007558578987
0	4517	37.083722795334	0.007554500324
0	4520	37.091274850572	0.013982418469
0	4525	37.102878021309	0.007547169811
0	4532	37.15684928005	0.00752688172
0	4537	37.164373734527	0.013159131531
0	4541	37.171894955114	0.011364474558
0	4560	37.488270465184	0.007479431563
0	4567	37.53449285797	0.007473043664
0	4573	37.584969507052	0.007466666667
0	4580	37.633287154915	0.007460300544
0	4587	37.660983275013	0.007456327226
0	4595	37.720826778973	0.00744918591
0	4602	37.748628374749	0.00744522442
0	4607	37.765886699376	0.007442849548
0	4613	37.802944709181	0.007438104346
0	4619	37.82021015691	0.007435734013
0	4625	37.887554616472	0.007427843803
0	4633	37.957978196755	0.007418397626
0	4644	38.045777501881	0.007515567962
0	4650	38.070394065968	0.007562662057
0	4656	38.099761277674	0.007620291748
0	4662	38.108048959504	0.007636919049
0	4668	38.141711322695	0.007704160247
0	4682	38.259511931017	0.007671232877
0	4691	38.276385449116	0.007562662057
0	4695	38.283901017078	0.014419772831
0	4698	38.284488801311	0.013606221445
0	4710	38.386879429372	0.007206094297
0	4713	38.394091463166	0.008983998264
0	4718	38.409615103809	0.007223942208
0	4723	38.440531194105	0.007247877407
0	4729	38.464599946287	0.00726744186
0	4735	38.488306593297	0.007285595337
0	4744	38.680228074734	0.007442058261
0	4750	38.728396670877	0.007481829842
0	4755	38.75711573155	0.007505897491
0	4764	38.867036995562	0.007599609163
0	4772	38.930010119554	0.007654455987
0	4778	38.990744622286	0.007708402158
0	4785	39.017352439451	0.007732243455
0	4789	39.025091521817	0.013221653312
0	4799	39.142116891076	0.00784577449
0	4806	39.150604037887	0.007852815795
0	4817	39.214220894011	0.007912286651
0	4820	39.222140341912	0.009349227521
0	4827	39.253503125386	0.007949125596
0	4835	39.315812344008	0.008009153318
0	4839	39.323828835075	0.01162659836
0	4844	39.343743204465	0.008035816783
0	4849	39.366364465351	0.008058017728
0	4856	39.407889764744	0.00809810273
0	4864	39.441649430972	0.008131025671
0	4875	39.574803114752	0.007875787579
0	4880	39.591452452622	0.007830853563
0	4886	39.663339453054	0.00764442503
0	4895	39.701491078934	0.007548797584
0	4900	39.73325768362	0.007470651014
0	4907	39.744993128474	0.007442058261
0	4910	39.75241782088	0.012610855822
0	4915	39.781256504475	0.007356031946
0	4920	39.817088613117	0.007272727273
0	4925	39.854543585351	0.00718833436
0	4932	39.909280623547	0.007067137809
0	4942	39.965226827908	0.007068565081
0	4945	39.972296820838	0.009489956517
0	4953	40.038290408693	0.007087172218
0	4958	40.053059910077	0.00709076175
0	4965	40.118538995254	0.007108042242
0	4970	40.126922491448	0.007110208228
0	4976	40.154521440037	0.007116714111
0	4981	40.193949570188	0.007127583749
0	4987	40.224393482706	0.007135575943
0	4995	40.382313098246	0.007176542957
0	5001	40.485718880538	0.007203869507
0	5007	40.525782338967	0.007215007215
0	5013	40.54832093048	0.007220961419
0	5022	40.610798287141	0.00723738627
0	5028	40.6777930946	0.007255389718
0	5036	40.74928154028	0.007274994804
0	5046	41.005733562074	0.00736377025
0	5051	41.024780345193	0.007370748657
0	5060	41.154214558946	0.00741918389
0	5063	41.161636102627	0.01101375333
0	5069	41.197898747136	0.007435734013
0	5074	41.235551065161	0.007449978714
0	5081	41.253757599376	0.007456327226
0	5084	41.261217104917	0.007766021064
0	5092	41.309613343204	0.007477833565
0	5095	41.317094373449	0.010265717038
0	5101	41.371978940682	0.007501875469
0	5106	41.381698025283	0.007505092742
0	5112	41.419141542186	0.007519604684
0	5117	41.464553390838	0.007537417896
0	5122	41.485449279342	0.00754554274
0	5128	41.525859466431	0.0075610283
0	5135	41.556259361334	0.007573298713
0	5142	41.612632675671	0.007595486111
0	5145	41.620230635076	0.010926947433
0	5150	41.676944502309	0.007620291748
0	5156	41.694166868826	0.007627765065
0	5164	41.766109826245	0.007841380083
0	5167	41.7741641353	0.008069035814
0	5173	41.788865491854	0.008473550418
0	5179	41.843821899089	0.008527226215
0	5184	41.873426848963	0.008544921875
0	5196	42.032759445838	0.007881995271
0	5201	42.040617550912	0.010621574363
0	5204	42.048451910173	0.009902596196
0	5217	42.174832409517	0.007519604684
0	5220	42.182349591648	0.013601683663
0	5223	42.18986515961	0.019086871944
0	5228	42.245895522702	0.007501875469
0	5235	42.355652920949	0.007473841555
0	5240	42.377508658272	0.007469056765
0	5246	42.385921280321	0.007466666667
0	5254	42.421170104679	0.007457916045
0	5259	42.428626431905	0.00995205305
0	5263	42.436081170989	0.01425724253
0	5270	42.578272513664	0.00741918389
0	5275	42.58805660423	0.007416825599
0	5280	42.603736340213	0.007413683542
0	5286	42.663176694216	0.007398795053
0	5291	42.682015955194	0.007394105841
0	5297	42.728475180912	0.007383187427
0	5302	42.748233398751	0.007378517972
0	5308	42.84421634195	0.00735525901
0	5315	42.863698730012	0.007350624803
0	5320	43.028397774795	0.007311468561
0	5331	43.18876313653	0.007273482959
0	5337	43.211042143575	0.007268196449
0	5344	43.251674709741	0.007259151716
0	5349	43.300075346161	0.007247877407
0	5354	43.322338332833	0.007242628039
0	5359	43.352011997099	0.007235142119
0	5364	43.359795424159	0.007233646791
0	5371	43.395014140905	0.007232152082
0	5377	43.443090403091	0.007290907197
0	5382	43.467959734447	0.007322175732
0	5388	43.507482676882	0.007371524853
0	5395	43.69720728149	0.007618633
0	5401	43.732048472748	0.007666192093
0	5406	43.780976399272	0.007733952049
0	5416	43.935312946537	0.007953641632
0	5419	43.943278353911	0.008268166344
0	5427	44.005722683549	0.008058945429
0	5432	44.064698732326	0.007213520198
0	5437	44.074054249127	0.007215750954
0	5446	44.243652914855	0.008101851852
0	5453	44.297859297436	0.008186177055
0	5462	44.410084561909	0.007793364507
0	5470	44.453574390516	0.008055235903
0	5475	44.494317276812	0.007975390224
0	5482	44.511012962984	0.007942811755
0	5485	44.518940482803	0.015129125534
0	5494	44.604082860939	0.007776049767
0	5501	44.686397950379	0.008213070515
0	5508	44.716447561372	0.008493084203
0	5515	44.85067037952	0.008405379443
0	5527	44.951096791825	0.00834028357
0	5532	45.017253881136	0.008297771456
0	5537	45.05021718939	0.008277166844
0	5542	45.078213809022	0.008259587021
0	5547	45.087139665939	0.008253743662
0	5553	45.111094761365	0.008239171375
0	5558	45.128675260067	0.008228517691
0	5563	45.196880068097	0.008186177055
0	5572	45.247345368766	0.008154706431
0	5575	45.255495328016	0.01059855429
0	5580	45.265577182243	0.008144269924
0	5589	45.34184502496	0.007626933973
0	5595	45.420030583253	0.007203869507
0	5604	45.454650332774	0.007285595337
0	5609	45.4619534105	0.007883105414
0	5612	45.469274054717	0.011568816052
0	5618	45.515052180281	0.007432575918
0	5626	45.601859586181	0.007646930304
0	5631	45.659197763653	0.007758811793
0	5636	45.684102935347	0.007809013833
0	5643	45.736204339938	0.007914970602
0	5648	45.744136351269	0.010201706689
0	5653	45.752084574273	0.013045119697
0	5656	45.760049075354	0.011463794603
0	5663	45.775248119895	0.007997258083
0	5672	45.873564459294	0.008210180624
0	5678	45.881792976985	0.013325729945
0	5681	45.890039913837	0.012090745953
0	5687	45.984373616897	0.008463305525
0	5695	46.061058543191	0.008466376391
0	5700	46.115549224308	0.008316502317
0	5709	46.196848107964	0.008103727715
0	5712	46.204931248842	0.014523064062
0	5715	46.212993907216	0.018061134356
0	5720	46.341904971668	0.007748505645
0	5726	46.370419342923	0.007682177349
0	5732	46.388052786885	0.007653619068
0	5738	46.465459577157	0.007699923001
0	5750	46.678673165704	0.007828226348
0	5758	46.712367429643	0.007849293564
0	5761	46.72022112649	0.012755718041
0	5768	46.81588026651	0.007913181099
0	5773	46.861959181093	0.007941910597
0	5778	46.885853844225	0.007957258156
0	5783	46.915925446246	0.007976298997
0	5788	46.965442733978	0.008008237044
0	5795	47.037645059515	0.008055235903
0	5800	47.049661897919	0.008062658374
0	5807	47.144111989417	0.008085942012
0	5815	47.236454005227	0.008088745089
0	5820	47.252139757572	0.00808967988
0	5830	47.343571188595	0.008092485549
0	5838	47.505611774062	0.008097165992
0	5845	47.547330102603	0.008099039685
0	5853	47.630030744968	0.008100914246
0	5859	47.649542415775	0.008101851852
0	5864	47.663799814336	0.008101851852
0	5869	47.685153184652	0.008102789675
0	5876	47.805278060498	0.008106543138
0	5883	47.850433257985	0.008107482048
0	5891	47.886834465152	0.008109360519
0	5894	47.894943825671	0.009346966547
0	5899	47.930465710879	0.008110300081
0	5905	47.966182416844	0.008111239861
0	5915	48.031561494486	0.007137758744
0	5920	48.049071793141	0.00713994288
0	5928	48.156079851364	0.007153806847
0	5933	48.176983390387	0.007161857991
0	5939	48.228762291989	0.007184645386
0	5947	48.24818894453	0.007192766132
0	5950	48.255385407982	0.008983415952
0	5958	48.343587573416	0.007235142119
0	5964	48.406604700176	0.007263671267
0	5970	48.416258169561	0.007268196449
0	5975	48.446705677083	0.007281805888
0	5981	48.460200416288	0.007287870901
0	5986	48.485495400652	0.007299270073
0	5992	48.494483954376	0.007303077726
0	6000	48.514058949347	0.00731223232
0	6004	48.518326723302	0.010819208886
0	6010	48.547048029568	0.007326774126
0	6016	48.574782964318	0.007339834329
0	6023	48.67570283606	0.007386303683
0	6032	48.768624089464	0.007429420505
0	6041	48.910949640041	0.007522028799
0	6052	49.02787557054	0.007924827352
0	6057	49.044530032628	0.007986309184
0	6064	49.078064587036	0.008111239861
0	6076	49.171242636616	0.008132915069
0	6084	49.198111803141	0.007646930304
0	6089	49.232047100464	0.007669551879
0	6101	49.333425973003	0.007737371504
0	6107	49.34910261019	0.007748505645
0	6112	49.38671881858	0.007773459189
0	6117	49.401411861645	0.007783831869
0	6125	49.441216297811	0.007810756528
0	6135	49.492921728853	0.007846653963
0	6141	49.545351750955	0.007883770695
0	6149	49.571359136745	0.007901569026
0	6152	49.579266060951	0.011660455736
0	6161	49.665267473567	0.00796812749
0	6172	49.756497552297	0.008033972225
0	6181	49.785104059966	0.008055235903
0	6184	49.79316486144	0.010527931637
0	6192	49.881472279515	0.008126306013
0	6200	49.919499393724	0.008154706431
0	6206	49.958550242938	0.008184262832
0	6216	50.088812626903	0.00825569053
0	6225	50.198517379509	0.00782122905
0	6233	50.238153491922	0.007675438596
0	6239	50.312546583455	0.007416039835
0	6244	50.333419853876	0.007345996432
0	6250	50.349548281076	0.00729318608
0	6259	50.414253322252	0.007151614221
0	6264	50.422545340845	0.007164056903
0	6271	50.538364088432	0.007343684431
0	6277	50.629815089165	0.00749224018
0	6282	50.677781620379	0.007572479446
0	6293	50.745127965792	0.007688083471
0	6298	50.752829583132	0.012514275077
0	6301	50.760544782074	0.014780255574
0	6308	50.859134787356	0.007851054284
0	6317	50.886962379353	0.007844016136
0	6320	50.893696102795	0.01367068908
0	6326	50.944401105481	0.007828226348
0	6332	51.001082728259	0.0078125
0	6337	51.029934990071	0.007804660497
0	6346	51.145056061179	0.007773459189
0	6351	51.164017119505	0.007768283209
0	6356	51.172580384041	0.007765697803
0	6368	51.271277578408	0.007739082366
0	6374	51.308823634709	0.00772882853
0	6382	51.374381905505	0.007710949548
0	6387	51.435414049825	0.007694844454
0	6392	51.443649890479	0.007693153094
0	6397	51.453296967161	0.007690617447
0	6402	51.463354201441	0.007688083471
0	6407	51.477414945129	0.007683863886
0	6415	51.539222649566	0.007667871618
0	6418	51.546888002172	0.011888759588
0	6425	51.598087703746	0.00765194578
0	6430	51.60674352533	0.00764943722
0	6439	51.635551780343	0.007641921397
0	6442	51.643192033563	0.008994825105
0	6451	51.676194100223	0.007631923245
0	6457	51.693358888466	0.007626933973
0	6466	51.833543300663	0.00759054435
0	6475	51.902954768414	0.007572479446
0	6488	52.096029310763	0.007177278786
0	6494	52.155182610803	0.007173601148
0	6500	52.20906879226	0.007169927276
0	6507	52.28096533876	0.007165523595
0	6512	52.306846748739	0.007164056903
0	6517	52.360734904364	0.00716112532
0	6527	52.42690732123	0.00715673244
0	6534	52.505953765432	0.007152344947
0	6540	52.539566096664	0.007150153218
0	6545	52.54762995706	0.007149422939
0	6551	52.617302785601	0.007145044401
0	6556	52.657707583701	0.007142857143
0	6563	52.666230926621	0.007142128354
0	6566	52.673372326335	0.013198860024
0	6571	52.683826879637	0.007141399714
0	6578	52.7176553162	0.007139214686
0	6583	52.730510334359	0.007138486641
0	6589	52.823215827136	0.007135575943
0	6595	53.009687510629	0.007152344947
0	6600	53.04165058152	0.007155269345
0	6607	53.094127747627	0.007159660428
0	6612	53.111648662222	0.00716112532
0	6617	53.124167876609	0.007162590811
0	6622	53.140224736629	0.007164056903
0	6628	53.153982165628	0.007164790174
0	6634	53.178991044808	0.007167724759
0	6641	53.225427800056	0.007171396373
0	6647	53.348006433614	0.007182433819
0	6653	53.450814228759	0.007192027124
0	6664	53.633886084657	0.007208320461
0	6667	53.641095147479	0.008491588078
0	6673	53.708811677762	0.007215750954
0	6680	53.823796883742	0.007226179416
0	6688	54.042958718313	0.007246376812
0	6695	54.069065636965	0.007248627938
0	6704	54.140988887308	0.007347538575
0	6709	54.150084928157	0.007382408775
0	6714	54.166871443787	0.007448393275
0	6719	54.188867409569	0.007536606374
0	6727	54.217538997631	0.007654455987
0	6730	54.225226236814	0.00870309717
0	6739	54.288701460622	0.007964501081
0	6744	54.304498910107	0.00803673938
0	6751	54.36654295124	0.008300723349
0	6756	54.420290476847	0.008286965787
0	6763	54.47695637309	0.008273253753
0	6768	54.510998890768	0.00826446281
0	6774	54.544451698795	0.008256664308
0	6781	54.601986935402	0.008242081714
0	6786	54.610227076662	0.008758645484
0	6789	54.61846527838	0.011514685986
0	6798	54.775644222414	0.008199601734
0	6804	54.900869009093	0.008168981211
0	6809	54.913297119015	0.008166122259
0	6816	54.939072054024	0.008160410352
0	6823	55.133109987381	0.008113120074
0	6833	55.17943558786	0.008102789675
0	6836	55.187536502106	0.009388442165
0	6839	55.195634604836	0.017104212231
0	6847	55.383043188208	0.008065445328
0	6854	55.416582403674	0.008063587144
0	6860	55.440171026536	0.008062658374
0	6866	55.584296641563	0.008053382421
0	6871	55.667575658486	0.008048752443
0	6882	55.699004193711	0.008046901943
0	6885	55.707050170722	0.015726936693
0	6888	55.715096147733	0.016694016847
0	6894	55.735886612827	0.008045052293
0	6899	55.755082087456	0.008043203493
0	6907	55.769394768493	0.008042279412
0	6910	55.777437047905	0.008694167005
0	6915	55.836075865217	0.008038585209
0	6920	55.891601028705	0.008035816783
0	6925	55.945984926535	0.008032128514
0	6933	56.041391113187	0.007291666667
0	6940	56.072402739222	0.007316053512
0	6944	56.079724914954	0.012298650167
0	6951	56.13611094384	0.007367645511
0	6954	56.143484798259	0.013649526505
0	6961	56.328796756171	0.00752769115
0	6968	56.341654685771	0.007539041465
0	6972	56.349200228511	0.010190292499
0	6977	56.358054967401	0.007552870091
0	6984	56.399445049689	0.007588898526
0	6987	56.4070405358	0.014971198983
0	6992	56.456051666706	0.007637752319
0	6997	56.477058209888	0.007656130373
0	7003	56.527252309228	0.007700770077
0	7008	56.536071757014	0.007708402158
0	7013	56.551293031924	0.007722007722
0	7018	56.634319466551	0.007796836712
0	7023	56.738368886764	0.007892659826
0	7028	56.765850323959	0.007918552036
0	7033	56.779950848536	0.007932011331
0	7039	56.793480933446	0.007944614686
0	7045	56.886784549386	0.008044127787
0	7052	57.015466526854	0.008293838863
0	7059	57.047343594998	0.008358208955
0	7068	57.06455069294	0.008393285372
0	7071	57.072961121872	0.009082448226
0	7081	57.255434531422	0.008221752408
0	7088	57.341859968108	0.007746790615
0	7094	57.34956752151	0.00807114727
0	7097	57.357236233166	0.011669469131
0	7106	57.439614590385	0.007470651014
0	7114	57.518733933459	0.00735525901
0	7123	57.594544391229	0.007278020378
0	7128	57.640380943693	0.007298509019
0	7133	57.689618181327	0.007320644217
0	7142	57.794306280355	0.007368421053
0	7149	57.825182809099	0.007382408775
0	7155	57.906499882898	0.00741997032
0	7161	57.932075696091	0.007431786814
0	7168	57.957793330761	0.007443641004
0	7178	58.125091764766	0.007522837184
0	7181	58.132617837231	0.0077865127
0	7188	58.183275251497	0.007534172855
0	7193	58.19869506973	0.007478632479
0	7202	58.320318680627	0.007068565081
0	7206	58.327364478312	0.014048192431
0	7212	58.359506215595	0.007036590269
0	7217	58.412488709846	0.007039420756
0	7225	58.439427214252	0.007040836854
0	7228	58.446468759368	0.009612813396
0	7233	58.456045176879	0.007041545116
0	7239	58.465925071679	0.007042253521
0	7245	58.496526570056	0.007044379591
0	7251	58.510577600612	0.007045088567
0	7256	58.656027195019	0.007052896725
0	7261	58.682081041897	0.007054318251
0	7267	58.719042800448	0.007056451613
0	7272	58.777092015971	0.007060010086
0	7279	58.823611528103	0.007062146893
0	7285	58.853005080366	0.007064284993
0	7290	58.908801937224	0.007067137809
0	7296	58.943839922655	0.007069278934
0	7303	59.020246402435	0.007073565077
0	7306	59.027319967512	0.009255032176
0	7312	59.101408903343	0.007101552196
0	7317	59.122063399293	0.007118161481
0	7324	59.150812464089	0.007140671223
0	7329	59.162397654356	0.007150153218
0	7335	59.199824077328	0.007179487179
0	7342	59.267067085698	0.007234394378
0	7351	59.297017349057	0.007259151716
0	7354	59.30428177413	0.013633062758
0	7359	59.387977658261	0.007334450964
0	7368	59.43598110733	0.007378517972
0	7373	59.574271106124	0.007552870091
0	7379	59.634196190936	0.007630259429
0	7385	59.67578972732	0.007685551164
0	7391	59.710960250099	0.007732243455
0	7400	59.7227077832	0.007748505645
0	7403	59.730466594993	0.013232468881
0	7408	59.738236602763	0.016560733418
0	7411	59.746016973998	0.009884112201
0	7417	59.840998233341	0.007912286651
0	7422	59.854596054482	0.007931112622
0	7427	59.906592761006	0.008005489478
0	7432	59.922198553105	0.008028443629
0	7439	60.023224686657	0.007248627938
0	7444	60.038480213729	0.007232899359
0	7452	60.199938694412	0.007066424389
0	7461	60.380290830278	0.007346767422
0	7467	60.427357342786	0.007453945267
0	7473	60.505852459349	0.007639419404
0	7479	60.568584156793	0.007794232268
0	7487	60.679654371159	0.008085008085
0	7492	60.693993283111	0.008123476848
0	7497	60.756669904129	0.008298755187
0	7503	60.790435825031	0.008396305626
0	7508	60.811781747388	0.008459214502
0	7518	60.930634739421	0.008384237633
0	7527	61.07266271351	0.008172796264
0	7533	61.10327723171	0.008128193219
0	7541	61.136356861693	0.008081274532
0	7546	61.169983186504	0.008033050264
0	7552	61.180224431279	0.008019246191
0	7558	61.199319384033	0.007992692396
0	7563	61.264603167445	0.007902461052
0	7570	61.354600075981	0.007782101167
0	7575	61.369588551846	0.007762253271
0	7582	61.429233423952	0.007684707432
0	7589	61.515643350046	0.007574937777
0	7595	61.571962195793	0.007505092742
0	7601	61.639326873567	0.007423904974
0	7607	61.695389597496	0.007356805045
0	7616	61.712508942846	0.007337526205
0	7619	61.719863429083	0.011155418562
0	7625	61.746902657023	0.007418397626
0	7631	61.813923891698	0.007581501137
0	7638	61.876864421689	0.007741650077
0	7645	61.962412820947	0.007969941933
0	7651	62.017701586047	0.008125362739
0	7660	62.141702790581	0.008338296605
0	7667	62.179056626283	0.008303677343
0	7672	62.187353414241	0.012572352732
0	7675	62.195642342601	0.008812264232
0	7680	62.230664908744	0.008257638315
0	7687	62.250253628485	0.008239171375
0	7690	62.258486017054	0.008641560972
0	7696	62.317362203833	0.008179481187
0	7701	62.330411612585	0.008168028005
0	7708	62.360915753097	0.008141428239
0	7711	62.369049613195	0.011420706487
0	7717	62.428978734368	0.008082207597
0	7722	62.467482001535	0.008048752443
0	7727	62.525052262533	0.008
0	7733	62.636771188178	0.007906031172
0	7740	62.658729160618	0.007888212756
0	7747	62.667019507598	0.007881107859
0	7751	62.674894409162	0.010538060858
0	7756	62.707089632452	0.007848413499
0	7762	62.764138005589	0.007802050825
0	7767	62.812767522943	0.007763114118
0	7772	62.83471997434	0.007745076344
0	7779	62.984036918616	0.007628596338
0	7784	63.025621050069	0.007596310364
0	7793	63.07421425868	0.007559395248
0	7796	63.081767943799	0.008436786247
0	7802	63.127412575432	0.007519604684
0	7807	63.135298566874	0.007513148009
0	7812	63.143602205249	0.007507507508
0	7818	63.171149739006	0.007486631016
0	7823	63.195517040371	0.007469056765
0	7832	63.250814931511	0.007427843803
0	7840	63.279412879611	0.007446808511
0	7843	63.286880342807	0.008666448397
0	7849	63.314700659774	0.007544729468
0	7857	63.389375648704	0.007759671877
0	7863	63.42525174206	0.007867820614
0	7870	63.520866628542	0.008169934641
0	7875	63.54370868495	0.008245965367
0	7882	63.599732645629	0.00843780135
0	7888	63.660768813446	0.00843373494
0	7895	63.728788157248	0.007216494845
0	7901	63.807299802825	0.007299270073
0	7906	63.82093625357	0.007313760318
0	7913	63.83371422709	0.007327541087
0	7916	63.841049446623	0.009379898641
0	7921	63.85195450583	0.007347538575
0	7926	63.871935133471	0.007369196758
0	7938	64.064204575283	0.007091480093
0	7943	64.071294618836	0.007473985335
0	7946	64.078383944337	0.01318742388
0	7951	64.099216933512	0.007085737423
0	7957	64.137182937041	0.007079288026
0	7965	64.208762823206	0.007068565081
0	7968	64.215829961015	0.010812370805
0	7975	64.228584035387	0.007064997981
0	7978	64.23564832038	0.008466334336
0	7983	64.331073748846	0.007048635586
0	7988	64.376793572678	0.007041545116
0	7993	64.406953248633	0.007037297678
0	7998	64.417864279617	0.007035175879
0	8003	64.426694069702	0.007033762058
0	8008	64.477143047225	0.007025996186
0	8013	64.528535536286	0.007018247443
0	8020	64.574231480017	0.007010515774
0	8028	64.603351500859	0.007271216371
0	8038	64.769899668449	0.007721155967
0	8044	64.789819956127	0.007600434311
0	8051	64.85995473531	0.007975390224
0	8056	64.896589644853	0.008286965787
0	8066	64.97242810082	0.007777777778
0	8081	65.208035635108	0.007454739084
0	8085	65.215499913206	0.01003981758
0	8094	65.282704097725	0.007551240561
0	8100	65.322234868645	0.007603736693
0	8107	65.339632939886	0.007626103061
0	8112	65.36291763683	0.007641087218
0	8122	65.494168910096	0.007725416621
0	8129	65.520273790736	0.00774250636
0	8134	65.530457850543	0.007749363445
0	8143	65.682115115687	0.007177278786
0	8150	65.708373560468	0.007211290821
0	8153	65.715594521887	0.008306995168
0	8159	65.737845763875	0.007250129467
0	8164	65.790283370344	0.007320644217
0	8171	66.00294457793	0.007618633
0	8181	66.102269468888	0.007766559414
0	8184	66.110048110959	0.015318770903
0	8187	66.117838873341	0.017184720062
0	8193	66.16087919976	0.007838745801
0	8200	66.222423457486	0.007890880397
0	8205	66.25798578971	0.007922136713
0	8211	66.270415797049	0.007932910245
0	8216	66.278899250365	0.007940108893
0	8221	66.298049054913	0.007956353717
0	8227	66.349410711623	0.008001828989
0	8232	66.441036667914	0.008083140878
0	8240	66.52358716064	0.008157557394
0	8243	66.531752330359	0.014201097159
0	8250	66.598609720356	0.008226583617
0	8258	66.678383898321	0.00830170778
0	8261	66.686693489964	0.012571106357
0	8267	66.769064961048	0.008351228824
0	8272	66.847856362126	0.007881107859
0	8277	66.869392430851	0.007762253271
0	8282	66.890504088613	0.007648601399
0	8290	66.938991894807	0.007473841555
0	8297	67.034489099594	0.00724187875
0	8302	67.06985979341	0.007182433819
0	8308	67.111079602182	0.007114544161
0	8317	67.125959614271	0.007090043553
0	8320	67.133038902297	0.010003924845
0	8328	67.206783427115	0.007360672976
0	8335	67.275342057921	0.007643590304
0	8338	67.283018338215	0.014405837106
0	8344	67.317901636694	0.007829977629
0	8350	67.356632558251	0.007964501081
0	8356	67.386674324926	0.007984487282
0	8367	67.548791628786	0.008
0	8372	67.599491394936	0.007830853563
0	8379	67.644346608003	0.007686395081
0	8384	67.673578802344	0.007595486111
0	8392	67.692804838265	0.007536606374
0	8397	67.700318792752	0.013169345649
0	8400	67.707810231108	0.009357204605
0	8410	67.827795017329	0.00741918389
0	8418	67.994811926758	0.007453151618
0	8425	68.011707495247	0.007378517972
0	8432	68.054140564993	0.007395668251
0	8441	68.070526494164	0.0074019245
0	8446	68.077930767487	0.014340490478
0	8449	68.085338174894	0.019197748696
0	8452	68.09274871904	0.016949879492
0	8460	68.146415935208	0.007431786814
0	8465	68.170247129884	0.00744047619
0	8472	68.29038982272	0.007488232777
0	8477	68.320251616556	0.007500267867
0	8482	68.35134809671	0.007513148009
0	8489	68.373701586691	0.007522028799
0	8495	68.457869524437	0.007556131261
0	8502	68.585715524749	0.00760786871
0	8508	68.605659341581	0.00761614623
0	8514	68.624345188609	0.007626933973
0	8519	68.648657839789	0.007654455987
0	8526	68.734406216134	0.007753655295
0	8534	68.751672940198	0.007774322523
0	8540	68.858970936419	0.00790335328
0	8545	68.876465027177	0.007923930269
0	8550	68.903852483039	0.007958162801
0	8558	68.945099209871	0.008009153318
0	8561	68.953118456062	0.015714911965
0	8566	68.965160362111	0.008034894399
0	8573	68.98575464268	0.008060801474
0	8576	68.9938256677	0.012728798392
0	8582	69.122199516093	0.00823723229
0	8588	69.180880225225	0.008315514374
0	8594	69.274026026431	0.008442889881
0	8599	69.292507149215	0.008469449486
0	8606	69.333635917419	0.008588957055
0	8611	69.358474589224	0.00852514919
0	8617	69.412076419588	0.008272276058
0	8622	69.422337518522	0.008225616921
0	8632	69.520542552895	0.007804660497
0	8635	69.528315148942	0.013046015521
0	8640	69.545505142144	0.007704160247
0	8649	69.598563854015	0.007656130373
0	8655	69.618056604994	0.007691462477
0	8661	69.64561996705	0.007740793984
0	8666	69.696004428121	0.007833482543
0	8674	69.830964635434	0.008093421205
0	8685	69.874807210404	0.008181393174
0	8688	69.883005851772	0.015424749447
0	8691	69.891220850012	0.019275717001
0	8697	69.967438080725	0.008374207441
0	8706	69.994998432194	0.00843271895
0	8709	70.003449476502	0.015948103719
0	8714	70.011918925988	0.01777794888
0	8717	70.020406860995	0.016770337373
0	8725	70.045772741191	0.008543878921
0	8728	70.054335432322	0.016409935233
0	8734	70.085540757526	0.008549096238
0	8741	70.121128768079	0.008532423208
0	8746	70.143694595641	0.008523073177
0	8751	70.165509164272	0.008512708257
0	8756	70.199189877303	0.00849720806
0	8761	70.218343477669	0.008488964346
0	8767	70.277966304926	0.008462282398
0	8776	70.461126608402	0.008381226054
0	8779	70.46950382238	0.008805355226
0	8785	70.512200809081	0.00835920707
0	8790	70.530747563037	0.008351228824
0	8796	70.661108128566	0.008294821661
0	8803	70.693077540444	0.008281083639
0	8813	70.802923835254	0.008234325373
0	8818	70.85506222983	0.008212106992
0	8823	70.875796557131	0.008203445447
0	8830	70.942598517424	0.008175659893
0	8835	70.995576839279	0.008153756552
0	8841	71.013295176248	0.008109360519
0	8847	71.024066011647	0.008031206976
0	8852	71.055232746158	0.007814244251
0	8858	71.077828773201	0.007664513303
0	8863	71.09285577499	0.007568385771
0	8873	71.150318685352	0.007306126709
0	8876	71.157603522484	0.007966965653
0	8883	71.199872868819	0.008174705127
0	8890	71.212852561364	0.008156606852
0	8893	71.220997778958	0.011862900672
0	8904	71.387093774067	0.007922136713
0	8907	71.395005166472	0.01176547214
0	8912	71.476541528102	0.007806401249
0	8917	71.550151564856	0.007714348689
0	8923	71.599195839233	0.007654455987
0	8930	71.659498760493	0.007581501137
0	8935	71.675352549998	0.007562662057
0	8941	71.72757902054	0.007501071582
0	8951	71.804497153828	0.007412113511
0	8956	71.816957956123	0.007397231322
0	8963	71.988929248062	0.007175807278
0	8971	72.065613272696	0.007278020378
0	8976	72.073276682991	0.007288629738
0	8983	72.116347769636	0.007347538575
0	8988	72.123705347942	0.010047809865
0	8993	72.131072993453	0.009459047846
0	8996	72.138450733757	0.007939827951
0	9002	72.146986796905	0.007389422569
0	9008	72.260349606743	0.007449978714
0	9014	72.30884717955	0.007462686567
0	9019	72.324039853392	0.007466666667
0	9027	72.51555178845	0.007517989475
0	9032	72.554828846031	0.007528500753
0	9037	72.598944116622	0.007540665733
0	9046	72.77748715188	0.007588898526
0	9051	72.794981821352	0.007593838143
0	9061	72.933884987527	0.007632755425
0	9068	72.996859669176	0.007650273224
0	9074	73.03738232078	0.007661157929
0	9079	73.048744125625	0.007664513303
0	9084	73.083778227786	0.007674597084
0	9090	73.13506562172	0.007688927944
0	9096	73.155994325464	0.007899785577
0	9106	73.183185352922	0.008377213978
0	9109	73.191654802408	0.015720570044
0	9112	73.200012013487	0.022513448653
0	9118	73.218832494483	0.008116883117
0	9124	73.255062384177	0.008022003209
0	9129	73.2695929299	0.008022922636
0	9137	73.305009810529	0.008025682183
0	9140	73.313036412983	0.015743141941
0	9150	73.426806666201	0.008035816783
0	9153	73.434843405581	0.013573740604
0	9158	73.49135473601	0.008041355543
0	9165	73.608792632143	0.008051529791
0	9172	73.626901750245	0.008052455999
0	9175	73.634955132666	0.008064568317
0	9180	73.686751005123	0.008057090239
0	9185	73.697544180538	0.008058017728
0	9190	73.711930262635	0.008059873345
0	9195	73.747516541837	0.008062658374
0	9201	73.800608721809	0.008067304368
0	9208	73.847065863732	0.00807102502
0	9215	73.893064626183	0.008074749106
0	9218	73.901140306848	0.00816339103
0	9225	73.94871333245	0.008077544426
0	9230	73.970136520313	0.008070094535
0	9235	73.978917539723	0.008066374741
0	9242	74.189177781649	0.00799086758
0	9249	74.251166888446	0.00796812749
0	9256	74.328868267002	0.007941009643
0	9262	74.36743438305	0.007927519819
0	9267	74.379157580789	0.00792303339
0	9274	74.446932355671	0.007898894155
0	9287	74.609563482695	0.007843137255
0	9290	74.617403106393	0.013397810248
0	9293	74.625240096989	0.019572918527
0	9299	74.679513682428	0.007818608288
0	9304	74.700785153773	0.007811628166
0	9312	74.850783060543	0.007760532151
0	9323	75.109467192797	0.007673755755
0	9329	75.153505247262	0.007659481344
0	9337	75.194432026801	0.00764609503
0	9340	75.202075617105	0.007739882838
0	9345	75.244701623658	0.007629427793
0	9354	75.373361631355	0.007587253414
0	9362	75.492462200513	0.007549611734
0	9368	75.533011912348	0.007536606374
0	9375	75.598208410053	0.007515567962
0	9381	75.614449669753	0.007510729614
0	9386	75.654854529109	0.007497857755
0	9394	75.703500935817	0.00748262961
0	9403	75.807469748371	0.007449978714
0	9412	75.905350807902	0.00741918389
0	9417	75.912768419431	0.011458764761
0	9420	75.920183673668	0.013142811079
0	9425	75.984881604079	0.007394886964
0	9433	76.025512185477	0.007014730935
0	9438	76.057576087845	0.007023881196
0	9445	76.107674026427	0.007038005228
0	9450	76.11531946238	0.007040128734
0	9457	76.245621242938	0.007077856421
0	9464	76.280015668053	0.007087889834
0	9467	76.287105711606	0.012231125953
0	9472	76.37576148262	0.007115990648
0	9478	76.411248098301	0.007196463452
0	9487	76.47438748341	0.007414468806
0	9493	76.540585828413	0.007657805492
0	9499	76.569457033924	0.007769145394
0	9506	76.623569497088	0.007986309184
0	9515	76.689760787303	0.007994518045
0	9524	76.788365768093	0.007783831869
0	9529	76.802452113578	0.007755373366
0	9539	76.855762807665	0.007646930304
0	9542	76.86339473091	0.009225411577
0	9552	76.91178479145	0.007682177349
0	9555	76.919438410518	0.012393518407
0	9560	76.961610745202	0.007497857755
0	9565	76.973107866716	0.007456327226
0	9572	76.982073709789	0.007424692406
0	9585	77.131708530835	0.007335219533
0	9591	77.228382708267	0.007568385771
0	9597	77.297078708572	0.007743362832
0	9602	77.333443765732	0.007839623698
0	9610	77.421271580949	0.008081274532
0	9613	77.429376246921	0.015106824024
0	9621	77.49595428782	0.008298755187
0	9630	77.582045924023	0.008520998174
0	9635	77.59213064234	0.008500303582
0	9641	77.650340032561	0.008385241974
0	9646	77.698148519058	0.008292856297
0	9652	77.75160805453	0.008191925102
0	9660	77.819067083465	0.008068234209
0	9663	77.827120465886	0.013464101536
0	9669	77.865659780658	0.007984487282
0	9674	77.926667661899	0.007877560207
0	9680	77.947385335942	0.00784225857
0	9686	77.967975901618	0.007807271916
0	9691	78.004612410011	0.007745933385
0	9697	78.088702859866	0.00760786871
0	9704	78.170414031107	0.007478632479
0	9709	78.178884687944	0.007465870307
0	9714	78.197896835208	0.007436523956
0	9719	78.218296400695	0.007405056596
0	9726	78.260370344401	0.007341373886
0	9729	78.267700954936	0.009231120633
0	9738	78.313324121255	0.007262917618
0	9743	78.320576504181	0.013588966686
0	9746	78.327818382931	0.011320656577
0	9751	78.343263239461	0.007219471947
0	9756	78.356545160083	0.007200164575
0	9763	78.416554870448	0.007114544161
0	9771	78.499700773366	0.007166257166
0	9777	78.526992235632	0.007240380637
0	9782	78.597905875932	0.007438894793
0	9789	78.615643859516	0.007489835224
0	9794	78.623288002115	0.007494646681
0	9801	78.760938169357	0.00750348376
0	9806	78.805168513125	0.007506702413
0	9814	78.870031895598	0.007510729614
0	9819	78.89216427055	0.007512341704
0	9826	79.070289039333	0.007523645744
0	9831	79.080541372101	0.007524454477
0	9836	79.098586797143	0.007525263384
0	9842	79.165344464315	0.007530120482
0	9847	79.17612956078	0.007530120482
0	9853	79.284965151149	0.007537417896
0	9864	79.457637854399	0.007548797584
0	9872	79.490836341342	0.007551240561
0	9875	79.498387581903	0.010963266667
0	9880	79.519827535843	0.007552870091
0	9886	79.596802948251	0.007557762902
0	9891	79.608319015945	0.007558578987
0	9899	79.755469610387	0.007568385771
0	9907	79.858652510465	0.007574937777
0	9912	79.921961171069	0.007579038545
0	9919	79.949063676293	0.007581501137
0	9926	79.991783974625	0.00758396533
0	9933	80.013462051727	0.007102272727
0	9939	80.036560997484	0.007182433819
0	9945	80.04475064617	0.007255389718
0	9950	80.062427210314	0.007416825599
0	9958	80.121390796187	0.008013737836
0	9961	80.129493585862	0.012643875946
0	9969	80.167311247623	0.008314526666
0	9974	80.191109510035	0.00830170778
0	9979	80.223412746922	0.008284023669
0	9984	80.258345697769	0.008266414738
0	9990	80.2933424863	0.008247908566
0	9995	80.307639280316	0.00824014126
0	10001	80.42116516013	0.008181393174
0	10008	80.595768823062	0.008092485549
0	10013	80.620744112673	0.008080341683
0	10025	80.947275768708	0.007919447901
0	10032	81.111159387817	0.007841380083
0	10037	81.128239476419	0.007833482543
0	10043	81.182128365875	0.007808142777
0	10049	81.22795357218	0.007787295583
0	10054	81.239620859215	0.007781236105
0	10062	81.346759578782	0.007732243455
0	10068	81.419656451732	0.007699076111
0	10075	81.463454800209	0.007678806494
0	10081	81.494860101258	0.007664513303
0	10086	81.516533703257	0.007655293088
0	10092	81.541069799926	0.007634420329
0	10104	81.634194738708	0.007261410788
0	10110	81.663228925289	0.007280291212
0	10115	81.700868407805	0.007303839733
0	10120	81.731786150119	0.007323707889
0	10129	81.780101219538	0.00735525901
0	10137	81.915306659327	0.007444432628
0	10143	81.986076989324	0.00749224018
0	10149	82.016960975813	0.007513148009
0	10155	82.033973372091	0.007522028799
0	10160	82.049011815865	0.007522028799
0	10167	82.106958992624	0.007520412548
0	10177	82.215538897432	0.007517989475
0	10182	82.231036593908	0.007517182131
0	10189	82.307875411491	0.007515567962
0	10194	82.360717383055	0.007513954487
0	10200	82.405810790319	0.007513148009
0	10205	82.420636624038	0.007512341704
0	10210	82.451597332698	0.007511535572
0	10217	82.531136501643	0.007509923828
0	10222	82.590539919258	0.007508312775
0	10228	82.611872733967	0.007507507508
0	10236	82.726629246257	0.007505092742
0	10244	82.888103623764	0.007501071582
0	10249	82.899871148841	0.007500267867
0	10255	82.909391724529	0.007500267867
0	10261	82.98375278472	0.007498660953
0	10266	83.046396577355	0.007497054728
0	10273	83.093556692622	0.007495449192
0	10279	83.190096467642	0.007493042175
0	10285	83.230623247019	0.00749224018
0	10292	83.333117759369	0.007489835224
0	10300	83.431774935526	0.007487431811
0	10306	83.468475217363	0.007486631016
0	10312	83.752326135727	0.007479431563
0	10317	83.792179784663	0.007478632479
0	10324	83.839307443927	0.007477034822
0	10331	83.856728586223	0.007476236249
0	10334	83.864204822472	0.013722858474
0	10339	83.955071618602	0.007473841555
0	10348	84.006576224235	0.007473043664
0	10354	84.078048377561	0.007111652951
0	10361	84.12516736054	0.007064997981
0	10367	84.161277672906	0.007163323782
0	10372	84.169663313357	0.007211290821
0	10377	84.204828480798	0.00741997032
0	10383	84.286117073559	0.00762195122
0	10390	84.412183155039	0.007738226841
0	10395	84.436920240741	0.007762253271
0	10405	84.47810938376	0.007801181322
0	10408	84.485918397593	0.013006742325
0	10413	84.493734386874	0.015895382556
0	10418	84.501558238444	0.010360690589
0	10424	84.509389092007	0.012467315408
0	10427	84.517279972404	0.009761218763
0	10435	84.588636570286	0.008364201219
0	10442	84.680124468947	0.008261536646
0	10448	84.717392352863	0.008219821512
0	10454	84.763123580716	0.008169934641
0	10459	84.803717188076	0.008126306013
0	10465	84.830008896212	0.00809810273
0	10470	84.858341921979	0.008068234209
0	10477	84.87661605036	0.008049678013
0	10480	84.884656482246	0.014942111838
0	10485	84.8981550809	0.008026602454
0	10493	84.979359098812	0.007942811755
0	10496	84.987293807495	0.01094170502
0	10503	85.008291559884	0.007913181099
0	10506	85.016196698224	0.014478969672
0	10511	85.040797074988	0.007880220646
0	10517	85.113071945444	0.0078125
0	10522	85.14214990835	0.007836113288
0	10530	85.209453731457	0.007891770011
0	10533	85.217351734391	0.008613336673
0	10538	85.243001729593	0.007919447901
0	10548	85.408277978939	0.008059873345
0	10551	85.416345283307	0.015573894244
0	10561	85.56920063363	0.008213070515
0	10569	85.631683290826	0.008293838863
0	10572	85.639987953301	0.016107354101
0	10581	85.762085298721	0.008467400508
0	10584	85.770563980892	0.014140480345
0	10590	85.886406044414	0.008638775762
0	10600	85.910843781118	0.008674101611
0	10603	85.919526490123	0.011191743841
0	10611	86.116951170891	0.008349236641
0	10616	86.136760935352	0.008317490494
0	10621	86.169577381621	0.00826446281
0	10627	86.184804277887	0.008241111373
0	10636	86.312586240754	0.008044127787
0	10642	86.369277577395	0.007933809362
0	10647	86.390140041695	0.007891770011
0	10652	86.424557573089	0.00782385157
0	10657	86.458684470212	0.007757951901
0	10663	86.510276917119	0.007660319545
0	10671	86.598364751017	0.007499464324
0	10679	86.718952628512	0.007289388733
0	10686	86.772620439171	0.007219471947
0	10692	86.812295783423	0.007597134795
0	10697	86.83059487072	0.007592190889
0	10702	86.842272779784	0.007589721349
0	10707	86.872764333318	0.007581501137
0	10713	86.933706688142	0.007566749541
0	10719	86.982617554976	0.007554500324
0	10724	87.007123557834	0.007548797584
0	10729	87.03273211452	0.007542290701
0	10734	87.094586831233	0.00752688172
0	10739	87.105632227108	0.007524454477
0	10744	87.115657436037	0.007522028799
0	10749	87.128382953703	0.007518796992
0	10754	87.158771679027	0.007511535572
0	10760	87.226222669351	0.007494646681
0	10767	87.237351975793	0.00749224018
0	10772	87.24916297373	0.007489033915
0	10777	87.289126372962	0.007479431563
0	10782	87.299382120164	0.007477034822
0	10788	87.453687161035	0.007470651014
0	10793	87.47062486464	0.007477034822
0	10798	87.479530253929	0.007481030245
0	10808	87.705337804347	0.007574937777
0	10814	87.724233683898	0.007583143755
0	10825	87.962355731027	0.007684707432
0	10830	87.97728729804	0.007691462477
0	10837	88.013661244478	0.01138637001
0	10844	88.036545727527	0.007085020243
0	10849	88.048842199907	0.007085737423
0	10858	88.089799474982	0.007086454748
0	10863	88.119096090046	0.007087172218
0	10871	88.165460591417	0.007087889834
0	10880	88.27271305157	0.007090043553
0	10887	88.330368454984	0.007091480093
0	10892	88.373703346751	0.007092198582
0	10898	88.394236927784	0.007092917216
0	10912	88.509666743417	0.007095793208
0	10919	88.560940552699	0.007096512571
0	10929	88.667101464909	0.007105156313
0	10936	88.695674534576	0.007108764091
0	10945	88.779831315879	0.007120333638
0	10948	88.786952373865	0.012862954973
0	10960	88.88890471125	0.007134848639
0	10967	88.947894344076	0.007142857143
0	10973	88.983862265098	0.007147962831
0	10984	89.043305337747	0.007156000818
0	10989	89.052551737725	0.007157464213
0	10994	89.071466084095	0.007159660428
0	11004	89.147886891334	0.007991779884
0	11012	89.232025397415	0.007865168539
0	11021	89.475426524351	0.007517989475
0	11027	89.490303628291	0.007497857755
0	11034	89.544509915194	0.007425480004
0	11042	89.586894165369	0.007399577167
0	11047	89.601080443916	0.007391763464
0	11054	89.627417966273	0.007376185458
0	11062	89.758981835691	0.007299270073
0	11069	89.802825833803	0.007273482959
0	11080	89.931683078185	0.007465870307
0	11085	89.979960789024	0.007446016381
0	11093	90.108816708528	0.007392544091
0	11096	90.116206131097	0.008491194794
0	11107	90.169463616991	0.007367645511
0	11111	90.176828161967	0.012630497452
0	11119	90.310793994425	0.007310704961
0	11129	90.375141132525	0.007285595337
0	11134	90.388384134766	0.007280291212
0	11141	90.40028253426	0.007274994804
0	11149	90.443048394298	0.007258399005
0	11152	90.450303784016	0.011790252228
0	11164	90.697269259768	0.007709251101
0	11173	90.795098895764	0.007912286651
0	11190	91.058365065102	0.007493042175
0	11195	91.068995946135	0.007468259895
0	11205	91.149532927921	0.007284079084
0	11215	91.25100813417	0.007063572149
0	11222	91.29534926773	0.007192027124
0	11228	91.30696229051	0.007238134629
0	11236	91.356567109109	0.007443641004
0	11239	91.364042546956	0.010995919844
0	11247	91.385521346985	0.007569204152
0	11252	91.393124257814	0.014042474811
0	11255	91.400761176863	0.009081851277
0	11264	91.4883387593	0.008049678013
0	11269	91.602359473095	0.008659079664
0	11276	91.669151221119	0.008492053864
0	11282	91.712963162682	0.008320456436
0	11289	91.829699876699	0.007895330476
0	11295	91.85184772701	0.00781948168
0	11306	91.909655349564	0.007628596338
0	11312	91.929415676862	0.00756593169
0	11318	91.942959700543	0.007522837184
0	11325	91.952395226343	0.007493844342
0	11330	91.959865877357	0.010389412953
0	11334	91.967313478166	0.007605748718
0	11343	92.044048709892	0.007191288268
0	11348	92.099152335744	0.007217238891
0	11354	92.107383525286	0.007220961419
0	11359	92.12425952294	0.007229164515
0	11366	92.233949750995	0.007281048471
0	11372	92.253011863769	0.007290147886
0	11378	92.294842408398	0.00730994152
0	11385	92.388132907335	0.00735525901
0	11392	92.405565939541	0.00736377025
0	11395	92.412933585052	0.009818850961
0	11402	92.480702912168	0.00740114189
0	11411	92.629707232659	0.007475437847
0	11418	92.704446792637	0.007513148009
0	11425	92.731269109669	0.00752688172
0	11432	92.83879156322	0.00769738289
0	11441	92.92708120267	0.008133860098
0	11444	92.935257817551	0.009258910243
0	11454	93.02148251439	0.008644109657
0	11459	93.06968765011	0.008363201912
0	11465	93.126744613513	0.008053382421
0	11472	93.153601253923	0.007914970602
0	11475	93.161477041502	0.013079007661
0	11480	93.219080686291	0.007597959405
0	11486	93.272134261525	0.007483429549
0	11492	93.302677092201	0.007438104346
0	11497	93.33221404316	0.007394886964
0	11504	93.438971919776	0.007244127083
0	11509	93.457530926567	0.007217983089
0	11515	93.587377950698	0.007204610951
0	11523	93.623966674033	0.007211290821
0	11527	93.631179450952	0.012302371505
0	11532	93.680715914536	0.007221706386
0	11539	93.689359579232	0.007223196781
0	11546	93.714087425635	0.007227671657
0	11551	93.762347050486	0.007236638065
0	11556	93.788635239507	0.007241129616
0	11561	93.803736957974	0.007244127083
0	11567	93.815868749788	0.007246376812
0	11574	93.865039074677	0.007255389718
0	11579	93.874145303512	0.007256894049
0	11584	93.902959535143	0.007262164125
0	11590	93.951711880546	0.007271216371
0	11596	93.979017912872	0.007275750961
0	11614	94.162937020877	0.007298509019
0	11617	94.170234769	0.013381097808
0	11620	94.177532517123	0.015516290562
0	11630	94.367069232223	0.0072863537
0	11638	94.420558970572	0.007283321194
0	11641	94.427842291766	0.01395524652
0	11646	94.466944424783	0.007281048471
0	11652	94.482956922021	0.00727953411
0	11658	94.55179937077	0.007275750961
0	11663	94.561746804832	0.007274994804
0	11668	94.580966016022	0.007274238803
0	11673	94.617581173122	0.007271971743
0	11680	94.632745486441	0.007271216371
0	11684	94.640016702812	0.014522655619
0	11689	94.649686401033	0.007270461155
0	11694	94.661820869908	0.007269706096
0	11702	94.752766647317	0.007264425073
0	11708	94.781667932038	0.007262917618
0	11716	94.876127556879	0.007256894049
0	11726	95.02374752807	0.007248627938
0	11734	95.10751277226	0.007244127083
0	11740	95.16351826038	0.007241129616
0	11747	95.179845224407	0.007239631813
0	11750	95.18708485622	0.008242178756
0	11755	95.209808767979	0.007238134629
0	11762	95.296052188416	0.007232899359
0	11767	95.31319370819	0.007232152082
0	11772	95.382506063378	0.007228418009
0	11778	95.440479290957	0.00722468779
0	11783	95.486288136366	0.007222451506
0	11788	95.499688654335	0.007221706386
0	11795	95.559956796526	0.007217983089
0	11801	95.62789395862	0.00721426363
0	11812	95.725856851542	0.007209062822
0	11819	95.804590929029	0.007204610951
0	11824	95.851306940473	0.007201646091
0	11829	95.889414041711	0.007199424046
0	11834	95.921435183042	0.007197943445
0	11841	95.931023328578	0.007197203372
0	11844	95.93821979203	0.012697719833
0	11850	95.947944714546	0.007196463452
0	11857	96.079829233226	0.00718907261
0	11862	96.121701691374	0.007186120522
0	11868	96.140990675416	0.007185382878
0	11875	96.207415918469	0.007181696932
0	11880	96.214596878666	0.01324061931
0	11885	96.221777838863	0.009212078544
0	11888	96.228958062476	0.013129046975
0	11896	96.27524313087	0.007178014766
0	11901	96.299953544521	0.007176542957
0	11907	96.419630006055	0.007227671657
0	11914	96.578749914261	0.007475437847
0	11920	96.644739151789	0.00758396533
0	11925	96.660430763	0.007609522774
0	11932	96.770268239959	0.007797705247
0	11935	96.778079868125	0.008165233386
0	11941	96.937452893768	0.008101851852
0	11948	96.974805245883	0.008173750584
0	11956	96.990879402159	0.008204406939
0	11959	96.999100189006	0.009012284716
0	11965	97.009992214568	0.008242081714
0	11971	97.053729934241	0.008328375967
0	11979	97.169406525863	0.008565834557
0	11984	97.18395737186	0.008597396217
0	11989	97.20868593016	0.008650519031
0	11997	97.253733067377	0.008361204013
0	12000	97.261853717029	0.010772290808
0	12006	97.291697142528	0.007345996432
0	12013	97.340314207391	0.007123231912
0	12019	97.382580247086	0.007172131148
0	12025	97.415174947073	0.007211290821
0	12030	97.455712984062	0.007259904584
0	12035	97.466387662412	0.007272727273
0	12049	97.605512310721	0.00744522442
0	12058	97.729627322624	0.007606215365
0	12063	97.742529373981	0.007622781226
0	12068	97.775252072868	0.007667031763
0	12073	97.833190996806	0.007745933385
0	12086	98.070049385028	0.008085008085
0	12091	98.092332450717	0.008118765948
0	12096	98.108873732458	0.008144269924
0	12103	98.118547924643	0.008158508159
0	12107	98.126718812935	0.013255259876
0	12112	98.141538359492	0.008183306056
0	12120	98.260674558562	0.00821499824
0	12124	98.268891485431	0.008236228652
0	12129	98.286443097233	0.008221752408
0	12134	98.298513912404	0.008224650452
0	12141	98.427270931241	0.008259587021
0	12147	98.465885578249	0.008270321361
0	12152	98.49903639242	0.008279124778
0	12158	98.508218240918	0.008282063417
0	12164	98.567335179408	0.008297771456
0	12172	98.74441799381	0.008346250149
0	12175	98.752766234716	0.010516203004
0	12181	98.857854119739	0.008378216637
0	12187	98.873225584371	0.008382229673
0	12192	98.895977679222	0.008388256441
0	12198	98.952791265192	0.008404370273
0	12204	98.96330434799	0.008407398511
0	12213	99.115317455503	0.008303677343
0	12218	99.133624924822	0.008258612553
0	12226	99.219160265779	0.008053382421
0	12232	99.287329161926	0.007898002934
0	12242	99.404519637098	0.007643590304
0	12247	99.417762430337	0.00761614623
0	12254	99.492123947342	0.007463482248
0	12259	99.553731097277	0.007342914088
0	12267	99.732595794298	0.007390202703
0	12272	99.743799150357	0.00757002271
0	12277	99.757628752544	0.007804660497
0	12288	99.837058746488	0.007331378299
0	12293	99.844441155263	0.008186901163
0	12298	99.851875309893	0.013829976678
0	12301	99.859362741704	0.007561326602
0	12307	99.902512739353	0.007759671877
0	12312	99.945934681902	0.007796836712
0	12317	99.960510193414	0.007809885083
0	12327	99.983688376235	0.007830853563
0	12330	99.991525366831	0.011801872808
0	12333	99.999369382967	0.017855960175
0	12342	100.083087353262	0.007160392799
0	12347	100.090247746061	0.007661712044
0	12351	100.09740813886	0.007655408686
0	12356	100.113449408995	0.00718907261
0	12361	100.175735980158	0.007377740304
0	12371	100.196229692949	0.007441267141
0	12374	100.203694767067	0.009506314754
0	12379	100.220811674339	0.007519604684
0	12386	100.274372069366	0.007696536559
0	12391	100.316195224562	0.007840501792
0	12399	100.441551898762	0.008305647841
0	12410	100.494962625266	0.008442889881
0	12413	100.503355910638	0.013467778825
0	12419	100.590955376178	0.007910498361
0	12424	100.602162002511	0.007852815795
0	12430	100.625935877192	0.007733097658
0	12435	100.6995171623	0.007384745226
0	12443	100.838197461599	0.007038005228
0	12452	100.876622033924	0.007056451613
0	12457	100.900622062313	0.007068565081
0	12463	101.140716224001	0.00718907261
0	12468	101.168255857233	0.007203128216
0	12473	101.190874619199	0.007215007215
0	12479	101.217632134122	0.007228418009
0	12485	101.246558033857	0.007243377483
0	12490	101.318932255438	0.007281048471
0	12495	101.353698982898	0.007300031286
0	12502	101.420664824447	0.007335219533
0	12505	101.42800388924	0.007556102616
0	12510	101.455240466174	0.007353713625
0	12517	101.475142767142	0.007364544976
0	12522	101.496129797813	0.007375408282
0	12529	101.532880925836	0.007395668251
0	12532	101.540280503003	0.010492257345
0	12538	101.558764630509	0.007409759712
0	12543	101.573410815697	0.007417611529
0	12553	101.703460961026	0.007489033915
0	12557	101.710954003201	0.011055571744
0	12562	101.721816843658	0.007499464324
0	12568	101.742046060344	0.007510729614
0	12573	101.777862567437	0.007530120482
0	12579	101.788367549547	0.007536606374
0	12585	101.874304325707	0.007584787084
0	12591	101.926229624801	0.007614489285
0	12599	101.993093432114	0.007652782333
0	12606	102.061707583317	0.007693153094
0	12611	102.084886608568	0.007706704833
0	12617	102.118427783302	0.007726269316
0	12623	102.165743445988	0.007754514235
0	12628	102.198704226287	0.007774322523
0	12634	102.262470352244	0.0078125
0	12639	102.283605829747	0.007825600894
0	12644	102.304846584661	0.0078378681
0	12653	102.464813304707	0.007936507937
0	12656	102.472755215304	0.009527265154
0	12666	102.72185503329	0.007844016136
0	12672	102.754461858848	0.007798573975
0	12677	102.805796287295	0.00772882853
0	12683	102.84223506593	0.00767964893
0	12688	102.935719851428	0.007556131261
0	12693	102.955845222909	0.007530120482
0	12698	102.979367571063	0.007500267867
0	12707	103.12800616511	0.007416825599
0	12712	103.172427136191	0.007521220587
0	12719	103.254271703437	0.007537417896
0	12724	103.277316653108	0.007531740908
0	12733	103.369561196868	0.007509923828
0	12738	103.518357072529	0.007474639616
0	12743	103.573080638032	0.007461891056
0	12748	103.619861899869	0.007450771687
0	12754	103.654621317075	0.007442058261
0	12761	103.767015501664	0.007567567568
0	12766	103.77508147897	0.007577397705
0	12771	103.823259515966	0.007636919049
0	12780	103.840393796415	0.007657805492
0	12784	103.848061668033	0.010896708739
0	12789	103.867736535333	0.007692307692
0	12796	103.886191154544	0.007716049383
0	12799	103.893916571165	0.014235368698
0	12804	103.932416456841	0.007774322523
0	12809	103.948237092719	0.007795100223
0	12819	104.071263608314	0.007207578254
0	12829	104.203672055882	0.007287112222
0	12839	104.257191733787	0.007342143906
0	12847	104.295074807029	0.007381630286
0	12854	104.316970213323	0.007404273323
0	12857	104.324382326834	0.012008727227
0	12865	104.373466183893	0.007465074118
0	12873	104.518907362392	0.007624441782
0	12879	104.569028883242	0.007680491551
0	12885	104.632634289078	0.007692307692
0	12899	104.811728984944	0.007906031172
0	12906	104.821354979574	0.007918552036
0	12917	104.86807688784	0.007901569026
0	12920	104.875973999753	0.010568138886
0	12923	104.883867549595	0.018056354002
0	12930	104.986494273124	0.007836990596
0	12940	105.203936226797	0.007759671877
0	12946	105.280464952482	0.007794232268
0	12951	105.288343474277	0.007797705247
0	12956	105.304326161893	0.007804660497
0	12963	105.326733339675	0.007815116669
0	12966	105.334551947963	0.008512640423
0	12973	105.501062782379	0.007895330476
0	12978	105.518918597482	0.007904245709
0	12984	105.574735547771	0.007930214116
0	12989	105.58356256198	0.007934708683
0	12996	105.640937892406	0.007961783439
0	13001	105.694960883469	0.007987220447
0	13006	105.723426439861	0.00800091439
0	13013	105.806610481838	0.008077544426
0	13019	105.832242722654	0.008110300081
0	13027	105.894442639747	0.008077544426
0	13034	105.912440436425	0.008012820513
0	13037	105.920424923707	0.00874726692
0	13045	105.991036769618	0.00774250636
0	13048	105.998753669629	0.01253779165
0	13053	106.016515934106	0.007659481344
0	13062	106.048848108879	0.007555315704
0	13067	106.056379849787	0.008464419977
0	13072	106.063909160317	0.012972234259
0	13075	106.071435232782	0.009144987287
0	13080	106.112275766595	0.007510729614
0	13087	106.120041320985	0.007507507508
0	13090	106.12754560915	0.01115218488
0	13095	106.237829985472	0.007462686567
0	13102	106.306713531687	0.007436523956
0	13107	106.322300895536	0.007430209107
0	13114	106.373105776603	0.007411328745
0	13119	106.386247017503	0.007406623638
0	13125	106.400628711564	0.00740114189
0	13135	106.453830195555	0.007380851961
0	13138	106.461208713527	0.009924208612
0	13143	106.476546169602	0.007372301211
0	13148	106.485402165917	0.007369196758
0	13154	106.566811020021	0.007339064793
0	13159	106.609440161327	0.007323707889
0	13164	106.667474369153	0.007302315877
0	13169	106.675179382516	0.007299270073
0	13176	106.71967856171	0.007283321194
0	13182	106.737692691284	0.007277263749
0	13189	106.770032764325	0.007265179035
0	13192	106.777295681943	0.008700068937
0	13197	106.799467869376	0.007254637786
0	13202	106.839999218554	0.007240380637
0	13209	106.869066854456	0.007229911175
0	13214	106.933199850673	0.007206836199
0	13222	106.995696970688	0.008324414318
0	13229	107.034890256425	0.00823626309
0	13232	107.043108147949	0.013412693134
0	13237	107.104224779661	0.008084074373
0	13242	107.117362922685	0.008056162965
0	13247	107.193401025122	0.007897111913
0	13253	107.253411096032	0.007776049767
0	13259	107.304463588313	0.007676280294
0	13265	107.366155985382	0.007672914611
0	13270	107.414342657628	0.007673755755
0	13275	107.456805674299	0.007675438596
0	13282	107.535830962019	0.007677964243
0	13289	107.550987338903	0.007677964243
0	13297	107.632237424071	0.007680491551
0	13305	107.645013209514	0.007680491551
0	13310	107.666594916701	0.007681334358
0	13315	107.704714981418	0.007683020525
0	13323	107.798846608968	0.00784577449
0	13328	107.814215728489	0.007911392405
0	13339	107.942555979691	0.008007320979
0	13349	108.008862070638	0.007065711113
0	13352	108.015927068619	0.010138497026
0	13359	108.085830255127	0.007056451613
0	13364	108.178268091301	0.007045088567
0	13372	108.241795750993	0.007037297678
0	13375	108.248832341262	0.012857231314
0	13381	108.292601487885	0.007030936119
0	13388	108.328521659681	0.007026701466
0	13395	108.440487020458	0.007074994946
0	13403	108.550312726383	0.007194984068
0	13411	108.590575061173	0.007240380637
0	13416	108.621360405103	0.007275750961
0	13422	108.637947221507	0.007294706128
0	13428	108.661958331862	0.007322175732
0	13433	108.675548674093	0.007337526205
0	13442	108.732455637643	0.007404273323
0	13447	108.739868536086	0.009544179311
0	13450	108.747290866698	0.011916457777
0	13455	108.79093273349	0.007473841555
0	13461	108.910753093737	0.007621121394
0	13468	108.98329636061	0.007713498623
0	13474	109.032708638486	0.007776913676
0	13479	109.079885313059	0.007839623698
0	13487	109.147008802568	0.007691462477
0	13490	109.154674994661	0.008256030298
0	13495	109.171798147074	0.00761200522
0	13501	109.23200371519	0.00742626777
0	13506	109.287056127623	0.007264425073
0	13515	109.354063519807	0.007080004046
0	13521	109.430836791676	0.007110208228
0	13527	109.453860529906	0.007119609439
0	13532	109.471162445755	0.007126132546
0	13537	109.510807555383	0.007142128354
0	13544	109.544142085027	0.007155269345
0	13549	109.551300281162	0.010301745788
0	13552	109.558461406482	0.007263654677
0	13559	109.604014721473	0.007179487179
0	13566	109.615158435073	0.007183908046
0	13569	109.622345293389	0.013429719734
0	13575	109.689461759622	0.007213520198
0	13580	109.710867229527	0.007222451506
0	13585	109.748990837082	0.007238134629
0	13591	109.831800606842	0.007271971743
0	13596	109.886800690622	0.007294706128
0	13603	109.936368944064	0.007315288954
0	13608	109.945325758267	0.007319113342
0	13613	109.968827101857	0.007329075489
0	13618	110.012201454999	0.007346767422
0	13625	110.134808553138	0.007398795053
0	13631	110.19831238253	0.00742626777
0	13636	110.247663984057	0.007447600809
0	13641	110.265533575313	0.007455533071
0	13649	110.398337219525	0.00752769115
0	13657	110.541228130752	0.007676280294
0	13666	110.574862427148	0.007712648744
0	13669	110.582582731549	0.01006853479
[...]
24	24634	200.295671183151	9571
24	24639	200.307610966691	9531
24	24644	200.340960563798	9420
24	24650	200.382644215818	9281
24	24653	200.390186506519	9256
24	24660	200.412883840739	9180
24	24671	200.560411445067	8515
24	24674	200.568632231914	8526
24	24681	200.596208693645	8565
24	24686	200.608088842666	8582
24	24692	200.666345446021	8663
24	24700	200.792248593437	8839
24	24710	200.900721041443	8991
24	24715	200.979489420775	9101
24	24723	201.043509341466	9191
24	24727	201.051125487696	9201
24	24736	201.250134934235	9480
24	24741	201.265839724437	9502
24	24747	201.287117240168	9531
24	24752	201.303214134551	9554
24	24758	201.340540449379	9606
24	24765	201.376330832695	9656
24	24771	201.418915934989	9716
24	24776	201.52303594255	9861
24	24781	201.558359687448	9911
24	24788	201.596545916005	9868
24	24791	201.603639552	9854
24	24796	201.610743266228	9839
24	24805	201.705750910649	9649
24	24813	201.844821715031	9370
24	24817	201.852292366045	9355
24	24822	201.859774995655	9340
24	24829	201.870849803052	9318
24	24834	201.900731375706	9258
24	24840	201.988226329425	9082
24	24847	202.04567706916	8967
24	24859	202.265580613668	8526
24	24865	202.315854526503	8425
24	24872	202.407689052787	8257
24	24877	202.426091510685	8239
24	24887	202.480360304655	8727
24	24892	202.521794857039	8752
24	24898	202.655100263672	8832
24	24903	202.700579137353	8859
24	24909	202.731467495178	8878
24	24912	202.739352153885	8883
24	24920	202.909947779005	8986
24	24926	203.013463964683	9048
24	24931	203.034426107968	9061
24	24936	203.059611553109	9076
24	24941	203.068241159537	9081
24	24947	203.096754241836	9098
24	24952	203.149540425605	9130
24	24957	203.181144168091	9149
24	24960	203.188795277502	9154
24	24967	203.274088936526	9205
24	24974	203.340858498725	9245
24	24980	203.365349887872	9260
24	24987	203.445157258101	9308
24	24995	203.591880986531	9397
24	25001	203.627820012181	9419
24	25006	203.664088687405	9440
24	25011	203.688950600997	9455
24	25016	203.755594210463	9496
24	25023	203.77897706657	9510
24	25029	203.851762242539	9554
24	25034	203.859089016665	9558
24	25037	203.866412724554	9562
24	25042	203.873733368771	9567
24	25050	203.909632820922	9588
24	25056	204	9643
24	25060	204.089248891798	9697
24	25065	204.097494305954	9702
24	25074	204.298073616254	9823
24	25080	204.318228296119	9835
24	25086	204.360185660532	9860
24	25092	204.39438977986	9820
24	25097	204.403046845796	9792
24	25102	204.421084452091	9732
24	25105	204.428277218223	9708
24	25114	204.673333077409	8893
24	25119	204.699410890478	8807
24	25124	204.718255842801	8744
24	25129	204.764332471369	8591
24	25134	204.784468709262	8524
24	25140	204.792931535635	8532
24	25148	204.834296840709	8606
24	25153	204.843238384044	8622
24	25158	204.857127864251	8647
24	25161	204.865223157416	8661
24	25172	205.024363144239	8946
24	25179	205.056269550293	9003
24	25191	205.242932608372	8110
24	25196	205.253122094046	8112
24	25202	205.298824943283	8118
24	25209	205.349139947378	8126
24	25215	205.439369153231	8139
24	25218	205.447969718411	8140
24	25225	205.470289803503	8143
24	25230	205.493719214864	8147
24	25237	205.520526259294	8151
24	25242	205.563346329553	8157
24	25248	205.584973147334	8160
24	25253	205.781852262192	8189
24	25264	205.892456736264	8205
24	25271	205.951738544887	8214
24	25276	206.030151091867	8225
24	25282	206.064004689881	8230
24	25285	206.072510157682	8231
24	25293	206.208732528428	8251
24	25298	206.218215758897	8253
24	25304	206.247132583257	8257
24	25309	206.279440899112	8262
24	25317	206.403438225818	8280
24	25324	206.44212136151	8286
24	25327	206.450569346062	8287
24	25337	206.47674592285	8291
24	25347	206.578446891454	8304
24	25354	206.60083003552	8185
24	25361	206.647909416321	8114
24	25364	206.656536480654	8131
24	25374	206.820783096226	8445
24	25379	206.831652265695	8466
24	25385	206.924754006462	8645
24	25390	207.060739668375	8905
24	25393	207.068600420761	8920
24	25401	207.117708861566	9014
24	25407	207.158515803781	9092
24	25412	207.182299897951	9138
24	25417	207.205373785754	9182
24	25423	207.222794977901	9216
24	25430	207.289591862688	9343
24	25433	207.297084102868	9358
24	25440	207.315797240887	9394
24	25445	207.324205360829	9410
24	25450	207.379580945378	9516
24	25460	207.478386709648	9667
24	25465	207.549952131896	9393
24	25470	207.57511194574	9296
24	25475	207.593215408474	9227
24	25480	207.636540964467	9061
24	25486	207.735096807522	8683
24	25491	207.746325358606	8639
24	25496	207.781237261857	8506
24	25503	207.857470248103	8435
24	25506	207.86576900329	8549
24	25511	207.873957095465	8661
24	25518	207.887435064758	8846
24	25523	207.902480140229	9053
24	25528	207.964862335535	9909
24	25532	207.971926620528	9974
24	25540	207.978944867971	9970
24	25543	207.985965931161	9966
24	25550	208	9959
24	25554	208.141275323507	9880
24	25559	208.152490270128	9873
24	25564	208.205464915643	9844
24	25570	208.250187989689	9819
24	25577	208.335108954723	9771
24	25583	208.413963505373	9727
24	25586	208.421159968825	9723
24	25593	208.429417209546	9718
24	25598	208.543455309782	9655
24	25603	208.556139531167	9647
24	25606	208.563395672973	9643
24	25613	208.570665252329	9639
24	25618	208.603613316442	9621
24	25623	208.646641381836	9597
24	25630	208.717215583508	9557
24	25641	208.910166670757	9402
24	25649	208.991157597742	9329
24	25655	209.028413798604	9295
24	25663	209.209979268569	9129
24	25666	209.217647140187	9122
24	25673	209.232641497442	9109
24	25679	209.297633161944	9049
24	25685	209.308687190984	9039
24	25690	209.322720321742	9027
24	25696	209.399721695762	8956
24	25699	209.407537685043	8949
24	25708	209.448994371845	8912
24	25713	209.521388820961	8846
24	25718	209.537102299879	8831
24	25723	209.545028922006	8824
24	25728	209.552961832251	8817
24	25733	209.560901040599	8810
24	25736	209.568846557058	8802
24	25749	209.71315763378	8784
24	25754	209.721705076592	8790
24	25760	209.812813938123	8848
24	25771	209.923744817808	8920
24	25776	209.945090154848	8933
24	25783	210.002298139407	8970
24	25789	210.027436849719	8986
24	25792	210.035226745112	8991
24	25799	210.046480395787	8998
24	25804	210.129098427595	9051
24	25810	210.172859093573	9080
24	25813	210.180568344674	9084
24	25820	210.199731762066	9097
24	25825	210.255048246997	9132
24	25828	210.262713599603	9137
24	25835	210.288496326559	9154
24	25840	210.302188803141	9163
24	25845	210.37494427205	9209
24	25850	210.462774891887	9266
24	25857	210.55376130242	9324
24	25865	210.564311518588	9331
24	25872	210.614044724089	9363
24	25877	210.624042773091	9369
24	25882	210.728026591713	9436
24	25885	210.735444989339	9441
24	25894	210.785093562876	9473
24	25899	210.849413902803	9514
24	25906	211.035627499664	9634
24	25912	211.121865276772	9689
24	25918	211.166911716439	9718
24	25927	211.206326575189	9717
24	25932	211.219982317644	9663
24	25936	211.227226444727	9635
24	25943	211.236051095268	9600
24	25948	211.249991904564	9545
24	25954	211.261460689046	9500
24	25959	211.278557371356	9432
24	25965	211.307289976821	9319
24	25971	211.321382098341	9264
24	25976	211.506174263656	8536
24	25982	211.527329966004	8452
24	25988	211.594769548761	8187
24	25995	211.614515687936	8174
24	26000	211.685677940423	8270
24	26005	211.740988765728	8344
24	26010	211.749921124099	8356
24	26013	211.758298338077	8367
24	26020	211.77908744135	8395
24	26025	211.787458390154	8406
24	26029	211.795785775355	8418
24	26038	211.8704750416	8461
24	26044	211.918574664966	8438
24	26049	211.929529160936	8432
24	26055	211.961362496751	8416
24	26059	212	8397
24	26547	216	8668
24	27117	220	9910
24	27123	220.003310317576	9909
24	27130	220.04321403428	9897
24	27136	220.08773050795	9885
24	27139	220.09481194447	9883
24	27149	220.127467525753	9872
24	27154	220.154755660818	9840
24	27157	220.161869481956	9832
24	27165	220.232040866663	9750
24	27171	220.259002603889	9719
24	27178	220.347128116869	9617
24	27183	220.361479614765	9600
24	27188	220.368933449145	9591
24	27193	220.39164934098	9565
24	27199	220.452590501141	9494
24	27204	220.653390495685	9261
24	27207	220.660949074672	9252
24	27216	220.758925340361	9138
24	27223	220.850004757244	9032
24	27228	220.8624120963	9018
24	27233	220.886241696217	8990
24	27240	221.06670730809	8781
24	27245	221.077384732667	8768
24	27250	221.099504378203	8742
24	27256	221.146747658428	8688
24	27261	221.195416203296	8631
24	27264	221.203526503377	8622
24	27271	221.257272277066	8559
24	27277	221.349494170027	8452
24	27283	221.4390533322	8526
24	27292	221.571774910627	8682
24	27295	221.579837569001	8691
24	27310	221.762845245317	8939
24	27315	221.778400994444	8960
24	27320	221.801985642434	8993
24	27325	221.82784962528	9029
24	27330	221.842242835117	9049
24	27335	221.856458364051	9069
24	27341	221.992207985643	9259
24	27346	222.010905286494	9285
24	27352	222.136250098616	9460
24	27358	222.207559720331	9559
24	27368	222.334639495075	9626
24	27373	222.342891484632	9628
24	27381	222.468221079556	9665
24	27388	222.603807223454	9705
24	27394	222.654853142294	9720
24	27399	222.668974299835	9724
24	27402	222.676172983504	9727
24	27410	222.755573676434	9750
24	27416	222.822916668614	9770
24	27422	222.836164179975	9774
24	27432	222.981616804174	9837
24	27439	223.169855924341	9860
24	27445	223.181135905997	9858
24	27452	223.320350057688	9837
24	27458	223.334787713599	9835
24	27464	223.360421405371	9831
24	27469	223.376289081393	9829
24	27474	223.40905831192	9824
24	27480	223.483180806569	9813
24	27485	223.495428648746	9811
24	27491	223.542619148677	9804
24	27498	223.640824952382	9789
24	27501	223.647975836027	9788
24	27509	223.662756815753	9786
24	27514	223.701032603958	9780
24	27521	223.77686967588	9769
24	27526	223.796781327917	9766
24	27531	223.832345682343	9761
24	27539	223.905095666124	9548
24	27547	224	9098
24	28064	228	9300
24	28600	232	9003
24	29030	236	9295
24	29476	240	8788
24	30002	244	8953
24	30524	248	8899
24	31073	252	8522
24	31566	256	9555
24	32003	260	8800
24	32507	264	8831
24	32912	268	8141
24	33412	272	9489
24	33877	276	9880
24	33880	276.005252660912	9825
24	33886	276.117692931531	8636
24	33893	276.156368054109	8227
24	33900	276.200806466108	8350
24	33907	276.276520734949	8720
24	33913	276.309154750662	8880
24	33923	276.481446939015	9471
24	33928	276.495661180136	9487
24	33933	276.563031573341	9561
24	33936	276.570352983235	9569
24	33944	276.613673020887	9505
24	33951	276.626839775456	9483
24	33956	276.654395025451	9438
24	33967	276.738967916175	8188
24	33972	276.783890954973	8242
24	33978	276.815347840446	8280
24	33984	276.870167214004	8346
24	33987	276.878554465382	8356
24	33996	276.974021948734	8471
24	34001	277.012085165004	8516
24	34009	277.132530248057	8661
24	34014	277.192201188344	8733
24	34019	277.201212555892	8744
24	34024	277.229823600161	8778
24	34027	277.23779808182	8788
24	34037	277.273507984472	8830
24	34042	277.370831583113	8947
24	34045	277.378655434683	8957
24	34052	277.422856101146	9010
24	34057	277.431273050555	9020
24	34062	277.476603009728	9074
24	34067	277.519679781005	9126
24	34074	277.580075233456	9015
24	34079	277.601811757461	8883
24	34084	277.72808996731	8113
24	34091	277.75696017909	8155
24	34096	277.793328534982	8531
24	34108	277.97211898151	8796
24	34113	277.981656148106	8863
24	34116	277.98955415104	8919
24	34124	277.997402564539	8974
24	34127	278.005202876551	9029
24	34139	278.216164273946	9552
24	34144	278.230209830937	9553
24	34149	278.238002358658	9553
24	34154	278.300238586265	9557
24	34159	278.327527012209	9559
24	34164	278.338786291043	9559
24	34172	278.595576267331	9574
24	34178	278.613297276207	9575
24	34184	278.647981152549	9577
24	34190	278.684899853834	9579
24	34195	278.757169222897	9583
24	34202	278.780081522365	9584
24	34210	278.889150019926	9590
24	34216	278.940539270947	9593
24	34222	278.976245361222	9595
24	34227	279.03344297611	9598
24	34233	279.086593470907	9601
24	34238	279.111449312077	9603
24	34244	279.146749211011	9605
24	34249	279.174250932503	9606
24	34254	279.187789257834	9607
24	34262	279.358569408824	9617
24	34273	279.619146839621	9364
24	34278	279.652392827416	9319
24	34287	279.692271292646	9266
24	34294	279.769592830439	9161
24	34301	279.802814907505	9117
24	34309	280	8851
24	34742	284	9739
24	35273	288	8501
24	35744	292	9520
24	36247	296	8655
24	36677	300	9313
24	37142	304	9728
24	37147	304.152496758499	9602
24	37152	304.210329033593	9558
24	37157	304.218721378793	9552
24	37165	304.323091861989	9276
24	37171	304.392831480095	9059
24	37180	304.653375066575	8248
24	37183	304.661861972492	8222
24	37192	304.711992234997	8325
24	37197	304.734172739968	8928
24	37203	304.753870956112	9464
24	37209	304.831855957131	9610
24	37214	304.842083458469	9597
24	37219	304.858278869187	9578
24	37224	304.871352529284	9562
24	37231	304.929189246159	9491
24	37234	304.936564654441	9482
24	37242	304.965036638392	9448
24	37247	304.974763604344	9436
24	37253	305.027723784718	9371
24	37262	305.177768413427	9189
24	37267	305.24806565874	9103
24	37276	305.446584416136	8861
24	37279	305.454484201713	8852
24	37286	305.465570394116	8838
24	37289	305.473490738085	8829
24	37297	305.494878477828	8803
24	37302	305.574326561946	8706
24	37308	305.610483727827	8662
24	37314	305.655969612342	8607
24	37319	305.712408839317	8538
24	37324	305.730869799497	8515
24	37329	305.739921430793	8504
24	37335	305.757252224263	8483
24	37340	305.788786556504	8435
24	37351	305.89187721859	8278
24	37359	306.07637561685	8137
24	37365	306.119236925684	8178
24	37372	306.202392753768	8256
24	37375	306.210871435939	8264
24	37382	306.220057618064	8273
24	37388	306.241447344437	8293
24	37393	306.27838239101	8328
24	37399	306.323713871606	8371
24	37404	306.377655159099	8422
24	37409	306.414767864331	8457
24	37414	306.42554583761	8467
24	37417	306.433813228658	8475
24	37424	306.447607900171	8488
24	37431	306.46798798145	8507
24	37436	306.517263953246	8554
24	37441	306.525447259302	8561
24	37448	306.612548801203	8644
24	37457	306.744753770048	8769
24	37466	306.826740904489	8846
24	37472	306.854966940302	8873
24	37477	306.93084785582	8944
24	37483	307.005196603602	9014
24	37488	307.019288723486	9028
24	37495	307.082217022657	9087
24	37502	307.120657976391	9123
24	37507	307.13700683276	9139
24	37513	307.170835429006	9171
24	37519	307.252078479877	9248
24	37527	307.37120811019	9360
24	37532	307.407355544045	9394
24	37537	307.418485683792	9405
24	37542	307.442350946716	9427
24	37547	307.478909249428	9462
24	37554	307.565480905154	9532
24	37562	307.683593947388	9573
24	37570	307.770706883589	9603
24	37576	307.783029556973	9607
24	37584	307.839615622215	9627
24	37589	307.906807149213	9650
24	37594	307.935373390213	9660
24	37600	307.953271310997	9667
24	37605	307.998104517793	9682
24	37606	308	9683
24	37613	308.16980538804	9742
24	37619	308.187849631793	9748
24	37629	308.286510839801	9783
24	37634	308.37022742359	9812
24	37637	308.377361545074	9815
24	37646	308.437615530881	9836
24	37651	308.454329359372	9841
24	37657	308.468420794882	9846
24	37674	308.66095416427	9832
24	37678	308.668073773709	9815
24	37688	308.783023369646	9526
24	37694	308.828640603448	9411
24	37699	308.889429076214	9259
24	37705	308.96603194775	9066
24	37710	308.978917667773	9034
24	37715	308.988380146158	9010
24	37721	309.014780147573	8944
24	37729	309.108732050907	9135
24	37734	309.132262154955	9185
24	37739	309.190551053719	9309
24	37746	309.273793772071	9486
24	37754	309.378931609151	9709
24	37761	309.442470825592	9844
24	37766	309.452901435402	9866
24	37772	309.485976044574	9868
24	37779	309.602386628004	8825
24	37788	309.706933780871	9854
24	37791	309.714037495099	9840
24	37801	309.809554957858	9653
24	37804	309.816806589475	9639
24	37811	309.884469856151	9507
24	37816	309.898238792407	9480
24	37821	309.906176833953	9464
24	37826	309.962616555962	9354
24	37831	310.014746046562	9252
24	37838	310.050278239039	9182
24	37843	310.083896866776	9116
24	37848	310.096077344079	9093
24	37851	310.103775573486	9078
24	37858	310.114845530239	9056
24	37864	310.149447600148	8988
24	37870	310.19326474577	8902
24	37878	310.360926264542	8574
24	37883	310.384453147706	8528
24	37888	310.396536063578	8505
24	37891	310.404766516253	8488
24	37898	310.445732539623	8408
24	37903	310.542561690041	8219
24	37908	310.564055213986	8177
24	37913	310.650242229834	8008
24	37919	310.738974666076	8097
24	37924	310.767232929993	8128
24	37927	310.775845134717	8137
24	37934	310.883867450106	8252
24	37940	310.944738628455	8317
24	37948	311.00265180304	8379
24	37953	311.011006021921	8388
24	37958	311.019351277047	8397
24	37961	311.027687587634	8406
24	37970	311.094295252464	8477
24	37979	311.201962881908	8592
24	37986	311.247928382928	8641
24	37989	311.256029297174	8650
24	37998	311.302100449214	8699
24	38003	311.315563189229	8714
24	38009	311.348493695771	8734
24	38014	311.37462633663	8686
24	38019	311.421815925661	8598
24	38025	311.466914050043	8515
24	38041	311.779290123243	9321
24	38048	311.796460414026	9279
24	38054	311.808121748198	9316
24	38059	311.848093434322	9444
24	38063	311.855505547833	9447
24	38070	311.877991582753	9439
24	38076	311.931490779126	9418
24	38081	311.95214666519	9410
24	38084	311.959585559983	9407
24	38091	311.999482547188	9392
24	38092	312	9392
24	38593	316	9240
24	39098	320	8650
24	39532	324	9223
24	40003	328	9451
24	40452	332	9211
24	40911	336	8673
24	41414	340	8402
24	41999	344	9464
24	42456	348	9662
24	43047	352	8962
24	43550	356	9091
24	44014	360	8625
24	44543	364	9819
24	44934	368	8270
24	45467	372	8637
24	45901	376	9814
24	45905	376.033401688209	9817
24	45912	376.049926289394	9819
24	45918	376.065011531244	9821
24	45926	376.175115054379	9832
24	45931	376.206775365692	9835
24	45938	376.234540611786	9838
24	45943	376.284929454066	9843
24	45948	376.314390733109	9846
24	45954	376.331001532047	9848
24	45957	376.338109574289	9849
24	45964	376.346192934794	9849
24	45969	376.36380556144	9851
24	45974	376.379613350192	9853
24	45986	376.492414191047	9864
24	45992	376.534362570078	9869
24	45997	376.57990240421	9873
24	46000	376.586992447763	9874
24	46009	376.644371035982	9880
24	46016	376.711275493929	9887
24	46023	376.732099316938	9889
24	46029	376.751842742907	9891
24	46032	376.758919883742	9891
24	46040	376.795632951563	9895
24	46053	376.963479570317	9912
24	46061	377.003405360984	9916
24	46067	377.020237323751	9918
24	46073	377.042184331151	9920
24	46076	377.049240782764	9921
24	46083	377.076979918127	9924
24	46088	377.09462052269	9926
24	46094	377.162266565538	9933
24	46100	377.197990695074	9936
24	46103	377.205035783641	9937
24	46111	377.2331603482	9940
24	46128	377.404963030781	9815
24	46134	377.455811924086	9757
24	46141	377.527486016722	9676
24	46146	377.545742063494	9655
24	46149	377.552992192961	9647
24	46159	377.621506017373	9569
24	46168	377.705453627316	9472
24	46177	377.858954798465	9294
24	46187	377.953446542543	9184
24	46195	378.038189502244	9086
24	46204	378.109751695162	9003
24	46210	378.134442662727	8975
24	46216	378.189341735195	8945
24	46221	378.209929795743	8951
24	46227	378.246306511632	8961
24	46232	378.26998951517	8968
24	46239	378.305466012747	8978
24	46244	378.33319884638	8986
24	46250	378.34626930652	8990
24	46256	378.36197475606	8995
24	46268	378.525669315818	9041
24	46277	378.709362032704	9094
24	46283	378.727585612182	9099
24	46288	378.764511202122	9109
24	46298	378.870955312054	8243
24	46304	378.897462022666	8296
24	46309	378.918105190759	8338
24	46316	378.955294926486	8413
24	46323	378.965016623696	8433
24	46328	378.973317347045	8449
24	46332	378.981602351188	8461
24	46340	378.992786308224	8464
24	46346	379.002714603337	8467
24	46352	379.082483721021	8492
24	46358	379.136648441883	8509
24	46367	379.254819667418	8546
24	46374	379.318784218755	8570
24	46381	379.350842519022	8599
24	46387	379.390859830901	8636
24	46390	379.398965435348	8643
24	46397	379.41851116909	8661
24	46409	379.545828457993	8778
24	46416	379.603933188466	8831
24	46423	379.663466398995	8886
24	46427	379.671343959202	8893
24	46443	379.81323176067	9023
24	46449	379.853880119968	9061
24	46454	379.870713940872	9076
24	46461	379.946313627419	9126
24	46466	379.962859710406	9118
24	46472	380	9101
24	46948	384	9195
24	47386	388	9114
24	47953	392	8793
24	48492	396	8836
24	48948	400	8322

