file 10157058 1613502075                                        
version 2
run Exponential-capacity-4-20210216-20:01:10-9872
attr configname Exponential-capacity
attr datetime 20210216-20:01:10
attr experiment Exponential-capacity
attr inifile aerocom.ini
attr iterationvars "$0=9, $1=2"
attr iterationvarsf 9,2-
attr measurement "$0=9, $1=2"
attr network Aerocom
attr processid 9872
attr repetition 0
attr replication #0
attr resultdir results
attr runnumber 4
attr seedset 0
param **.t 1s
param **.k 9ms
param **.X 50ms
param **.m 2s
param **.tDistribution "\"exponential\""
param **.operationMode 0
param **.s "70 byte"
param **.dimPoolMax 10000
param **.dimPoolMin 8000
param **.nDL 10
param **.nA 1
param **.DLMaxCapacity 0
param **.trasmitting false

vector 0 Aerocom.aircraft[0].dataLink[0] actualCapacity:vector ETV
attr "" ""
attr source computeActualCapacity
vector 1 Aerocom.aircraft[0].dataLink[1] actualCapacity:vector ETV
attr "" ""
attr source computeActualCapacity
vector 2 Aerocom.aircraft[0].dataLink[2] actualCapacity:vector ETV
attr "" ""
attr source computeActualCapacity
vector 3 Aerocom.aircraft[0].dataLink[3] actualCapacity:vector ETV
attr "" ""
attr source computeActualCapacity
vector 4 Aerocom.aircraft[0].dataLink[4] actualCapacity:vector ETV
attr "" ""
attr source computeActualCapacity
vector 5 Aerocom.aircraft[0].dataLink[5] actualCapacity:vector ETV
attr "" ""
attr source computeActualCapacity
vector 6 Aerocom.aircraft[0].dataLink[6] actualCapacity:vector ETV
attr "" ""
attr source computeActualCapacity
vector 7 Aerocom.aircraft[0].dataLink[7] actualCapacity:vector ETV
attr "" ""
attr source computeActualCapacity
vector 8 Aerocom.aircraft[0].dataLink[8] actualCapacity:vector ETV
attr "" ""
attr source computeActualCapacity
vector 9 Aerocom.aircraft[0].dataLink[9] actualCapacity:vector ETV
attr "" ""
attr source computeActualCapacity
vector 10 Aerocom.aircraft[0].packetGenerator arrivalTime:vector ETV
attr "" ""
attr source computeArrivalTime
vector 11 Aerocom.aircraft[0].linkSelector responseTime:vector ETV
attr "" ""
attr source computeResponseTime
vector 12 Aerocom.aircraft[0].linkSelector waitingTime:vector ETV
attr "" ""
attr source computeWaitingTime
vector 13 Aerocom.aircraft[0].linkSelector queueLength:vector ETV
attr "" ""
attr source computeQueueLength
vector 14 Aerocom.aircraft[0].linkSelector serviceTime:vector ETV
attr "" ""
attr source computeServiceTime
vector 15 Aerocom.aircraft[0].dataLink[4] tDistribution:vector ETV
attr "" ""
attr source computeTDistribution
vector 16 Aerocom.aircraft[0].dataLink[5] tDistribution:vector ETV
attr "" ""
attr source computeTDistribution
vector 17 Aerocom.aircraft[0].dataLink[0] tDistribution:vector ETV
attr "" ""
attr source computeTDistribution
vector 18 Aerocom.aircraft[0].dataLink[3] tDistribution:vector ETV
attr "" ""
attr source computeTDistribution
vector 19 Aerocom.aircraft[0].dataLink[8] tDistribution:vector ETV
attr "" ""
attr source computeTDistribution
vector 20 Aerocom.aircraft[0].dataLink[9] tDistribution:vector ETV
attr "" ""
attr source computeTDistribution
vector 21 Aerocom.aircraft[0].dataLink[6] tDistribution:vector ETV
attr "" ""
attr source computeTDistribution
vector 22 Aerocom.aircraft[0].dataLink[1] tDistribution:vector ETV
attr "" ""
attr source computeTDistribution
vector 23 Aerocom.aircraft[0].dataLink[7] tDistribution:vector ETV
attr "" ""
attr source computeTDistribution
vector 24 Aerocom.aircraft[0].dataLink[2] tDistribution:vector ETV
attr "" ""
attr source computeTDistribution
12	3572 1230403 6095 194570 10.056276113524 301.885246973649 32768 0 0.18791760543 309.97557191668 13.116966144973
13	1233975 952716 6095 194570 10.056276113524 301.885246973649 32768 0 24 34728 198760
14	2186691 1505206 6095 194570 10.056276113524 301.885246973649 32768 0.0070056044835869 0.0087292679885272 246.52229657983 1.8595490072469
11	3691897 1375045 6088 194571 10.006276113524 301.887669036932 32768 0.007009813739 0.195272091667 556.49786379146 19.684635234983
10	5066942 1374798 6086 194577 10.005231214764 301.895187569655 32768 3.6099e-008 0.096500924816 291.90165072413 5.2073499154391
0	6441740 179055 6085 255528 10 400 5858 8022 9963 54787822 513689521464
1	6620795 183302 6085 255528 10 400 5924 8030 9982 55416528 519481303186
2	6804097 123325 6085 255528 10 400 4057 8024 9982 37640304 350344525546
3	6927422 149482 6085 255528 10 400 4838 8084 9970 45389956 426849374860
4	7076904 108288 6085 255528 10 400 3521 8048 9979 32443632 299984329482
5	7185192 157971 6085 255528 10 400 5130 8019 9988 47448918 440027884942
6	7343163 117519 6085 255528 10 400 3828 8028 9982 35764590 334860407718
7	7460682 127249 6085 255528 10 400 4143 8031 9980 38668190 361689424722
8	7587931 98222 6085 255528 10 400 3237 8027 9992 30242483 283321672595
9	7686153 150320 6085 255528 10 400 4883 8079 9975 45257859 420299976257
10	7836473 457363 194585 255518 301.906881938898 399.984749715246 10690 2.075485e-006 0.093155895855 98.130373617798 1.8051015975744
11	8293836 457479 194574 255525 301.892582193182 399.99251455163 10692 0.007006305675 0.124338774981 176.06402002954 5.4308093526674
12	8751315 410480 194578 255519 301.895187569655 399.984749715246 10691 0 0.117047867784 95.638540499396 3.3847416701176
13	9161795 319664 194578 255519 301.895187569655 399.984749715246 10691 0 17 10512 51734
14	9481459 499940 194578 255519 301.895187569655 399.984749715246 10691 0.0070063056751076 0.0087205680827208 80.412141825487 0.60645907655562
15	9981399 19656 6187 255255 10.195530479815 399.531824074835 448 0.00046858062143858 4.5969873950114 392.60944509323 663.24396395861
16	10001055 16314 6210 254648 10.231100016177 398.599861515051 373 0.0024855087139075 5.8553159328738 390.84022742546 802.17398724391
17	10017369 18187 6308 254670 10.427056730335 398.62556036574 414 0.004703906220746 5.6853850636561 391.58372694686 721.55513685387
18	10035556 18199 6431 255184 10.589143172582 399.384120383163 415 0.0018844320688851 5.4400638357789 389.86273410498 710.29195188133
19	10053755 17692 6726 255046 11.019995833196 399.139608699086 402 0.00012359181449871 7.7512023953318 390.10962708975 845.86750006598
20	10071447 16992 6833 254206 11.167216926612 397.8417113111 387 0.0025859150943617 6.5044674794512 388.92988761984 770.5822460086
21	10088439 16457 7171 254293 11.770581468296 398.054009604438 375 0.0015419235172678 7.2888921875472 388.51856274567 827.55298216986
22	10104896 17183 7625 253786 12.476454100424 396.963073561627 391 0.0027066362142686 6.3651571449549 387.88865806586 753.37949136275
23	10122079 18371 8239 254643 13.481960993213 398.584954438043 418 0.00038836613746553 5.4284265520006 387.88024916169 747.54762606095
24	10140450 16606 8894 254671 14.694997286335 398.628191179598 379 0.00090222306082665 5.2881247296081 386.67360661758 751.94746314648

