file 9984097 1613502085                                         
version 2
run Exponential-capacity-3-20210216-20:01:23-7008
attr configname Exponential-capacity
attr datetime 20210216-20:01:23
attr experiment Exponential-capacity
attr inifile aerocom.ini
attr iterationvars "$0=9, $1=1.5"
attr iterationvarsf 9,1.5-
attr measurement "$0=9, $1=1.5"
attr network Aerocom
attr processid 7008
attr repetition 0
attr replication #0
attr resultdir results
attr runnumber 3
attr seedset 0
param **.t 1s
param **.k 9ms
param **.X 50ms
param **.m 1.5s
param **.tDistribution "\"exponential\""
param **.operationMode 0
param **.s "70 byte"
param **.dimPoolMax 10000
param **.dimPoolMin 8000
param **.nDL 10
param **.nA 1
param **.DLMaxCapacity 0
param **.trasmitting false

vector 0 Aerocom.aircraft[0].packetGenerator arrivalTime:vector ETV
attr "" ""
attr source computeArrivalTime
vector 1 Aerocom.aircraft[0].linkSelector responseTime:vector ETV
attr "" ""
attr source computeResponseTime
vector 2 Aerocom.aircraft[0].linkSelector waitingTime:vector ETV
attr "" ""
attr source computeWaitingTime
vector 3 Aerocom.aircraft[0].linkSelector queueLength:vector ETV
attr "" ""
attr source computeQueueLength
vector 4 Aerocom.aircraft[0].dataLink[8] actualCapacity:vector ETV
attr "" ""
attr source computeActualCapacity
vector 5 Aerocom.aircraft[0].linkSelector serviceTime:vector ETV
attr "" ""
attr source computeServiceTime
vector 6 Aerocom.aircraft[0].dataLink[4] tDistribution:vector ETV
attr "" ""
attr source computeTDistribution
vector 7 Aerocom.aircraft[0].dataLink[5] tDistribution:vector ETV
attr "" ""
attr source computeTDistribution
vector 8 Aerocom.aircraft[0].dataLink[0] tDistribution:vector ETV
attr "" ""
attr source computeTDistribution
vector 9 Aerocom.aircraft[0].dataLink[0] actualCapacity:vector ETV
attr "" ""
attr source computeActualCapacity
vector 10 Aerocom.aircraft[0].dataLink[1] actualCapacity:vector ETV
attr "" ""
attr source computeActualCapacity
vector 11 Aerocom.aircraft[0].dataLink[2] actualCapacity:vector ETV
attr "" ""
attr source computeActualCapacity
vector 12 Aerocom.aircraft[0].dataLink[3] actualCapacity:vector ETV
attr "" ""
attr source computeActualCapacity
vector 13 Aerocom.aircraft[0].dataLink[4] actualCapacity:vector ETV
attr "" ""
attr source computeActualCapacity
vector 14 Aerocom.aircraft[0].dataLink[5] actualCapacity:vector ETV
attr "" ""
attr source computeActualCapacity
vector 15 Aerocom.aircraft[0].dataLink[6] actualCapacity:vector ETV
attr "" ""
attr source computeActualCapacity
vector 16 Aerocom.aircraft[0].dataLink[7] actualCapacity:vector ETV
attr "" ""
attr source computeActualCapacity
vector 17 Aerocom.aircraft[0].dataLink[9] actualCapacity:vector ETV
attr "" ""
attr source computeActualCapacity
vector 18 Aerocom.aircraft[0].dataLink[3] tDistribution:vector ETV
attr "" ""
attr source computeTDistribution
vector 19 Aerocom.aircraft[0].dataLink[8] tDistribution:vector ETV
attr "" ""
attr source computeTDistribution
vector 20 Aerocom.aircraft[0].dataLink[9] tDistribution:vector ETV
attr "" ""
attr source computeTDistribution
vector 21 Aerocom.aircraft[0].dataLink[6] tDistribution:vector ETV
attr "" ""
attr source computeTDistribution
vector 22 Aerocom.aircraft[0].dataLink[1] tDistribution:vector ETV
attr "" ""
attr source computeTDistribution
vector 23 Aerocom.aircraft[0].dataLink[7] tDistribution:vector ETV
attr "" ""
attr source computeTDistribution
vector 24 Aerocom.aircraft[0].dataLink[2] tDistribution:vector ETV
attr "" ""
attr source computeTDistribution
2	3580 1198412 6162 194162 10.006276113524 301.885422491973 32768 0 0.143706262264 312.20534154496 12.577800639034
3	1201992 919772 6162 194162 10.006276113524 301.885422491973 32768 0 17 34905 186665
5	2121764 1472388 6162 194162 10.006276113524 301.885422491973 32768 0.0070056044835869 0.0087238285144566 244.49349176634 1.8283868347638
1	3594152 1342038 6162 194163 10.006276113524 301.888206392457 32768 0.007005604484 0.15092796865 556.69853515577 19.078269526224
0	4936190 1341996 6160 194169 10.005231214764 301.895187569655 32768 3.6099e-008 0.096500924816 291.90165072413 5.2073499154391
0	6278186 446673 194177 256359 301.906881938898 399.984749715246 10690 2.075485e-006 0.093155895855 98.130373617798 1.8051015975744
1	6724859 446728 194166 256364 301.892875643591 399.992567450336 10692 0.007003501751 0.100649246678 151.59288471527 3.6808870030135
2	7171587 395755 194170 256360 301.895187569655 399.984749715246 10691 0 0.093405119595 71.488672333235 2.0072707120592
3	7567342 308820 194170 256360 301.895187569655 399.984749715246 10691 0 11 7507 27383
4	7876162 156354 6162 255787 10.006276113524 399 5115 8024 9995 47851296 448706423706
5	8032516 489125 194170 256360 301.895187569655 399.984749715246 10691 0.0070035017508754 0.0087205680827208 80.09058122705 0.60152591022008
6	8521641 19208 6246 256094 10.195530479815 399.531824074835 448 0.00046858062143858 4.5969873950114 392.60944509323 663.24396395861
7	8540849 15941 6267 255486 10.231100016177 398.599861515051 373 0.0024855087139075 5.8553159328738 390.84022742546 802.17398724391
8	8556790 17772 6348 255508 10.427056730335 398.62556036574 414 0.004703906220746 5.6853850636561 391.58372694686 721.55513685387
9	8574562 165965 6398 255787 10.5 399 5416 8017 9971 50904110 479433231638
10	8740527 149057 6398 255787 10.5 399 4725 8057 9962 44463587 419232150447
11	8889584 124533 6398 255787 10.5 399 3981 8026 9982 37324162 350666402298
12	9014117 213729 6398 255787 10.5 399 6690 8044 9972 62704352 589190606766
13	9227846 145165 6398 255787 10.5 399 4575 8026 9980 42832694 402018703350
14	9373011 130908 6398 255787 10.5 399 4164 8027 9986 39011968 366282409900
15	9503919 95487 6398 255787 10.5 399 3067 8075 9982 28816428 271405411946
16	9599406 146599 6398 256360 10.5 399.984749715246 4621 8042 9987 43023404 401492872634
17	9746005 116595 6398 255787 10.5 399 3705 8060 9938 34725187 326115346451
18	9862600 18199 6440 256023 10.589143172582 399.384120383163 415 0.0018844320688851 5.4400638357789 389.86273410498 710.29195188133
19	9880799 17690 6754 255888 11.019995833196 399.139608699086 402 0.00012359181449871 7.7512023953318 390.10962708975 845.86750006598
20	9898489 16991 6861 255029 11.167216926612 397.8417113111 387 0.0025859150943617 6.5044674794512 388.92988761984 770.5822460086
21	9915480 16458 7199 255155 11.770581468296 398.054009604438 375 0.0015419235172678 7.2888921875472 388.51856274567 827.55298216986
22	9931938 17183 7653 254581 12.476454100424 396.963073561627 391 0.0027066362142686 6.3651571449549 387.88865806586 753.37949136275
23	9949121 18369 8267 255481 13.481960993213 398.584954438043 418 0.00038836613746553 5.4284265520006 387.88024916169 747.54762606095
24	9967490 16605 9046 255509 14.694997286335 398.628191179598 379 0.00090222306082665 5.2881247296081 386.67360661758 751.94746314648

