file 8921737 1613479564                                         
version 2
run Exponential-capacity-27-20210216-13:46:02-18844
attr configname Exponential-capacity
attr datetime 20210216-13:46:02
attr experiment Exponential-capacity
attr inifile aerocom.ini
attr iterationvars "$0=2, $1=10, $2=0.5, $3=4"
attr iterationvarsf 2,10,0.5,4-
attr measurement "$0=2, $1=10, $2=0.5, $3=4"
attr network Aerocom
attr processid 18844
attr repetition 0
attr replication #0
attr resultdir results
attr runnumber 27
attr seedset 0
param **.t 2s
param **.k 10ms
param **.X 0.5s
param **.m 4s
param **.tDistribution "\"exponential\""
param **.operationMode 0
param **.s "70 byte"
param **.dimPoolMax 10000
param **.dimPoolMin 8000
param **.nDL 10
param **.nA 1
param **.DLMaxCapacity 0
param **.trasmitting false

vector 0 Aerocom.aircraft[0].packetGenerator arrivalTime:vector ETV
attr "" ""
attr source computeArrivalTime
vector 1 Aerocom.aircraft[0].linkSelector waitingTime:vector ETV
attr "" ""
attr source computeWaitingTime
vector 2 Aerocom.aircraft[0].linkSelector queueLength:vector ETV
attr "" ""
attr source computeQueueLength
vector 3 Aerocom.aircraft[0].dataLink[4] actualCapacity:vector ETV
attr "" ""
attr source computeActualCapacity
vector 4 Aerocom.aircraft[0].linkSelector serviceTime:vector ETV
attr "" ""
attr source computeServiceTime
vector 5 Aerocom.aircraft[0].linkSelector responseTime:vector ETV
attr "" ""
attr source computeResponseTime
vector 6 Aerocom.aircraft[0].dataLink[1] tDistribution:vector ETV
attr "" ""
attr source computeTDistribution
vector 7 Aerocom.aircraft[0].dataLink[2] tDistribution:vector ETV
attr "" ""
attr source computeTDistribution
vector 8 Aerocom.aircraft[0].dataLink[7] tDistribution:vector ETV
attr "" ""
attr source computeTDistribution
vector 9 Aerocom.aircraft[0].dataLink[5] tDistribution:vector ETV
attr "" ""
attr source computeTDistribution
vector 10 Aerocom.aircraft[0].dataLink[0] tDistribution:vector ETV
attr "" ""
attr source computeTDistribution
vector 11 Aerocom.aircraft[0].dataLink[8] tDistribution:vector ETV
attr "" ""
attr source computeTDistribution
vector 12 Aerocom.aircraft[0].dataLink[9] tDistribution:vector ETV
attr "" ""
attr source computeTDistribution
vector 13 Aerocom.aircraft[0].dataLink[0] actualCapacity:vector ETV
attr "" ""
attr source computeActualCapacity
vector 14 Aerocom.aircraft[0].dataLink[1] actualCapacity:vector ETV
attr "" ""
attr source computeActualCapacity
vector 15 Aerocom.aircraft[0].dataLink[2] actualCapacity:vector ETV
attr "" ""
attr source computeActualCapacity
vector 16 Aerocom.aircraft[0].dataLink[3] actualCapacity:vector ETV
attr "" ""
attr source computeActualCapacity
vector 17 Aerocom.aircraft[0].dataLink[5] actualCapacity:vector ETV
attr "" ""
attr source computeActualCapacity
vector 18 Aerocom.aircraft[0].dataLink[6] actualCapacity:vector ETV
attr "" ""
attr source computeActualCapacity
vector 19 Aerocom.aircraft[0].dataLink[7] actualCapacity:vector ETV
attr "" ""
attr source computeActualCapacity
vector 20 Aerocom.aircraft[0].dataLink[8] actualCapacity:vector ETV
attr "" ""
attr source computeActualCapacity
vector 21 Aerocom.aircraft[0].dataLink[9] actualCapacity:vector ETV
attr "" ""
attr source computeActualCapacity
vector 22 Aerocom.aircraft[0].dataLink[3] tDistribution:vector ETV
attr "" ""
attr source computeTDistribution
vector 23 Aerocom.aircraft[0].dataLink[4] tDistribution:vector ETV
attr "" ""
attr source computeTDistribution
vector 24 Aerocom.aircraft[0].dataLink[6] tDistribution:vector ETV
attr "" ""
attr source computeTDistribution
0	3614 1342437 5572 191611 10.002616319138 334.179259405181 32768 4.011e-008 0.107223249796 324.17673621716 6.4215077879631
1	1346051 1197089 5573 191615 10.002616319138 334.182756470432 32768 0 0.604371258921 1516.635597236 526.75120085455
2	2543140 924043 5573 191615 10.002616319138 334.182756470432 32768 0 67 155708 5680050
4	3467183 1472948 5573 191615 10.002616319138 334.182756470432 32768 0.0070056044835869 0.0087314456779344 247.34006398671 1.8727530722195
5	4940131 1342524 5578 191620 10.009905707871 334.190080944639 32768 0.007014028056 0.611486526252 1763.9756612223 551.20631512889
0	6282655 272531 191613 229541 334.179352536302 399.974672125632 6522 2.306095e-006 0.10350655095 65.828555667873 1.3356747668135
1	6555186 239053 191616 229546 334.182976348608 399.984099754583 6522 0 0.52244434622 213.56117030209 66.227169404289
2	6794239 189012 191616 229546 334.182976348608 399.984099754583 6522 0 55 22061 726651
3	6983251 109273 5573 229553 10.002616319138 400 3564 8045 9980 31902520 286717627052
4	7092524 298421 191616 229546 334.182976348608 399.984099754583 6522 0.0070105157736605 0.0086580086580087 48.766874654105 0.36558568678808
5	7390945 272482 191623 229550 334.190301589294 399.991964923122 6522 0.007010515774 0.529831429377 262.32804495611 69.729528028291
6	7663427 7870 5639 228410 10.108197594216 398.088369796402 185 0.0066820356987456 12.73031428991 396.86298794996 1623.8347515601
7	7671297 8862 5646 228012 10.118477058203 397.558805043633 208 0.0041287413231739 10.183260310139 395.22270641998 1456.7542704876
8	7680159 9186 5769 229175 10.33332325754 399.333067430601 215 0.00077673227493106 10.576838072839 389.79085381369 1482.1836615119
9	7689345 8566 6146 229385 10.906402754895 399.686148362669 202 0.0049710174278149 10.878397109943 389.80983006386 1506.3173147908
10	7697911 8936 6271 229317 11.154402806452 399.568904735542 205 0.026650848306815 8.9434407592357 391.98412032014 1363.8043493512
11	7706847 7784 6475 228505 11.548798313583 398.231772090748 179 0.00024718362899742 15.502404790664 390.4007084239 1835.4558401444
12	7714631 8411 6663 228377 11.840764687096 398.015447176651 193 0.0051718301887234 13.008934958902 388.53607179952 1591.3147854771
13	7723042 184903 6772 229553 12 400 5820 8022 9962 54769937 516609844913
14	7907945 182750 6772 229553 12 400 5663 8028 9904 53212295 501086439543
15	8090695 157687 6772 229553 12 400 4905 8023 9977 45432576 422181819384
16	8248382 114814 6772 229553 12 400 3640 8084 9970 34334413 324612343337
17	8363196 117192 6772 229553 12 400 3663 8017 9986 33164823 301275283331
18	8480388 79745 6772 229553 12 400 2541 8110 9985 24016898 227288672048
19	8560133 95221 6772 229553 12 400 2974 8031 9980 27777442 259994055678
20	8655354 90492 6772 229553 12 400 2881 8036 9992 27471837 262263457835
21	8745846 149003 6772 229553 12 400 4619 8111 9932 42697760 395725241022
22	8894849 9342 6977 227499 12.351795081565 396.748910847202 214 0.0037688641377702 8.7330713792533 391.09610518445 1399.6917749019
23	8904191 9909 7190 226686 12.816289886563 395.483655140687 227 0.00093716124287715 8.9792967001633 388.75865197493 1334.0402886836
24	8914100 7635 10824 228446 19.157218708739 398.124100143442 175 0.0030838470345357 14.577784375094 384.36506644851 1855.2118041636

