file 2506262 1613553641                                         
version 2
run Exponential-capacity-9-20210217-10:20:40-1044
attr configname Exponential-capacity
attr datetime 20210217-10:20:40
attr experiment Exponential-capacity
attr inifile aerocom.ini
attr iterationvars "$0=35, $1=1.5"
attr iterationvarsf 35,1.5-
attr measurement "$0=35, $1=1.5"
attr network Aerocom
attr processid 1044
attr repetition 0
attr replication #0
attr resultdir results
attr runnumber 9
attr seedset 0
param **.t 3s
param **.k 35ms
param **.X 0.5s
param **.m 1.5s
param **.tDistribution "\"exponential\""
param **.operationMode 0
param **.s "70 byte"
param **.dimPoolMax 10000
param **.dimPoolMin 8000
param **.nDL 10
param **.nA 1
param **.DLMaxCapacity 0
param **.trasmitting false

vector 0 Aerocom.aircraft[0].packetGenerator arrivalTime:vector ETV
attr "" ""
attr source computeArrivalTime
vector 1 Aerocom.aircraft[0].linkSelector waitingTime:vector ETV
attr "" ""
attr source computeWaitingTime
vector 2 Aerocom.aircraft[0].linkSelector queueLength:vector ETV
attr "" ""
attr source computeQueueLength
vector 3 Aerocom.aircraft[0].dataLink[1] actualCapacity:vector ETV
attr "" ""
attr source computeActualCapacity
vector 4 Aerocom.aircraft[0].linkSelector serviceTime:vector ETV
attr "" ""
attr source computeServiceTime
vector 5 Aerocom.aircraft[0].linkSelector responseTime:vector ETV
attr "" ""
attr source computeResponseTime
vector 6 Aerocom.aircraft[0].dataLink[4] tDistribution:vector ETV
attr "" ""
attr source computeTDistribution
vector 7 Aerocom.aircraft[0].dataLink[6] tDistribution:vector ETV
attr "" ""
attr source computeTDistribution
vector 8 Aerocom.aircraft[0].dataLink[1] tDistribution:vector ETV
attr "" ""
attr source computeTDistribution
vector 9 Aerocom.aircraft[0].dataLink[0] actualCapacity:vector ETV
attr "" ""
attr source computeActualCapacity
vector 10 Aerocom.aircraft[0].dataLink[2] actualCapacity:vector ETV
attr "" ""
attr source computeActualCapacity
vector 11 Aerocom.aircraft[0].dataLink[3] actualCapacity:vector ETV
attr "" ""
attr source computeActualCapacity
vector 12 Aerocom.aircraft[0].dataLink[4] actualCapacity:vector ETV
attr "" ""
attr source computeActualCapacity
vector 13 Aerocom.aircraft[0].dataLink[5] actualCapacity:vector ETV
attr "" ""
attr source computeActualCapacity
vector 14 Aerocom.aircraft[0].dataLink[6] actualCapacity:vector ETV
attr "" ""
attr source computeActualCapacity
vector 15 Aerocom.aircraft[0].dataLink[7] actualCapacity:vector ETV
attr "" ""
attr source computeActualCapacity
vector 16 Aerocom.aircraft[0].dataLink[8] actualCapacity:vector ETV
attr "" ""
attr source computeActualCapacity
vector 17 Aerocom.aircraft[0].dataLink[9] actualCapacity:vector ETV
attr "" ""
attr source computeActualCapacity
vector 18 Aerocom.aircraft[0].dataLink[5] tDistribution:vector ETV
attr "" ""
attr source computeTDistribution
vector 19 Aerocom.aircraft[0].dataLink[8] tDistribution:vector ETV
attr "" ""
attr source computeTDistribution
vector 20 Aerocom.aircraft[0].dataLink[0] tDistribution:vector ETV
attr "" ""
attr source computeTDistribution
vector 21 Aerocom.aircraft[0].dataLink[2] tDistribution:vector ETV
attr "" ""
attr source computeTDistribution
vector 22 Aerocom.aircraft[0].dataLink[7] tDistribution:vector ETV
attr "" ""
attr source computeTDistribution
vector 23 Aerocom.aircraft[0].dataLink[9] tDistribution:vector ETV
attr "" ""
attr source computeTDistribution
vector 24 Aerocom.aircraft[0].dataLink[3] tDistribution:vector ETV
attr "" ""
attr source computeTDistribution
0	3584 445886 1602 60652 10.089882227233 399.938715992406 11034 1.937316e-006 0.358136874346 389.93503104393 27.464644176194
1	449470 370743 1603 60653 10.089882227233 399.938715992406 11034 0 0.508232440466 959.12284953242 316.66546517333
2	820213 302694 1603 60653 10.089882227233 399.938715992406 11034 0 22 27024 274342
3	1122907 42331 1603 60535 10.089882227233 399 1483 8077 9906 14114528 134537017792
4	1165238 487737 1603 60653 10.089882227233 399.938715992406 11034 0.0070063056751076 0.0087270913851141 80.82835308572 0.59302221857056
5	1652975 445874 1604 60654 10.097228223665 399.946275387654 11034 0.007006305675 0.515313160676 1039.951202618 331.22801191113
6	2098849 6474 1617 60322 10.203684607688 397.281470896017 155 0.010739517205868 10.933740481042 391.20523465692 1867.3384032852
7	2105323 5359 1628 60605 10.276687748401 399.582664491057 128 0.0046257705518035 21.866676562641 394.65348847132 2680.3533415531
8	2110682 4999 1649 60612 10.379485951627 399.598350968059 120 0.010023053548118 19.095471434865 392.76340000707 2407.0567308421
9	2115681 55043 1665 60535 10.5 399 1908 8065 9960 18093745 171967218115
10	2170724 23063 1665 60535 10.5 399 842 8018 9967 7823942 72933763150
11	2193787 36434 1665 60535 10.5 399 1267 8077 9942 12048735 114755855545
12	2230221 37369 1665 60535 10.5 399 1297 8021 9966 12202212 115151810612
13	2267590 35732 1665 60535 10.5 399 1234 8016 9986 11609196 109428535832
14	2303322 32566 1665 60535 10.5 399 1130 8168 9921 10596555 99600810287
15	2335888 40062 1665 60653 10.5 399.938715992406 1369 8031 9987 12867470 121242797786
16	2375950 44794 1665 60535 10.5 399 1543 8036 9991 14775654 141704545250
17	2420744 45906 1665 60535 10.5 399 1561 8021 9946 14805686 140748584674
18	2466650 6227 1668 60551 10.512701937009 399.26724886852 146 0.0074565261417224 13.460148239681 393.83660967434 2049.2077779932
19	2472877 4693 1769 59740 11.360882962893 393.499445083393 110 0.00037077544349613 23.253607185995 395.47160748284 3033.4957189197
20	2477570 5676 1853 60227 11.986246086418 396.616178795411 133 0.039976272460222 11.530792426723 388.43385299836 2058.0400242859
21	2483246 5821 1862 60076 12.109370541993 395.436018372776 136 0.0061931119847609 15.274890465208 389.19202620404 2037.979323136
22	2489067 5604 1889 60534 12.313726549034 398.971737981676 131 0.029300814333314 15.865257109258 388.93846333758 2425.3017972606
23	2494671 5526 2033 60560 13.034736668212 399.363504255394 129 0.0077577452830852 19.513402438353 388.62563507912 2515.9534008334
24	2500197 6063 2863 60498 18.527692622347 398.597767503948 142 0.0056532962066554 13.09960706888 383.31012451243 1994.1847888339

