file 1660353 1613383353                                         
version 2
run Exponential-capacity-11-20210215-11:02:33-7332
attr configname Exponential-capacity
attr datetime 20210215-11:02:33
attr experiment Exponential-capacity
attr inifile aerocom.ini
attr iterationvars "$0=50, $1=3"
attr iterationvarsf 50,3-
attr measurement "$0=50, $1=3"
attr network Aerocom
attr processid 7332
attr repetition 0
attr replication #0
attr resultdir results
attr runnumber 11
attr seedset 0
param **.t 1s
param **.k 50ms
param **.X 0.4s
param **.m 3s
param **.tDistribution "\"exponential\""
param **.operationMode 0
param **.s "70 byte"
param **.dimPoolMax 10000
param **.dimPoolMin 8000
param **.nDL 1
param **.nA 1
param **.DLMaxCapacity 0
param **.trasmitting false

vector 0 Aerocom.aircraft[0].packetGenerator arrivalTime:vector ETV
attr "" ""
attr source computeArrivalTime
vector 1 Aerocom.aircraft[0].linkSelector waitingTime:vector ETV
attr "" ""
attr source computeWaitingTime
vector 2 Aerocom.aircraft[0].linkSelector queueLength:vector ETV
attr "" ""
attr source computeQueueLength
vector 3 Aerocom.aircraft[0].dataLink[0] actualCapacity:vector ETV
attr "" ""
attr source computeActualCapacity
vector 4 Aerocom.aircraft[0].linkSelector serviceTime:vector ETV
attr "" ""
attr source computeServiceTime
vector 5 Aerocom.aircraft[0].linkSelector responseTime:vector ETV
attr "" ""
attr source computeResponseTime
vector 6 Aerocom.aircraft[0].dataLink[0] tDistribution:vector ETV
attr "" ""
attr source computeTDistribution
0	1510 310091 1021 41119 10.005245567619 399.990973989844 7687 2.767595e-006 0.511624106208 390.00681941603 39.585679544771
1	311601 237312 1022 41120 10.005245567619 399.990973989844 7687 0 0.406170722883 217.2655068085 56.589945404394
2	548913 209908 1022 41120 10.005245567619 399.990973989844 7687 0 16 4295 25615
3	758821 235202 1022 41120 10.005245567619 399.990973989844 7817 8022 9991 70099123 630291380367
4	994023 339489 1022 41120 10.005245567619 399.990973989844 7687 0.0070063056751076 0.0087260034904014 60.162118947506 0.47212042731922
5	1333512 310009 1023 41121 10.013235523104 399.998720780459 7687 0.007006305675 0.413339915837 277.42762575601 60.460139331152
6	1643521 16830 1043 40893 10.19835258653 398.023229865342 400 0.00012359181449871 5.0916301550693 389.91689248652 726.70497007989

