file 6213890 1613502080                                         
version 2
run Exponential-capacity-6-20210216-20:01:18-9872
attr configname Exponential-capacity
attr datetime 20210216-20:01:18
attr experiment Exponential-capacity
attr inifile aerocom.ini
attr iterationvars "$0=15, $1=0.5"
attr iterationvarsf 15,0.5-
attr measurement "$0=15, $1=0.5"
attr network Aerocom
attr processid 9872
attr repetition 0
attr replication #0
attr resultdir results
attr runnumber 6
attr seedset 0
param **.t 1s
param **.k 15ms
param **.X 50ms
param **.m 0.5s
param **.tDistribution "\"exponential\""
param **.operationMode 0
param **.s "70 byte"
param **.dimPoolMax 10000
param **.dimPoolMin 8000
param **.nDL 10
param **.nA 1
param **.DLMaxCapacity 0
param **.trasmitting false

vector 0 Aerocom.aircraft[0].dataLink[0] actualCapacity:vector ETV
attr "" ""
attr source computeActualCapacity
vector 1 Aerocom.aircraft[0].dataLink[1] actualCapacity:vector ETV
attr "" ""
attr source computeActualCapacity
vector 2 Aerocom.aircraft[0].dataLink[2] actualCapacity:vector ETV
attr "" ""
attr source computeActualCapacity
vector 3 Aerocom.aircraft[0].dataLink[3] actualCapacity:vector ETV
attr "" ""
attr source computeActualCapacity
vector 4 Aerocom.aircraft[0].dataLink[4] actualCapacity:vector ETV
attr "" ""
attr source computeActualCapacity
vector 5 Aerocom.aircraft[0].dataLink[5] actualCapacity:vector ETV
attr "" ""
attr source computeActualCapacity
vector 6 Aerocom.aircraft[0].dataLink[6] actualCapacity:vector ETV
attr "" ""
attr source computeActualCapacity
vector 7 Aerocom.aircraft[0].dataLink[7] actualCapacity:vector ETV
attr "" ""
attr source computeActualCapacity
vector 8 Aerocom.aircraft[0].dataLink[8] actualCapacity:vector ETV
attr "" ""
attr source computeActualCapacity
vector 9 Aerocom.aircraft[0].dataLink[9] actualCapacity:vector ETV
attr "" ""
attr source computeActualCapacity
vector 10 Aerocom.aircraft[0].linkSelector responseTime:vector ETV
attr "" ""
attr source computeResponseTime
vector 11 Aerocom.aircraft[0].packetGenerator arrivalTime:vector ETV
attr "" ""
attr source computeArrivalTime
vector 12 Aerocom.aircraft[0].linkSelector waitingTime:vector ETV
attr "" ""
attr source computeWaitingTime
vector 13 Aerocom.aircraft[0].linkSelector queueLength:vector ETV
attr "" ""
attr source computeQueueLength
vector 14 Aerocom.aircraft[0].linkSelector serviceTime:vector ETV
attr "" ""
attr source computeServiceTime
vector 15 Aerocom.aircraft[0].dataLink[4] tDistribution:vector ETV
attr "" ""
attr source computeTDistribution
vector 16 Aerocom.aircraft[0].dataLink[5] tDistribution:vector ETV
attr "" ""
attr source computeTDistribution
vector 17 Aerocom.aircraft[0].dataLink[0] tDistribution:vector ETV
attr "" ""
attr source computeTDistribution
vector 18 Aerocom.aircraft[0].dataLink[3] tDistribution:vector ETV
attr "" ""
attr source computeTDistribution
vector 19 Aerocom.aircraft[0].dataLink[8] tDistribution:vector ETV
attr "" ""
attr source computeTDistribution
vector 20 Aerocom.aircraft[0].dataLink[9] tDistribution:vector ETV
attr "" ""
attr source computeTDistribution
vector 21 Aerocom.aircraft[0].dataLink[6] tDistribution:vector ETV
attr "" ""
attr source computeTDistribution
vector 22 Aerocom.aircraft[0].dataLink[1] tDistribution:vector ETV
attr "" ""
attr source computeTDistribution
vector 23 Aerocom.aircraft[0].dataLink[7] tDistribution:vector ETV
attr "" ""
attr source computeTDistribution
vector 24 Aerocom.aircraft[0].dataLink[2] tDistribution:vector ETV
attr "" ""
attr source computeTDistribution
0	3584 126367 3757 151897 10 400 4399 8009 9971 41656261 395212295139
1	129951 102118 3757 151897 10 400 3603 8032 9978 34153936 324357410646
2	232069 74745 3757 151897 10 400 2730 8018 9981 25731211 243129091221
3	306814 120734 3757 151897 10 400 4206 8010 9972 39994559 381029849563
4	427548 82741 3757 151897 10 400 2965 8013 9980 27863947 262533395463
5	510289 100712 3757 151897 10 400 3549 8016 9988 33545687 317687294049
6	611001 81324 3757 151897 10 400 2927 8028 9981 27563056 260119669492
7	692325 92254 3757 151897 10 400 3285 8031 9987 30960974 292441569716
8	784579 86876 3757 151897 10 400 3117 8029 9995 29492586 279631916470
9	871455 89770 3757 151897 10 400 3218 8020 9972 30274044 285468832500
10	961225 1096494 3758 151894 10.001873568795 399.968027505426 26190 0.007003501751 0.102884575593 357.68401686601 8.8750827873734
11	2057719 1096342 3761 151892 10.020364233319 399.960743426342 26189 3.00452e-007 0.160834874694 389.99668517737 11.590851499697
12	3154061 930627 3767 151893 10.051873568795 399.960743426342 26189 0 0.095748272198 166.09400052892 5.052956318202
13	4084688 756306 3767 151893 10.051873568795 399.960743426342 26189 0 11 11373 35975
14	4840994 1198367 3767 151893 10.051873568795 399.960743426342 26189 0.0070035017508754 0.0087390761548065 191.58220128252 1.4033081902087
15	6039361 19525 3841 151736 10.195530479815 399.531824074835 448 0.00046858062143858 4.5969873950114 392.60944509323 663.24396395861
16	6058886 16219 3872 151346 10.231100016177 398.599861515051 373 0.0024855087139075 5.8553159328738 390.84022742546 802.17398724391
17	6075105 18073 3963 151347 10.427056730335 398.62556036574 414 0.004703906220746 5.6853850636561 391.58372694686 721.55513685387
18	6093178 18101 4031 151687 10.589143172582 399.384120383163 415 0.0018844320688851 5.4400638357789 389.86273410498 710.29195188133
19	6111279 17576 4194 151574 11.019995833196 399.139608699086 402 0.00012359181449871 7.7512023953318 390.10962708975 845.86750006598
20	6128855 16878 4251 151068 11.167216926612 397.8417113111 387 0.0025859150943617 6.5044674794512 388.92988761984 770.5822460086
21	6145733 16367 4424 151110 11.770581468296 398.054009604438 375 0.0015419235172678 7.2888921875472 388.51856274567 827.55298216986
22	6162100 17065 4770 150785 12.476454100424 396.963073561627 391 0.0027066362142686 6.3651571449549 387.88865806586 753.37949136275
23	6179165 18232 5066 151340 13.481960993213 398.584954438043 418 0.00038836613746553 5.4284265520006 387.88024916169 747.54762606095
24	6197397 16491 5481 151348 14.694997286335 398.628191179598 379 0.00090222306082665 5.2881247296081 386.67360661758 751.94746314648

