version 2
run Exponential-capacity-0-20210213-16:39:55-10840
attr configname Exponential-capacity
attr datetime 20210213-16:39:55
attr experiment Exponential-capacity
attr inifile aerocom.ini
attr iterationvars ""
attr iterationvarsf ""
attr measurement ""
attr network Aerocom
attr processid 10840
attr repetition 0
attr replication #0
attr resultdir results
attr runnumber 0
attr seedset 0
param **.t 2s
param **.k 50ms
param **.s "70 byte"
param **.X 0.4s
param **.nDL 10
param **.nA 1
param **.dimPoolMax 10000
param **.dimPoolMin 8000
param **.tDistribution "\"exponential\""
param **.m 4s
param **.DLMaxCapacity 0
param **.trasmitting false
param **.operationMode 0

vector 0 Aerocom.aircraft[0].packetGenerator arrivalTime:vector ETV
attr "" ""
attr source computeArrivalTime
vector 1 Aerocom.aircraft[0].linkSelector waitingTime:vector ETV
attr "" ""
attr source computeWaitingTime
vector 2 Aerocom.aircraft[0].linkSelector queueLength:vector ETV
attr "" ""
attr source computeQueueLength
vector 3 Aerocom.aircraft[0].dataLink[4] actualCapacity:vector ETV
attr "" ""
attr source computeActualCapacity
vector 4 Aerocom.aircraft[0].linkSelector serviceTime:vector ETV
attr "" ""
attr source computeServiceTime
vector 5 Aerocom.aircraft[0].dataLink[4] responseTime:vector ETV
attr "" ""
attr source computeResponseTime
vector 6 Aerocom.aircraft[0].dataLink[1] tDistribution:vector ETV
attr "" ""
attr source computeTDistribution
vector 7 Aerocom.aircraft[0].dataLink[2] tDistribution:vector ETV
attr "" ""
attr source computeTDistribution
vector 8 Aerocom.aircraft[0].dataLink[7] tDistribution:vector ETV
attr "" ""
attr source computeTDistribution
vector 9 Aerocom.aircraft[0].dataLink[5] tDistribution:vector ETV
attr "" ""
attr source computeTDistribution
vector 10 Aerocom.aircraft[0].dataLink[0] tDistribution:vector ETV
attr "" ""
attr source computeTDistribution
vector 11 Aerocom.aircraft[0].dataLink[8] tDistribution:vector ETV
attr "" ""
attr source computeTDistribution
vector 12 Aerocom.aircraft[0].dataLink[9] tDistribution:vector ETV
attr "" ""
attr source computeTDistribution
vector 13 Aerocom.aircraft[0].dataLink[0] actualCapacity:vector ETV
attr "" ""
attr source computeActualCapacity
vector 14 Aerocom.aircraft[0].dataLink[1] actualCapacity:vector ETV
attr "" ""
attr source computeActualCapacity
vector 15 Aerocom.aircraft[0].dataLink[2] actualCapacity:vector ETV
attr "" ""
attr source computeActualCapacity
vector 16 Aerocom.aircraft[0].dataLink[3] actualCapacity:vector ETV
attr "" ""
attr source computeActualCapacity
vector 17 Aerocom.aircraft[0].dataLink[5] actualCapacity:vector ETV
attr "" ""
attr source computeActualCapacity
vector 18 Aerocom.aircraft[0].dataLink[6] actualCapacity:vector ETV
attr "" ""
attr source computeActualCapacity
vector 19 Aerocom.aircraft[0].dataLink[7] actualCapacity:vector ETV
attr "" ""
attr source computeActualCapacity
vector 20 Aerocom.aircraft[0].dataLink[8] actualCapacity:vector ETV
attr "" ""
attr source computeActualCapacity
vector 21 Aerocom.aircraft[0].dataLink[9] actualCapacity:vector ETV
attr "" ""
attr source computeActualCapacity
vector 22 Aerocom.aircraft[0].dataLink[3] tDistribution:vector ETV
attr "" ""
attr source computeTDistribution
vector 23 Aerocom.aircraft[0].dataLink[4] tDistribution:vector ETV
attr "" ""
attr source computeTDistribution
vector 24 Aerocom.aircraft[0].dataLink[8] responseTime:vector ETV
attr "" ""
attr source computeResponseTime
vector 25 Aerocom.aircraft[0].dataLink[6] tDistribution:vector ETV
attr "" ""
attr source computeTDistribution
vector 26 Aerocom.aircraft[0].dataLink[5] responseTime:vector ETV
attr "" ""
attr source computeResponseTime
vector 27 Aerocom.aircraft[0].dataLink[2] responseTime:vector ETV
attr "" ""
attr source computeResponseTime
vector 28 Aerocom.aircraft[0].dataLink[3] responseTime:vector ETV
attr "" ""
attr source computeResponseTime
vector 29 Aerocom.aircraft[0].dataLink[0] responseTime:vector ETV
attr "" ""
attr source computeResponseTime
vector 30 Aerocom.aircraft[0].dataLink[7] responseTime:vector ETV
attr "" ""
attr source computeResponseTime
vector 31 Aerocom.aircraft[0].dataLink[9] responseTime:vector ETV
attr "" ""
attr source computeResponseTime
vector 32 Aerocom.aircraft[0].dataLink[6] responseTime:vector ETV
attr "" ""
attr source computeResponseTime
vector 33 Aerocom.aircraft[0].dataLink[1] responseTime:vector ETV
attr "" ""
attr source computeResponseTime
0	1072	10.005245567619	0.042154151607
0	1077	10.047399719226	0.015736083043
0	1082	10.063135802269	0.060825432672
0	1089	10.123961234941	0.066437893688
0	1094	10.190399128629	0.017017336912
0	1099	10.207416465541	0.163757158886
0	1106	10.371173624427	0.028395207674
0	1111	10.399568832101	0.014301048625
0	1116	10.413869880726	0.070551220465
0	1122	10.484421101191	0.042919648391
0	1127	10.527340749582	0.025217190329
0	1132	10.552557939911	0.044829543539
0	1137	10.59738748345	0.113186678793
0	1143	10.710574162243	0.042461040578
0	1148	10.753035202821	0.050932936501
0	1153	10.803968139322	0.012620999645
0	1158	10.816589138967	0.111075344924
0	1164	10.927664483891	0.152614082844
0	1169	11.080278566735	0.056980398177
0	1174	11.137258964912	0.029631201373
0	1180	11.166890166285	0.029818969716
0	1185	11.196709136001	0.093672993993
0	1190	11.290382129994	0.192150329162
0	1195	11.482532459156	0.060111928362
0	1200	11.542644387518	0.006176332368
0	1203	11.548820719886	0.017651006664
0	1211	11.56647172655	0.072840927928
0	1216	11.639312654478	0.084046110227
0	1221	11.723358764705	0.026536124831
0	1226	11.749894889536	0.025250937388
0	1231	11.775145826924	0.056264100842
0	1236	11.831409927766	0.106474969803
0	1242	11.937884897569	0.014370523804
0	1247	11.952255421373	0.043526791316
0	1252	11.995782212689	0.01878694212
0	1258	12.014569154809	0.106741522499
0	1264	12.121310677308	0.168218522653
0	1269	12.289529199961	0.058969146682
0	1275	12.348498346643	0.044393070522
0	1281	12.392891417165	0.06459546344
0	1287	12.457486880605	0.053891744207
0	1292	12.511378624812	0.034789973045
0	1298	12.546168597857	0.038093388565
0	1303	12.584261986422	0.156273417883
0	1308	12.740535404305	0.013102862084
0	1313	12.753638266389	0.051639850532
0	1319	12.805278116921	0.025115539913
0	1325	12.830393656834	0.027569799507
0	1330	12.857963456341	0.048222678275
0	1335	12.906186134616	0.04662014402
0	1340	12.952806278636	0.032205235416
0	1345	12.985011514052	0.000968989067
0	1347	12.985980503119	0.031756385782
0	1355	13.017736888901	0.017946360793
0	1360	13.035683249694	0.062952175863
0	1365	13.098635425557	0.053966009933
0	1371	13.15260143549	0.016983236629
0	1377	13.169584672119	0.017129981235
0	1382	13.186714653354	0.024181784329
0	1387	13.210896437683	0.048118752789
0	1392	13.259015190472	0.069148960327
0	1397	13.328164150799	0.027998053504
0	1402	13.356162204303	0.105372380248
0	1408	13.461534584551	0.007278698922
0	1410	13.468813283473	0.005427354925
0	1415	13.474240638398	0.017711206612
0	1423	13.49195184501	0.004846137729
0	1425	13.496797982739	0.04219442363
0	1433	13.538992406369	0.021851400689
0	1438	13.560843807058	0.044686453915
0	1443	13.605530260973	0.040127599288
0	1448	13.645657860261	0.042703986782
0	1453	13.688361847043	0.001710170918
0	1455	13.690072017961	0.052950469269
0	1463	13.74302248723	0.173626773964
0	1468	13.916649261194	0.052792480433
0	1474	13.969441741627	0.019356504607
0	1479	13.988798246234	0.028230525056
0	1484	14.01702877129	0.012504074749
0	1489	14.029532846039	0.113431699635
0	1494	14.142964545674	0.007614681263
0	1496	14.150579226937	0.022908644198
0	1504	14.173487871135	0.005116030743
0	1506	14.178603901878	0.028623077571
0	1514	14.207226979449	0.206890488026
0	1523	14.414117467475	0.111245732861
0	1528	14.525363200336	0.015078295661
0	1533	14.540441495997	0.082044878896
0	1538	14.622486374893	0.038503842977
0	1543	14.66099021787	0.060850974767
0	1548	14.721841192637	0.029703674916
0	1553	14.751544867553	0.005280632181
0	1555	14.756825499734	0.00524409178
0	1560	14.762069591514	0.125964106504
0	1568	14.888033698018	0.021717282797
0	1573	14.909750980815	0.062630376246
0	1579	14.972381357061	0.031673130886
0	1584	15.004054487947	0.338269525997
0	1589	15.342324013944	0.091986639254
0	1594	15.434310653198	0.008093504336
0	1596	15.442404157534	0.117508864488
0	1605	15.559913022022	0.101295440855
0	1610	15.661208462877	0.001914145644
0	1612	15.663122608521	0.008866278757
0	1617	15.671988887278	0.035495896361
0	1625	15.707484783639	0.047798321196
0	1630	15.755283104835	0.009126930094
0	1635	15.764410034929	0.006609185481
0	1637	15.77101922041	0.07549117278
0	1646	15.84651039319	0.094196444329
0	1651	15.940706837519	0.100099324776
0	1657	16.040806162295	0.082335955066
0	1659	16.123142117361	0.026500143907
0	1661	16.149642261268	0.042094048087
0	1663	16.191736309355	0.00753955051
0	1665	16.199275859865	0.026143501504
0	1667	16.225419361369	0.001689339278
0	1669	16.227108700647	0.003583769216
0	1671	16.230692469863	0.20249234194
0	1689	16.433184811803	0.059771928314
0	1706	16.492956740117	0.02336362832
0	1711	16.516320368437	0.030214953592
0	1716	16.546535322029	0.027242856407
0	1721	16.573778178436	0.064016710191
0	1726	16.637794888627	0.002595627609
0	1728	16.640390516236	0.10063863681
0	1736	16.741029153046	0.02274559224
0	1741	16.763774745286	0.185498029595
0	1747	16.949272774881	0.0008383883
0	1749	16.950111163181	0.096828861875
0	1757	17.046940025056	0.013116465458
0	1763	17.060056490514	0.000589161596
0	1765	17.06064565211	0.072389704099
0	1773	17.133035356209	0.022312641026
0	1778	17.155347997235	0.144230587605
0	1783	17.29957858484	0.065464918201
0	1790	17.365043503041	0.069314567601
0	1795	17.434358070642	0.009414748761
0	1800	17.443772819403	0.020730627133
0	1805	17.464503446536	0.036806554999
0	1810	17.501310001535	0.033623025842
0	1815	17.534933027377	0.002793502644
0	1817	17.537726530021	0.020698946134
0	1825	17.558425476155	0.011156960405
0	1830	17.56958243656	0.009891475373
0	1835	17.579473911933	0.000934773521
0	1837	17.580408685454	0.00937594756
0	1842	17.589784633014	0.078920636105
0	1850	17.668705269119	0.031129867199
0	1855	17.699835136318	0.012675285257
0	1860	17.712510421575	0.103801553022
0	1865	17.816311974597	0.021182855068
0	1870	17.837494829665	0.14422721442
0	1875	17.981722044085	0.131610943127
0	1880	18.113332987212	0.046856935886
0	1886	18.160189923098	0.060939840167
0	1891	18.221129763265	0.045398201366
0	1896	18.266527964631	0.001617840232
0	1898	18.268145804863	0.076541561313
0	1906	18.344687366176	0.008997867078
0	1911	18.353685233254	0.034659988477
0	1917	18.388345221731	0.048574107905
0	1923	18.436919329636	0.00258414529
0	1925	18.439503474926	0.043046181834
0	1933	18.48254965676	0.060048545327
0	1938	18.542598202087	0.013583403517
0	1943	18.556181605604	0.2439566444
0	1950	18.800138250004	0.136067412796
0	1955	18.9362056628	0.015548390248
0	1960	18.951754053048	0.047591485377
0	1965	18.999345538425	0.056829824763
0	1970	19.056175363188	0.038353982729
0	1975	19.094529345917	0.099858598374
0	1982	19.194387944291	0.044568928846
0	1988	19.238956873137	0.069483853189
0	1994	19.308440726326	0.065489268568
0	1999	19.373929994894	0.166896716693
0	2004	19.540826711587	0.018694324795
0	2009	19.559521036382	0.04039900267
0	2014	19.599920039052	0.025393256134
0	2019	19.625313295186	0.011937643642
0	2024	19.637250938828	0.011776228671
0	2029	19.649027167499	0.012579930656
0	2034	19.661607098155	0.010301602424
0	2039	19.671908700579	0.01234296344
0	2044	19.684251664019	0.144453779595
0	2049	19.828705443614	0.042148938771
0	2054	19.870854382385	0.067267371662
0	2060	19.938121754047	0.030083949326
0	2065	19.968205703373	0.033712228482
0	2071	20.001917931855	0.175723934027
0	2073	20.177641865882	0.012900638197
0	2075	20.190542504079	0.057056895143
0	2077	20.247599399222	0.014675382596
0	2079	20.262274781818	0.0044577145
0	2081	20.266732496318	0.002989048146
0	2083	20.269721544464	0.002903618106
0	2085	20.27262516257	0.028494878265
0	2087	20.301120040835	0.033455686184
0	2089	20.334575727019	0.01868348972
0	2091	20.353259216739	0.106433504727
0	2119	20.459692721466	0.059592905183
0	2134	20.519285626649	0.187334730691
0	2139	20.70662035734	0.023720814517
0	2144	20.730341171857	0.048071978579
0	2149	20.778413150436	0.009898386767
0	2154	20.788311537203	0.039098786044
0	2159	20.827410323247	0.001249417666
0	2161	20.828659740913	0.096418006844
0	2170	20.925077747757	0.003480883554
0	2172	20.928558631311	0.068096586215
0	2180	20.996655217526	0.056876925277
0	2185	21.053532142803	0.032561536596
0	2190	21.086093679399	0.030229060917
0	2195	21.116322740316	0.056517777296
0	2200	21.172840517612	0.038455990055
0	2206	21.211296507667	0.04670301663
0	2211	21.257999524297	0.113492000789
0	2216	21.371491525086	0.062710163505
0	2221	21.434201688591	0.231982626319
0	2226	21.66618431491	0.03169650097
0	2231	21.69788081588	0.012224551102
0	2236	21.710105366982	0.030441645687
0	2241	21.740547012669	0.054395221681
0	2247	21.79494223435	0.118445908542
0	2252	21.913388142892	0.015280245091
0	2257	21.928668387983	0.007379801645
0	2262	21.936048189628	0.001043360931
0	2264	21.937091550559	0.013017570577
0	2269	21.950109121136	0.071019172779
0	2277	22.021128293915	0.106678164374
0	2283	22.127806458289	0.019284384702
0	2288	22.147090842991	0.117392188071
0	2293	22.264483031062	0.024181919374
0	2298	22.288664950436	0.051892503774
0	2304	22.34055745421	0.044375096424
0	2309	22.384932550634	0.019628651409
0	2314	22.404561202043	0.088907166842
0	2319	22.493468368885	0.036668383658
0	2324	22.530136752543	0.049575214645
0	2329	22.579711967188	2.767595e-006
0	2331	22.579714734783	0.103041062044
0	2339	22.682755796827	0.018688164691
0	2344	22.701443961518	0.015978732744
0	2349	22.717422694262	0.027708541452
0	2354	22.745131235714	0.079985972092
0	2359	22.825117207806	0.108288184044
0	2364	22.93340539185	0.010267388437
0	2369	22.943672780287	0.056952882534
0	2374	23.000625662821	0.15265923348
0	2380	23.153284896301	0.030452230635
0	2385	23.183737126936	0.058155664171
0	2390	23.241892791107	0.033025153987
0	2395	23.274917945094	0.012135924684
0	2401	23.287053869778	0.07773314689
0	2406	23.364787016668	0.147224013871
0	2412	23.512011030539	0.013032006469
0	2417	23.525043037008	0.065625399648
0	2423	23.590668436656	0.106137332697
0	2430	23.696805769353	0.014647572924
0	2435	23.711453342277	0.018821467576
0	2440	23.730274809853	0.011996175972
0	2445	23.742270985825	0.157854777071
0	2450	23.900125762896	0.036511383262
0	2455	23.936637146158	0.03190943028
0	2460	23.968546576438	0.00129988726
0	2462	23.969846463698	0.062167538897
0	2471	24.032014002595	0.011626250919
0	2473	24.043640253514	0.008343732062
0	2475	24.051983985576	0.027641918533
0	2477	24.079625904109	0.065548618408
0	2480	24.145174522517	0.023433823799
0	2482	24.168608346316	0.051960281829
0	2484	24.220568628145	0.031141465488
0	2487	24.251710093633	0.012095982239
0	2489	24.263806075872	0.016260800899
0	2491	24.280066876771	0.01031789968
0	2493	24.290384776451	0.044189282802
0	2495	24.334574059253	0.082403808658
0	2504	24.416977867911	0.099701960064
0	2540	24.516679827975	0.06873399769
0	2546	24.585413825665	0.006251629496
0	2548	24.591665455161	0.056173024977
0	2556	24.647838480138	0.036426192137
0	2562	24.684264672275	0.016209955674
0	2567	24.700474627949	0.00708210174
0	2569	24.707556729689	0.009613072042
0	2577	24.717169801731	0.063090633674
0	2582	24.780260435405	0.060949967259
0	2587	24.841210402664	0.025213996663
0	2592	24.866424399327	0.031101845954
0	2597	24.897526245281	0.041668912032
0	2603	24.939195157313	0.091763170147
0	2610	25.03095832746	0.010122938185
0	2615	25.041081265645	0.01146221626
0	2620	25.052543481905	0.007823788519
0	2622	25.060367270424	0.009013714979
0	2630	25.069380985403	0.033477029543
0	2635	25.102858014946	0.006667031164
0	2637	25.10952504611	0.021972769525
0	2646	25.131497815635	0.064021217699
0	2651	25.195519033334	0.141031797421
0	2656	25.336550830755	0.001546314578
0	2658	25.338097145333	0.072477738821
0	2666	25.410574884154	0.068717150721
0	2671	25.479292034875	0.069048154783
0	2676	25.548340189658	0.004858383918
0	2678	25.553198573576	0.117024598033
0	2686	25.670223171609	0.012259904632
0	2691	25.682483076241	0.004355429163
0	2693	25.686838505404	0.069165823308
0	2701	25.756004328712	0.040169588133
0	2706	25.796173916845	0.065781312915
0	2711	25.86195522976	0.043910753936
0	2716	25.905865983696	0.002334387182
0	2718	25.908200370878	0.163424820041
0	2726	26.071625190919	0.011732792463
0	2731	26.083357983382	0.017275979185
0	2736	26.100633962567	0.016907735742
0	2742	26.117541698309	0.013776396852
0	2747	26.131318095161	0.056545923959
0	2752	26.18786401912	0.005284358705
0	2754	26.193148377825	0.003255643239
0	2759	26.196404021064	0.000828304721
0	2761	26.197232325785	0.040557051111
0	2772	26.237789376896	0.132627925776
0	2777	26.370417302672	0.000464151219
0	2779	26.370881453891	0.055420487711
0	2788	26.426301941602	0.089499480224
0	2793	26.515801421826	0.076891435724
0	2799	26.59269285755	0.207798554778
0	2804	26.800491412328	0.016545494059
0	2809	26.817036906387	0.060784523668
0	2814	26.877821430055	0.044144027248
0	2819	26.921965457303	0.010022109754
0	2824	26.931987567057	0.003304600535
0	2826	26.935292167592	0.035912324005
0	2835	26.971204491597	0.033240387478
0	2840	27.004444879075	0.043428286573
0	2845	27.047873165648	0.189701189154
0	2852	27.237574354802	0.077450583958
0	2857	27.31502493876	0.104577828631
0	2862	27.419602767391	0.046630592763
0	2868	27.466233360154	0.020636493336
0	2873	27.48686985349	0.012320791111
0	2878	27.499190644601	0.162946048859
0	2884	27.66213669346	0.030363964431
0	2889	27.692500657891	0.013178855642
0	2894	27.705679513533	0.105544438719
0	2899	27.811223952252	0.149110033774
0	2904	27.960333986026	0.033890100103
0	2909	27.994224086129	0.141832009669
0	2915	28.136056095798	0.062861849779
0	2922	28.198917945577	0.080272938153
0	2927	28.27919088373	0.033292124332
0	2932	28.312483008062	0.049773182168
0	2937	28.36225619023	0.061644023152
0	2944	28.423900213382	0.103688073155
0	2950	28.527588286537	0.034471726892
0	2955	28.562060013429	0.017337665189
0	2960	28.579397678618	0.093071582149
0	2965	28.672469260767	0.094505084905
0	2970	28.766974345672	0.01080481083
0	2975	28.777779156502	0.04810059633
0	2981	28.825879752832	0.074212124133
0	2986	28.900091876965	0.000666262241
0	2988	28.900758139206	0.182982866538
0	2996	29.083741005744	0.021326790602
0	3001	29.105067796346	0.09913744523
0	3006	29.204205241576	0.008016704724
0	3011	29.2122219463	0.075803446491
0	3016	29.288025392791	0.200397482744
0	3024	29.488422875535	0.210092971312
0	3029	29.698515846847	0.032539867118
0	3035	29.731055713965	0.070033784848
0	3040	29.801089498813	0.034397173923
0	3045	29.835486672736	0.000202816066
0	3047	29.835689488802	0.051009354398
0	3055	29.8866988432	0.015699894903
0	3060	29.902398738103	0.022989565889
0	3065	29.925388303992	0.026423361415
0	3070	29.951811665407	0.007361251866
0	3073	29.959172917273	0.0279503835
0	3081	29.987123300773	0.086331668987
0	3086	30.07345496976	0.017679828763
0	3091	30.091134798523	0.01052666441
0	3096	30.101661462933	0.025635732131
0	3101	30.127297195064	0.0358022659
0	3106	30.163099460964	0.006429011864
0	3108	30.169528472828	0.012700568918
0	3116	30.182229041746	0.197381663378
0	3123	30.379610705124	0.005148418186
0	3125	30.38475912331	0.026053941054
0	3133	30.410813064364	0.099094517055
0	3139	30.509907581419	0.042106815142
0	3144	30.552014396561	0.180447050249
0	3151	30.73246144681	0.021049664902
0	3156	30.753511111712	0.161998148345
0	3162	30.915509260057	0.077764718018
0	3167	30.993273978075	0.118519379031
0	3173	31.111793357106	0.026498078964
0	3179	31.13829143607	0.074371487717
0	3184	31.212662923787	0.02225746697
0	3189	31.234920390757	0.020259144117
0	3194	31.255179534874	0.025499541692
0	3199	31.280679076566	0.004228974588
0	3201	31.284908051154	0.017964695256
0	3209	31.30287274641	0.026148382683
0	3214	31.329021129093	0.07463160821
0	3219	31.403652737303	0.013213523207
0	3224	31.41686626051	0.130328590116
0	3231	31.547194850626	0.00710627557
0	3233	31.554301126196	0.019675120556
0	3241	31.573976246752	0.002745368628
0	3243	31.57672161538	0.15274298895
0	3251	31.72946460433	0.06465739294
0	3256	31.79412199727	0.000702329562
0	3258	31.794824326832	0.00057466251
0	3260	31.795398989342	0.038121184211
0	3271	31.833520173553	0.0736102079
0	3276	31.907130381453	0.018162110945
0	3281	31.925292492398	0.007946658983
0	3283	31.933239151381	0.107219273226
0	3293	32.040458424607	0.004143113646
0	3295	32.044601538253	0.014425635517
0	3297	32.05902717377	0.004693727364
0	3299	32.063720901134	0.05656893838
0	3302	32.120289839514	0.055744371095
0	3304	32.176034210609	0.083148289034
0	3306	32.259182499643	0.014076201124
0	3308	32.273258700767	0.028294727082
0	3310	32.301553427849	0.027282885738
0	3312	32.328836313587	0.069743454563
0	3314	32.39857976815	0.040750916545
0	3332	32.439330684695	0.08848099116
0	3356	32.527811675855	0.09850287828
0	3362	32.626314554135	0.02382392913
0	3367	32.650138483265	0.06492228178
0	3372	32.715060765045	0.005076704197
0	3374	32.720137469242	0.015758001436
0	3382	32.735895470678	0.014795093662
0	3387	32.75069056434	0.007048394221
0	3389	32.757738958561	0.044816460251
0	3397	32.802555418812	0.002848326623
0	3399	32.805403745435	0.032358735202
0	3408	32.837762480637	0.017948065919
0	3413	32.855710546556	0.033465143599
0	3418	32.889175690155	0.015198577961
0	3423	32.904374268116	0.03067195448
0	3429	32.935046222596	0.030453222766
0	3434	32.965499445362	0.037179159589
0	3439	33.002678604951	0.057487069387
0	3445	33.060165674338	0.029171188552
0	3450	33.08933686289	0.059474812567
0	3455	33.148811675457	0.095742112882
0	3461	33.244553788339	0.016670166919
0	3466	33.261223955258	0.028408524187
0	3471	33.289632479445	0.023895899376
0	3476	33.313528378821	0.087685732251
0	3482	33.401214111072	0.009992776896
0	3487	33.411206887968	0.035600403281
0	3492	33.446807291249	0.077687275102
0	3498	33.524494566351	0.004516862204
0	3500	33.529011428555	0.002926394947
0	3505	33.531937823502	0.053946345425
0	3513	33.585884168927	0.05970066853
0	3518	33.645584837457	0.011571048598
0	3523	33.657155886055	0.075410761581
0	3529	33.732566647636	0.093955921711
0	3534	33.826522569347	0.075120639686
0	3540	33.901643209033	0.057184531029
0	3545	33.958827740062	0.015016254014
0	3550	33.973843994076	0.009823094295
0	3555	33.983667088371	0.023405322662
0	3560	34.007072411033	0.003620955506
0	3562	34.010693366539	0.044288032301
0	3570	34.05498139884	0.000486770467
0	3572	34.055468169307	0.015929192394
0	3580	34.071397361701	0.111304199472
0	3585	34.182701561173	0.023169501377
0	3591	34.20587106255	0.007162651069
0	3596	34.213033713619	0.010973408045
0	3601	34.224007121664	0.075523080061
0	3606	34.299530201725	0.030795964189
0	3611	34.330326165914	0.129622430439
0	3618	34.459948596353	0.002281902475
0	3620	34.462230498828	0.062794674217
0	3629	34.525025173045	0.080420892454
0	3634	34.605446065499	0.033747548683
0	3640	34.639193614182	0.004003942797
0	3642	34.643197556979	0.031696606325
0	3652	34.674894163304	0.036577266957
0	3657	34.711471430261	0.107154985021
0	3662	34.818626415282	0.018322564592
0	3667	34.836948979874	0.033511593829
0	3672	34.870460573703	0.04308337459
0	3677	34.913543948293	0.026770217555
0	3682	34.940314165848	0.160240441481
0	3688	35.100554607329	0.009564802295
0	3693	35.110119409624	0.051862254705
0	3698	35.161981664329	0.032245424558
0	3703	35.194227088887	0.001800141487
0	3705	35.196027230374	0.076542420947
0	3713	35.272569651321	0.028141260091
0	3718	35.300710911412	0.040644918059
0	3723	35.341355829471	0.03566921414
0	3728	35.377025043611	0.008709758019
0	3733	35.38573480163	0.038412667093
0	3738	35.424147468723	0.007764279275
0	3740	35.431911747998	0.057189768956
0	3748	35.489101516954	0.052414455248
0	3754	35.541515972202	0.016258543524
0	3759	35.557774515726	0.038742118975
0	3764	35.596516634701	0.006897661596
0	3766	35.603414296297	0.019702878597
0	3774	35.623117174894	0.024934616644
0	3779	35.648051791538	0.00795060084
0	3781	35.656002392378	0.156641474477
0	3789	35.812643866855	0.008709935829
0	3794	35.821353802684	0.010359259113
0	3799	35.831713061797	0.006929341071
0	3801	35.838642402868	0.117161996505
0	3809	35.955804399373	0.043246905471
0	3814	35.999051304844	0.03924185098
0	3822	36.038293155824	0.004839873615
0	3824	36.043133029439	0.03052414225
0	3832	36.073657171689	0.120700821525
0	3837	36.194357993214	0.106871084521
0	3842	36.301229077735	0.004330849722
0	3844	36.305559927457	0.030680210487
0	3852	36.336240137944	0.080566599956
0	3858	36.4168067379	0.064398098754
0	3863	36.481204836654	0.104831813676
0	3869	36.58603665033	0.025460124343
0	3874	36.611496774673	0.004905976131
0	3876	36.616402750804	0.11719348204
0	3884	36.733596232844	0.027782945658
0	3889	36.761379178502	0.058563184747
0	3895	36.819942363249	0.032048677263
0	3900	36.851991040512	0.060135689191
0	3905	36.912126729703	0.043398499101
0	3911	36.955525228804	0.019854047501
0	3916	36.975379276305	0.062982058531
0	3921	37.038361334836	0.070689166477
0	3927	37.109050501313	0.001372105022
0	3929	37.110422606335	0.050538458155
0	3937	37.16096106449	0.065726104904
0	3943	37.226687169394	0.0137231761
0	3948	37.240410345494	0.072828010579
0	3953	37.313238356073	0.008749752411
0	3958	37.321988108484	0.00049072182
0	3960	37.322478830304	0.07957780614
0	3968	37.402056636444	0.018429146981
0	3973	37.420485783425	0.159912748839
0	3979	37.580398532264	0.01325465507
0	3984	37.593653187334	0.030637272243
0	3989	37.624290459577	0.035001281806
0	3994	37.659291741383	0.044700070134
0	3999	37.703991811517	0.153653761139
0	4004	37.857645572656	0.097498845592
0	4010	37.955144418248	0.040800928198
0	4015	37.995945346446	0.030552878064
0	4020	38.02649822451	0.00512759465
0	4022	38.03162581916	0.15169712862
0	4030	38.18332294778	0.048600544553
0	4035	38.231923492333	0.042871755131
0	4040	38.274795247464	0.099396972742
0	4045	38.374192220206	0.085953465589
0	4050	38.460145685795	0.008576931369
0	4055	38.468722617164	0.119758989469
0	4062	38.588481606633	0.244174949517
0	4067	38.83265655615	0.084511747738
0	4072	38.917168303888	0.004441619133
0	4074	38.921609923021	0.00868282816
0	4079	38.930292751181	0.004961076324
0	4084	38.935253827505	0.049563975288
0	4092	38.984817802793	0.050202558694
0	4097	39.035020361487	0.025410972703
0	4102	39.06043133419	0.149088982866
0	4109	39.209520317056	0.003238284639
0	4111	39.212758601695	0.138030222784
0	4119	39.350788824479	0.02758518063
0	4124	39.378374005109	0.029654079866
0	4130	39.408028084975	0.014966419121
0	4135	39.422994504096	0.065041871373
0	4140	39.488036375469	0.094536457722
0	4145	39.582572833191	0.067785925693
0	4150	39.650358758884	0.001693592762
0	4152	39.652052351646	0.01833525769
0	4160	39.670387609336	0.159688093634
0	4165	39.83007570297	0.00637867869
0	4167	39.83645438166	0.021953849279
0	4175	39.858408230939	0.029338440334
0	4180	39.887746671273	0.022057740536
0	4185	39.909804411809	0.024860464317
0	4190	39.934664876126	0.000823164199
0	4192	39.935488040325	0.037948238712
0	4200	39.973436279037	0.010242613357
0	4205	39.983678892394	0.093332023509
0	4211	40.077010915903	0.025646349591
0	4213	40.102657265494	0.03842312887
0	4215	40.141080394364	0.132459413112
0	4219	40.273539807476	0.057013943846
0	4221	40.330553751322	0.005246637366
0	4223	40.335800388688	0.046975099293
0	4225	40.382775487981	0.145295980183
0	4250	40.528071468164	0.005183541832
0	4252	40.533255009996	0.101814709364
0	4260	40.63506971936	0.004827063951
0	4262	40.639896783311	0.030271689082
0	4270	40.670168472393	0.002879645841
0	4272	40.673048118234	0.01977828002
0	4281	40.692826398254	0.004525373507
0	4283	40.697351771761	0.013246746882
0	4291	40.710598518643	0.013536219537
0	4296	40.72413473818	0.047656126913
0	4302	40.771790865093	0.091477107793
0	4308	40.863267972886	0.001681696046
0	4310	40.864949668932	0.036946000997
0	4318	40.901895669929	0.000786456189
0	4320	40.902682126118	0.035982244884
0	4328	40.938664371002	0.028000418667
0	4334	40.966664789669	0.052467108296
0	4339	41.019131897965	0.003525097418
0	4342	41.022656995383	0.039327954595
0	4350	41.061984949978	0.014513670756
0	4355	41.076498620734	0.001650199253
0	4357	41.078148819987	0.012497540832
0	4362	41.090646360819	0.043393093494
0	4370	41.134039454313	0.014597303586
0	4375	41.148636757899	0.073721111239
0	4380	41.222357869138	0.007023785848
0	4382	41.229381654986	0.023598404389
0	4390	41.252980059375	0.000605462253
0	4392	41.253585521628	0.033767793509
0	4400	41.287353315137	0.006135750366
0	4402	41.293489065503	0.199878173836
0	4411	41.493367239339	0.048179634814
0	4416	41.541546874153	0.014028796309
0	4421	41.555575670462	0.182978105923
0	4427	41.738553776385	0.023446066364
0	4432	41.761999842749	0.232013999797
0	4439	41.994013842546	0.002336745087
0	4441	41.996350587633	0.026301539788
0	4449	42.022652127421	0.01855808604
0	4454	42.041210213461	0.008893837893
0	4459	42.050104051354	0.089046733745
0	4465	42.139150785099	0.05091087894
0	4470	42.190061664039	0.082259171354
0	4476	42.272320835393	0.033697172211
0	4481	42.306018007604	0.05108591737
0	4486	42.357103924974	0.227391192593
0	4493	42.584495117567	0.022951396374
0	4498	42.607446513941	0.003376707844
0	4500	42.610823221785	0.018753097156
0	4508	42.629576318941	0.076446943536
0	4513	42.706023262477	0.080933053321
0	4518	42.786956315798	0.017011860981
0	4523	42.803968176779	0.003652582858
0	4525	42.807620759637	0.013815259646
0	4533	42.821436019283	0.057533129646
0	4538	42.878969148929	0.054310165558
0	4543	42.933279314487	0.023960634724
0	4548	42.957239949211	0.014122335598
0	4553	42.971362284809	0.050246665453
0	4558	43.021608950262	0.05480962805
0	4563	43.076418578312	0.130782046621
0	4569	43.207200624933	0.036418878652
0	4574	43.243619503585	0.096186928533
0	4579	43.339806432118	0.027590106082
0	4585	43.3673965382	0.034425694402
0	4590	43.401822232602	0.040448984757
0	4595	43.442271217359	0.027916339463
0	4600	43.470187556822	0.016917305935
0	4605	43.487104862757	0.086455981884
0	4610	43.573560844641	0.061306610612
0	4615	43.634867455253	0.067013798099
0	4620	43.701881253352	0.026794939767
0	4625	43.728676193119	0.029632870897
0	4630	43.758309064016	0.02235699513
0	4636	43.780666059146	0.173532254027
0	4642	43.954198313173	0.088204369609
0	4649	44.042402682782	0.022561939925
0	4651	44.064964622707	0.129491307275
0	4654	44.194455929982	0.025336160695
0	4656	44.219792090677	0.002354963553
0	4658	44.22214705423	0.067100987059
0	4661	44.289248041289	0.013239113667
0	4663	44.302487154956	0.02980859457
0	4665	44.332295749526	0.021425380209
0	4667	44.353721129735	0.138457224142
0	4697	44.492178353877	0.084360914438
0	4702	44.576539268315	0.014868676395
0	4707	44.59140794471	0.211650789817
0	4712	44.803058734527	0.024043911215
0	4717	44.827102645742	0.173642785295
0	4722	45.000745431037	0.059724497175
0	4727	45.060469928212	0.117666738404
0	4733	45.178136666616	0.113685358334
0	4739	45.29182202495	0.017588369271
0	4744	45.309410394221	0.006451925159
0	4746	45.31586231938	0.241486012398
0	4757	45.557348331778	0.013823635827
0	4762	45.571171967605	0.014345454769
0	4767	45.585517422374	0.012955612794
0	4772	45.598473035168	0.005597227057
0	4774	45.604070262225	0.033619145102
0	4782	45.637689407327	0.150748413609
0	4787	45.788437820936	0.11106070916
0	4793	45.899498530096	0.013290827451
0	4798	45.912789357547	0.0221667198
0	4803	45.934956077347	0.058521786501
0	4808	45.993477863848	0.024325956988
0	4813	46.017803820836	0.003006418457
0	4815	46.020810239293	0.124281554217
0	4823	46.14509179351	0.065598154054
0	4828	46.210689947564	0.006041569813
0	4830	46.216731517377	0.106735119727
0	4838	46.323466637104	0.049864946208
0	4843	46.373331583312	0.01590272726
0	4848	46.389234310572	0.007125147283
0	4850	46.396359457855	0.023825791049
0	4858	46.420185248904	0.023439784582
0	4863	46.443625033486	0.023443907781
0	4868	46.467068941267	0.019608064481
0	4873	46.486677005748	0.069072953992
0	4878	46.55574995974	0.056989770333
0	4883	46.612739730073	0.013577789584
0	4888	46.626317519657	0.079367861485
0	4893	46.705685381142	0.009428236213
0	4898	46.715113617355	0.035052275466
0	4903	46.750165892821	0.029827495844
0	4908	46.779993388665	0.017566064077
0	4913	46.797559452742	0.018153942009
0	4918	46.815713394751	0.108561294068
0	4924	46.924274688819	0.091376313391
0	4929	47.01565100221	0.021683242769
0	4934	47.037334244979	0.013573498321
0	4939	47.0509077433	0.06704508623
0	4945	47.11795282953	0.034896877442
0	4950	47.152849706972	0.040524657359
0	4955	47.193374364331	0.142871267391
0	4960	47.336245631722	0.011252124693
0	4965	47.347497756415	0.050255782429
0	4970	47.397753538844	0.039761110065
0	4975	47.437514648909	0.100979225161
0	4981	47.53849387407	0.036661266934
0	4986	47.575155141004	0.140845586498
0	4991	47.716000727502	0.021445591789
0	4996	47.737446319291	0.069467925347
0	5002	47.806914244638	0.001246404786
0	5004	47.808160649424	0.060127867235
0	5012	47.868288516659	0.008057128941
0	5018	47.8763456456	0.172047202379
0	5024	48.048392847979	0.007069655637
0	5026	48.055462503616	0.259256471152
0	5029	48.314718974768	0.061535942552
0	5031	48.37625491732	0.030057732319
0	5034	48.406312649639	0.061733993803
0	5051	48.468046643442	0.003675318871
0	5053	48.471721962313	0.047305087063
0	5061	48.519027049376	0.017321666375
0	5066	48.536348715751	0.055722911586
0	5071	48.592071627337	0.008264650616
0	5076	48.600336277953	0.029666528413
0	5081	48.630002806366	0.02702013488
0	5086	48.657022941246	0.05954907267
0	5092	48.716572013916	0.007037257771
0	5094	48.723609271687	0.023766983482
0	5102	48.747376255169	0.046331930015
0	5107	48.793708185184	0.005269806496
0	5109	48.79897799168	0.024128760758
0	5117	48.823106752438	0.161265804186
0	5123	48.984372556624	0.112873839538
0	5128	49.097246396162	0.003759590458
0	5130	49.10100598662	0.171781169624
0	5139	49.272787156244	0.000974464648
0	5141	49.273761620892	0.03958045473
0	5149	49.313342075622	0.19454550452
0	5157	49.507887580142	0.016067015143
0	5162	49.523954595285	0.008036502028
0	5167	49.531991097313	0.044852650705
0	5173	49.576843748018	0.014967650147
0	5178	49.591811398165	0.11353550537
0	5183	49.705346903535	0.012137271868
0	5188	49.717484175403	0.026105565221
0	5193	49.743589740624	0.043364600942
0	5198	49.786954341566	0.040156838596
0	5203	49.827111180162	0.185970415545
0	5208	50.013081595707	0.015848868994
0	5214	50.028930464701	0.015942052421
0	5219	50.044872517122	0.030389238206
0	5225	50.075261755328	0.17545317755
0	5232	50.250714932878	0.025684280663
0	5237	50.276399213541	0.001291402221
0	5239	50.277690615762	0.014278446025
0	5247	50.291969061787	0.109482335728
0	5253	50.401451397515	0.035247466069
0	5258	50.436698863584	0.061654436361
0	5264	50.498353299945	0.018580787741
0	5269	50.516934087686	0.016270835858
0	5274	50.533204923544	0.023343217178
0	5279	50.556548140722	0.112624643504
0	5287	50.669172784226	0.03721891307
0	5292	50.706391697296	0.001344030976
0	5294	50.707735728272	0.069433863693
0	5302	50.777169591965	0.049126417136
0	5307	50.826296009101	0.020286317193
0	5312	50.846582326294	0.019989763624
0	5317	50.866572089918	0.128955656539
0	5324	50.995527746457	0.170746245122
0	5331	51.166273991579	0.099140629014
0	5336	51.265414620593	0.009230793645
0	5341	51.274645414238	0.002495780121
0	5343	51.277141194359	0.115876303128
0	5353	51.393017497487	0.01462753006
0	5358	51.407645027547	0.020019076573
0	5363	51.42766410412	0.02954176102
0	5368	51.45720586514	0.110016466022
0	5375	51.567222331162	0.00552579383
0	5377	51.572748124992	0.035918291761
0	5386	51.608666416753	0.02142205144
0	5391	51.630088468193	0.035731709369
0	5396	51.665820177562	0.067372441185
0	5402	51.733192618747	0.024455420531
0	5408	51.757648039278	0.057052166713
0	5413	51.814700205991	0.037760590888
0	5419	51.852460796879	0.048693929574
0	5424	51.901154726453	0.144755880851
0	5430	52.045910607304	0.061984904031
0	5432	52.107895511335	0.111681992555
0	5436	52.21957750389	0.011465858582
0	5438	52.231043362472	0.056522859916
0	5440	52.287566222388	0.020904582947
0	5442	52.308470805335	0.050947659054
0	5444	52.359418464389	0.056388021679
0	5450	52.415806486068	0.039743641803
0	5467	52.455550127871	0.105695340732
0	5480	52.561245468603	0.015919650803
0	5486	52.577165119406	0.039227834846
0	5491	52.616392954252	0.008024205368
0	5496	52.62441715962	0.016613031179
0	5501	52.641030190799	0.097002410494
0	5506	52.738032601293	0.001535088651
0	5508	52.739567689944	0.050400677024
0	5517	52.789968366968	0.061951825369
0	5523	52.851920192337	0.017808289078
0	5528	52.869728481415	0.000395767325
0	5530	52.87012424874	0.030829654426
0	5538	52.900953903166	0.023314851322
0	5543	52.924268754488	0.001241660387
0	5545	52.925510414875	0.03780831239
0	5553	52.963318727265	0.040829634442
0	5558	53.004148361707	0.127623824677
0	5563	53.131772186384	0.022404398419
0	5568	53.154176584803	0.00468776938
0	5570	53.158864354183	0.034929050304
0	5578	53.193793404487	0.026038943244
0	5583	53.219832347731	0.008339787906
0	5588	53.228172135637	0.001230682204
0	5590	53.229402817841	0.027713423671
0	5598	53.257116241512	0.020973966173
0	5604	53.278090207685	0.118314513192
0	5609	53.396404720877	0.048673627182
0	5614	53.445078348059	0.000427400932
0	5616	53.445505748991	0.016360519066
0	5625	53.461866268057	0.173469691939
0	5632	53.635335959996	0.011770293325
0	5637	53.647106253321	0.05870350684
0	5642	53.705809760161	0.006148128344
0	5644	53.711957888505	0.005235613671
0	5649	53.717193502176	0.043035735376
0	5657	53.760229237552	0.017108734581
0	5663	53.777337972133	0.059416458014
0	5668	53.836754430147	0.038725839397
0	5673	53.875480269544	0.05573055015
0	5678	53.931210819694	0.064394511956
0	5683	53.99560533165	0.148660416974
0	5690	54.144265748624	0.024622068819
0	5695	54.168887817443	0.000135343729
0	5697	54.169023161172	0.012879243317
0	5702	54.181902404489	0.052092223241
0	5710	54.23399462773	0.030335620462
0	5715	54.264330248192	0.045863589846
0	5721	54.310193838038	0.178925086292
0	5726	54.48911892433	0.044426435616
0	5731	54.533545359946	0.0897336557
0	5736	54.623279015646	0.164532441513
0	5743	54.787811457159	0.12313221347
0	5749	54.910943670629	0.000850781186
0	5751	54.911794451815	0.055023426524
0	5759	54.966817878339	0.059615788711
0	5766	55.02643366705	0.029050432773
0	5772	55.055484099823	0.084014120004
0	5777	55.139498219827	0.057773736437
0	5783	55.197271956264	0.035647823956
0	5788	55.23291978022	0.052291264639
0	5793	55.285211044859	0.020320643337
0	5798	55.305531688196	0.001476590558
0	5800	55.307008278754	0.078232827535
0	5808	55.385241106289	0.125994434692
0	5814	55.511235540981	0.00511508905
0	5816	55.516350630031	0.039094221155
0	5824	55.555444851186	0.029173008615
0	5829	55.584617859801	0.236319759843
0	5836	55.820937619644	0.036693498351
0	5841	55.857631117995	0.024152651213
0	5846	55.881783769208	0.059201386817
0	5851	55.940985156025	0.08216766176
0	5857	56.023152817785	0.004764224144
0	5859	56.027917041929	0.030902618857
0	5861	56.058819660786	0.012922962436
0	5863	56.071742623222	0.087672405914
0	5865	56.159415029136	0.026407199536
0	5867	56.185822228672	0.038730686818
0	5870	56.22455291549	0.048814601148
0	5872	56.273367516638	0.109135694464
0	5874	56.382503211102	0.109001022358
0	5905	56.49150423346	0.106057722842
0	5910	56.597561956302	0.048224988088
0	5916	56.64578694439	0.019897419732
0	5921	56.665684364122	0.007162435189
0	5923	56.672846799311	0.025911392405
0	5931	56.698758191716	0.197072934231
0	5937	56.895831125947	0.039334155773
0	5942	56.93516528172	0.102702624193
0	5947	57.037867905913	0.048602448424
0	5952	57.086470354337	0.034930178347
0	5957	57.121400532684	0.023849887547
0	5962	57.145250420231	0.127775885833
0	5968	57.273026306064	0.039058439499
0	5973	57.312084745563	0.038976751442
0	5978	57.351061497005	0.006443932302
0	5980	57.357505429307	0.128396631435
0	5988	57.485902060742	0.057080776176
0	5993	57.542982836918	0.088567665966
0	5999	57.631550502884	0.016922056641
0	6004	57.648472559525	0.172550506468
0	6015	57.821023065993	0.002196361706
0	6017	57.823219427699	0.126150873068
0	6027	57.949370300767	0.006170473575
0	6029	57.955540774342	0.001834953514
0	6034	57.957375727856	0.005626497319
0	6036	57.963002225175	0.009604778807
0	6041	57.972607003982	0.019025547428
0	6052	57.99163255141	0.024643938418
0	6057	58.016276489828	0.014153621792
0	6062	58.03043011162	0.151976579507
0	6067	58.182406691127	0.04136629618
0	6072	58.223772987307	0.017835812634
0	6077	58.241608799941	0.11841180265
0	6082	58.360020602591	0.008745513005
0	6087	58.368766115596	0.043387757147
0	6092	58.412153872743	0.108711645357
0	6097	58.5208655181	0.045557290404
0	6102	58.566422808504	0.029565139278
0	6107	58.595987947782	0.013593291929
0	6112	58.609581239711	0.119230767162
0	6118	58.728812006873	0.043480768042
0	6124	58.772292774915	0.008731389824
0	6129	58.781024164739	0.007883602641
0	6131	58.78890776738	0.054105094224
0	6139	58.843012861604	0.020445876462
0	6144	58.863458738066	0.029014479399
0	6150	58.892473217465	0.04911190922
0	6156	58.941585126685	0.003978507755
0	6158	58.94556363444	0.022416465331
0	6166	58.967980099771	0.059612612104
0	6172	59.027592711875	0.120952569708
0	6178	59.148545281583	0.014210987176
0	6183	59.162756268759	0.10538901792
0	6190	59.268145286679	0.002021078883
0	6192	59.270166365562	0.028471805694
0	6200	59.298638171256	0.003090807432
0	6202	59.301728978688	0.036450336069
0	6211	59.338179314757	0.003151172213
0	6213	59.34133048697	0.032186240293
0	6221	59.373516727263	0.11915341366
0	6228	59.492670140923	0.01018926911
0	6233	59.502859410033	0.067331364427
0	6238	59.57019077446	0.028525299404
0	6243	59.598716073864	0.114169701721
0	6248	59.712885775585	0.010385164311
0	6253	59.723270939896	0.055825928678
0	6258	59.779096868574	0.062799779939
0	6263	59.841896648513	0.037638482602
0	6268	59.879535131115	0.037012609571
0	6273	59.916547740686	0.01815235772
0	6278	59.934700098406	0.019324709102
0	6283	59.954024807508	0.309795505936
0	6293	60.263820313444	0.00015521784
0	6295	60.263975531284	0.022485668397
0	6297	60.286461199681	0.045478535244
0	6300	60.331939734925	0.031805172718
0	6302	60.363744907643	0.052359612775
0	6312	60.416104520418	0.023760471939
0	6323	60.439864992357	0.00026015664
0	6325	60.440125148997	0.194432236138
0	6338	60.634557385135	0.175698941148
0	6343	60.810256326283	0.009597895098
0	6348	60.819854221381	0.054512279323
0	6353	60.874366500704	0.019873953996
0	6358	60.8942404547	0.017346444158
0	6363	60.911586898858	0.057026223748
0	6369	60.968613122606	0.011179952917
0	6374	60.979793075523	0.003264679782
0	6376	60.983057755305	0.129983662267
0	6384	61.113041417572	0.046729020817
0	6389	61.159770438389	0.018498958988
0	6394	61.178269397377	0.03247053634
0	6399	61.210739933717	0.025810172747
0	6404	61.236550106464	0.016703754153
0	6409	61.253253860617	0.050128120416
0	6415	61.303381981033	0.013617561318
0	6420	61.316999542351	0.110661361577
0	6425	61.427660903928	0.036130111877
0	6430	61.463791015805	0.028335097992
0	6435	61.492126113797	0.022937565132
0	6440	61.515063678929	0.131706569797
0	6446	61.646770248726	0.030488108643
0	6452	61.677258357369	0.044834291829
0	6457	61.722092649198	0.020585028894
0	6462	61.742677678092	0.028262764066
0	6467	61.770940442158	0.176157567061
0	6473	61.947098009219	0.044920118322
0	6478	61.992018127541	0.007161163574
0	6480	61.999179291115	0.021886972806
0	6488	62.021066263921	0.005090782099
0	6490	62.02615704602	0.053504124481
0	6498	62.079661170501	0.02103338362
0	6504	62.100694554121	0.052822049709
0	6509	62.15351660383	0.044705294406
0	6515	62.198221898236	0.086219594273
0	6520	62.284441492509	0.053819522971
0	6526	62.33826101548	0.0257723775
0	6531	62.36403339298	0.025313198354
0	6536	62.389346591334	0.001914439889
0	6538	62.391261031223	0.36167342264
0	6547	62.752934453863	0.208772180211
0	6552	62.961706634074	0.02168497352
0	6557	62.983391607594	0.029723300835
0	6562	63.013114908429	0.063900106458
0	6567	63.077015014887	0.138737731079
0	6572	63.215752745966	0.050747947918
0	6577	63.266500693884	0.055743342704
0	6584	63.322244036588	0.08384673665
0	6591	63.406090773238	0.015509806163
0	6596	63.421600579401	0.186957423902
0	6604	63.608558003303	0.041513032338
0	6609	63.650071035641	0.11027004019
0	6615	63.760341075831	0.157249877635
0	6620	63.917590953466	0.072315378608
0	6625	63.989906332074	0.006022913388
0	6627	63.995929245462	0.059907569392
0	6636	64.055836814854	0.015888467069
0	6641	64.071725281923	0.020435882712
0	6646	64.092161164635	0.004281039706
0	6648	64.096442204341	0.007989989022
0	6653	64.104432193363	0.072466093474
0	6661	64.176898286837	0.003234180257
0	6663	64.180132467094	0.001096369034
0	6665	64.181228836128	0.013847111266
0	6673	64.195075947394	0.007381594162
0	6678	64.202457541556	0.028306477585
0	6686	64.230764019141	0.015097750174
0	6691	64.245861769315	0.036906837127
0	6696	64.282768606442	0.10242915783
0	6702	64.385197764272	0.074158670402
0	6709	64.459356434674	0.009886588397
0	6714	64.469243023071	0.159394208614
0	6719	64.628637231685	0.028394384656
0	6724	64.657031616341	0.006239654613
0	6726	64.663271270954	0.01966086435
0	6734	64.682932135304	0.00565866662
0	6736	64.688590801924	0.043781939905
0	6746	64.732372741829	0.044542690095
0	6751	64.776915431924	0.137810653874
0	6757	64.914726085798	0.068402701069
0	6762	64.983128786867	0.141326198528
0	6768	65.124454985395	0.09424323071
0	6774	65.218698216105	0.002696847821
0	6776	65.221395063926	0.137312593511
0	6785	65.358707657437	0.045343155365
0	6790	65.404050812802	0.204996714633
0	6798	65.609047527435	0.111189140788
0	6803	65.720236668223	0.025524758135
0	6808	65.745761426358	0.07591845742
0	6813	65.821679883778	0.023928828553
0	6818	65.845608712331	0.011883293555
0	6823	65.857492005886	0.007997210668
0	6828	65.865489216554	0.072407306197
0	6834	65.937896522751	0.057748726678
0	6839	65.995645249429	0.010478224286
0	6844	66.006123473715	0.053466552918
0	6849	66.059590026633	0.114512860995
0	6854	66.174102887628	0.099047764806
0	6859	66.273150652434	0.000448569367
0	6861	66.273599221801	0.005115923979
0	6863	66.27871514578	0.004728336825
0	6868	66.283443482605	0.034435542198
0	6880	66.317879024803	0.048271789985
0	6887	66.366150814788	0.043503995518
0	6892	66.409654810306	0.024098960478
0	6897	66.433753770784	0.013824384205
0	6902	66.447578154989	0.005077438529
0	6904	66.452655593518	0.009257802674
0	6909	66.461913396192	0.209763431006
0	6918	66.671676827198	0.098156164478
0	6923	66.769832991676	0.113448454331
0	6929	66.883281446007	0.003015901189
0	6931	66.886297347196	0.015811855292
0	6939	66.902109202488	0.031802523556
0	6944	66.933911726044	0.03204577116
0	6949	66.965957497204	0.006155522746
0	6951	66.97211301995	0.032672662986
0	6959	67.004785682936	0.030537708743
0	6964	67.035323391679	0.035503517283
0	6969	67.070826908962	0.195507038483
0	6974	67.266333947445	0.170956825134
0	6981	67.437290772579	0.027556897416
0	6986	67.464847669995	0.00526572096
0	6988	67.470113390955	0.097289229196
0	6996	67.567402620151	0.002022897783
0	6998	67.569425517934	0.006239376118
0	7003	67.575664894052	0.033053990041
0	7011	67.608718884093	0.015821369559
0	7016	67.624540253652	0.030648363434
0	7021	67.655188617086	0.025858346354
0	7026	67.68104696344	0.013411154664
0	7031	67.694458118104	0.025525628797
0	7036	67.719983746901	0.003033715009
0	7038	67.72301746191	0.055643190581
0	7047	67.778660652491	0.006610579991
0	7049	67.785271232482	0.021134489403
0	7057	67.806405721885	0.097160027816
0	7063	67.903565749701	0.062547433033
0	7069	67.966113182734	0.025513569888
0	7074	67.991626752622	0.050969759403
0	7080	68.042596512025	0.02401459069
0	7082	68.066611102715	0.025471425511
0	7084	68.092082528226	0.001110932601
0	7086	68.093193460827	0.028260581742
0	7088	68.121454042569	0.023480401606
0	7090	68.144934444175	0.047664296561
0	7092	68.192598740736	0.054177409415
0	7096	68.246776150151	0.003630802905
0	7098	68.250406953056	0.04908924528
0	7100	68.299496198336	0.086412968648
0	7102	68.385909166984	0.122665292075
0	7138	68.508574459059	0.05298224716
0	7144	68.561556706219	0.055705736823
0	7149	68.617262443042	0.064793890825
0	7154	68.682056333867	0.019584226994
0	7159	68.701640560861	0.038493096791
0	7164	68.740133657652	0.019005951567
0	7169	68.759139609219	0.005853501966
0	7171	68.764993111185	0.089582716794
0	7179	68.854575827979	0.025962686244
0	7184	68.880538514223	0.074761555906
0	7189	68.955300070129	0.025991097244
0	7194	68.981291167373	0.016505334703
0	7199	68.997796502076	0.019359873362
0	7204	69.017156375438	0.062575447848
0	7209	69.079731823286	0.001520399688
0	7211	69.081252222974	0.041228586159
0	7219	69.122480809133	0.066828420866
0	7225	69.189309229999	0.025512957518
0	7230	69.214822187517	0.005814583338
0	7232	69.220636770855	0.037842715861
0	7240	69.258479486716	0.046609337028
0	7246	69.305088823744	0.004454297875
0	7248	69.309543121619	0.060737785428
0	7256	69.370280907047	0.054782493512
0	7261	69.425063400559	0.050363634419
0	7266	69.475427034978	0.001504139777
0	7268	69.476931174755	0.15988293787
0	7277	69.636814112625	0.110040843718
0	7282	69.746854956343	0.005451593181
0	7284	69.752306549524	0.057303901753
0	7292	69.809610451277	0.100933187996
0	7297	69.910543639273	0.110964776089
0	7302	70.021508415362	0.001481237615
0	7304	70.022989652977	6.0415094e-005
0	7306	70.023050068071	0.038276954114
0	7318	70.061327022185	0.138405002884
0	7323	70.199732025069	0.025896172254
0	7329	70.225628197323	0.158871531073
0	7336	70.384499728396	0.037136187485
0	7341	70.421635915881	0.079560113167
0	7346	70.501196029048	0.022714378853
0	7351	70.523910407901	0.241879372453
0	7356	70.765789780354	0.010571058749
0	7361	70.776360839103	0.021942708852
0	7366	70.798303547955	0.00096540526
0	7368	70.799268953215	0.094305755342
0	7376	70.893574708557	0.036506101013
0	7382	70.93008080957	0.073630643127
0	7388	71.003711452697	0.092504460994
0	7393	71.096215913691	0.063742572627
0	7398	71.159958486318	0.023357661323
0	7403	71.183316147641	0.050176219395
0	7408	71.233492367036	0.012606983822
0	7413	71.246099350858	0.018363408375
0	7418	71.264462759233	0.004198002002
0	7420	71.268660761235	0.03853155304
0	7428	71.307192314275	0.004458554113
0	7430	71.311650868388	0.016049882895
0	7438	71.327700751283	0.01251266402
0	7443	71.340213415303	0.000436394815
0	7445	71.340649810118	0.005268807032
0	7447	71.34591861715	0.00126305609
0	7449	71.34718167324	0.015396939779
0	7460	71.362578613019	0.007790959306
0	7465	71.370369572325	0.003421943769
0	7467	71.373791516094	0.036052620221
0	7478	71.409844136315	0.003392793902
0	7480	71.413236930217	0.012593739235
0	7488	71.425830669452	0.09699308798
0	7494	71.522823757432	0.02306128888
0	7500	71.545885046312	0.008844035306
0	7505	71.554729081618	0.002834194058
0	7507	71.557563275676	0.04101294963
0	7516	71.598576225306	0.121066832322
0	7522	71.719643057628	0.074240703702
0	7527	71.79388376133	0.108120247136
0	7533	71.902004008466	0.030477959042
0	7538	71.932481967508	0.113785999154
0	7544	72.046267966662	0.008324509696
0	7546	72.054592476358	0.020187645356
0	7548	72.074780121714	0.011131942602
0	7550	72.085912064316	0.062400911564
0	7552	72.14831297588	0.028368405983
0	7554	72.176681381863	0.027838540572
0	7556	72.204519922435	0.037563618684
0	7558	72.242083541119	0.017954784141
0	7560	72.26003832526	0.021496110137
0	7562	72.281534435397	0.003650627192
0	7564	72.285185062589	0.076043795382
0	7567	72.361228857971	0.027395621885
0	7569	72.388624479856	0.069519466361
0	7597	72.458143946217	0.024577267938
0	7608	72.482721214155	0.131010078844
0	7623	72.613731292999	0.008741100002
0	7628	72.622472393001	0.001468997364
0	7630	72.623941390365	0.021555091361
0	7638	72.645496481726	0.113020022369
0	7644	72.758516504095	0.005025276187
0	7646	72.763541780282	0.024925816596
0	7654	72.788467596878	0.102436899679
0	7659	72.890904496557	0.105339606294
0	7664	72.996244102851	0.055069803915
0	7670	73.051313906766	0.058685886394
0	7676	73.10999979316	0.010704109733
0	7681	73.120703902893	0.218499987571
0	7686	73.339203890464	0.125107899127
0	7693	73.464311789591	0.071206550782
0	7699	73.535518340373	0.043337053533
0	7704	73.578855393906	0.022670670917
0	7709	73.601526064823	0.030430967703
0	7715	73.631957032526	0.034763789049
0	7720	73.666720821575	0.051410265914
0	7725	73.718131087489	0.023611437432
0	7730	73.741742524921	0.014653174889
0	7736	73.75639569981	0.022699572337
0	7741	73.779095272147	0.040045434143
0	7747	73.81914070629	0.015116406902
0	7752	73.834257113192	0.007072605249
0	7755	73.841329718441	0.034256003897
0	7763	73.875585722338	0.011189438607
0	7768	73.886775160945	0.057244322473
0	7774	73.944019483418	0.036082937385
0	7779	73.980102420803	0.016240840232
0	7784	73.996343261035	0.005128962995
0	7786	74.00147222403	0.037156782715
0	7794	74.038629006745	0.095477750925
0	7799	74.13410675767	0.006243042892
0	7801	74.140349800562	0.025171305773
0	7809	74.165521106335	0.008708461055
0	7814	74.17422956739	0.013268497889
0	7819	74.187498065279	0.002396859979
0	7821	74.189894925258	0.044025921915
0	7829	74.233920847173	0.176562070025
0	7834	74.410482917198	0.068685963234
0	7839	74.479168880432	0.000193391159
0	7841	74.479362271591	0.046950930176
0	7849	74.526313201767	0.009836034431
0	7854	74.536149236198	0.043257452946
0	7859	74.579406689144	0.047449317339
0	7865	74.626856006483	0.00932248171
0	7870	74.636178488193	0.004243570552
0	7872	74.640422058745	0.0579757983
0	7880	74.698397857045	0.106809696316
0	7885	74.805207553361	0.188184039677
0	7891	74.993391593038	0.063580500116
0	7896	75.056972093154	0.04690040578
0	7901	75.103872498934	0.169646535732
0	7907	75.273519034666	0.019903050249
0	7912	75.293422084915	0.035426803772
0	7917	75.328848888687	0.081149500853
0	7923	75.40999838954	0.017862589763
0	7928	75.427860979303	0.090505550573
0	7933	75.518366529876	0.039869923792
0	7938	75.558236453668	0.026831104149
0	7943	75.585067557817	0.133551248675
0	7949	75.718618806492	0.026859186854
0	7955	75.745477993346	0.036777837747
0	7960	75.782255831093	0.137928066146
0	7966	75.920183897239	0.015544603155
0	7971	75.935728500394	0.064039816153
0	7976	75.999768316547	0.104940921429
0	7982	76.104709237976	0.001672737956
0	7984	76.106381975932	0.023254287187
0	7992	76.129636263119	0.027751586266
0	7997	76.157387849385	6.921563e-005
0	7999	76.157457065015	0.00492997501
0	8001	76.162387040025	0.0142300092
0	8009	76.176617049225	0.192095815173
0	8018	76.368712864398	0.019153403354
0	8023	76.387866267752	0.04280830787
0	8029	76.430674575622	0.097870919612
0	8034	76.528545495234	0.051596035146
0	8039	76.58014153038	0.030670903306
0	8044	76.610812433686	0.022664223541
0	8049	76.633476657227	0.029402190584
0	8054	76.662878847811	0.055088095866
0	8060	76.717966943677	0.020481358004
0	8065	76.738448301681	0.042413340492
0	8070	76.780861642173	0.106296528497
0	8076	76.88715817067	0.074512454334
0	8081	76.961670625004	0.145045452059
0	8086	77.106716077063	0.115180343831
0	8092	77.221896420894	0.240734899987
0	8099	77.462631320881	0.025901452856
0	8104	77.488532773737	0.023639677236
0	8109	77.512172450973	0.112854357082
0	8116	77.625026808055	0.169287045145
0	8122	77.7943138532	0.00336484836
0	8124	77.79767870156	0.07848191773
0	8133	77.87616061929	0.057834964485
0	8138	77.933995583775	0.056302639885
0	8143	77.99029822366	0.013137770497
0	8148	78.003435994157	0.014044557775
0	8153	78.017480551932	0.038703602134
0	8158	78.056184154066	0.012196483493
0	8163	78.068380637559	0.074147968219
0	8168	78.142528605778	0.009078960883
0	8173	78.151607566661	0.068636200292
0	8178	78.220243766953	0.128039695738
0	8183	78.348283462691	0.063904314694
0	8189	78.412187777385	0.017412431709
0	8194	78.429600209094	0.032975140003
0	8200	78.462575349097	0.030173939621
0	8205	78.492749288718	0.010784992064
0	8210	78.503534280782	0.034056763905
0	8215	78.537591044687	0.011506288408
0	8220	78.549097333095	0.075292557154
0	8226	78.624389890249	0.038336269106
0	8231	78.662726159355	0.092970328621
0	8236	78.755696487976	0.028796148644
0	8241	78.78449263662	0.007487260413
0	8246	78.791979897033	0.184423598774
0	8251	78.976403495807	0.027835133205
0	8256	79.004238629012	0.017892633616
0	8262	79.022131262628	0.092529282329
0	8267	79.114660544957	0.004113128274
0	8269	79.118773673231	0.085196580221
0	8277	79.203970253452	0.064891828457
0	8282	79.268862081909	0.005402303344
0	8284	79.274264385253	0.185299531866
0	8294	79.459563917119	0.00850285444
0	8299	79.468066771559	0.076183514017
0	8305	79.544250285576	0.01813455681
0	8311	79.562384842386	0.014187505127
0	8316	79.576572347513	0.003917490055
0	8318	79.580489837568	0.001862304615
0	8320	79.582352142183	0.027639966675
0	8331	79.609992108858	0.026121462167
0	8336	79.636113571025	0.005693032865
0	8338	79.64180660389	0.105084679204
0	8346	79.746891283094	0.041991675069
0	8351	79.788882958163	0.028281146051
0	8357	79.817164104214	0.01415509145
0	8362	79.831319195664	0.016709770748
0	8367	79.848028966412	0.045370645997
0	8372	79.893399612409	0.136901164764
0	8378	80.030300777173	0.006251277442
0	8380	80.036552054615	0.073978757067
0	8382	80.110530811682	0.186243718705
0	8385	80.296774530387	0.047207062603
0	8387	80.34398159299	0.134826742696
0	8405	80.478808335686	0.000134032917
0	8407	80.478942368603	0.024862323492
0	8415	80.503804692095	0.134049754487
0	8420	80.637854446582	0.013865376447
0	8425	80.651719823029	0.056017954138
0	8430	80.707737777167	0.014410658395
0	8435	80.722148435562	0.012710233136
0	8440	80.734858668698	0.033023694714
0	8445	80.767882363412	0.001253229378
0	8447	80.76913559279	0.002040725018
0	8449	80.771176317808	0.000374817222
0	8451	80.77155113503	0.051041620953
0	8465	80.822592755983	0.131141276095
0	8471	80.953734032078	0.026238022204
0	8476	80.979972054282	0.05907026993
0	8482	81.039042324212	0.02369307895
0	8487	81.062735403162	0.061064008845
0	8492	81.123799412007	0.082869726033
0	8497	81.20666913804	0.045325063861
0	8502	81.251994201901	0.061727693489
0	8507	81.31372189539	0.038526866038
0	8512	81.352248761428	0.154319856944
0	8517	81.506568618372	0.030401581288
0	8522	81.53697019966	0.021688309475
0	8527	81.558658509135	0.045838693584
0	8533	81.604497202719	0.11391548714
0	8538	81.718412689859	0.053077665815
0	8543	81.771490355674	0.073476665793
0	8548	81.844967021467	0.023343608873
0	8553	81.86831063034	0.02211355945
0	8559	81.89042418979	0.055166265135
0	8565	81.945590454925	0.048598819654
0	8570	81.994189274579	0.030521677152
0	8575	82.024710951731	0.017023909577
0	8580	82.041734861308	0.004445211245
0	8582	82.046180072553	0.10373261912
0	8591	82.149912691673	0.013274752132
0	8596	82.163187443805	0.005963243499
0	8598	82.169150687304	0.004243686191
0	8603	82.173394373495	0.011940427972
0	8608	82.185334801467	0.019431678312
0	8616	82.204766479779	0.010107846813
0	8622	82.214874326592	0.047250899531
0	8627	82.262125226123	0.025794086126
0	8632	82.287919312249	0.022913728153
0	8637	82.310833040402	0.06837028595
0	8642	82.379203326352	0.064772833196
0	8647	82.443976159548	0.037423211746
0	8652	82.481399371294	0.056669413015
0	8657	82.538068784309	0.033439934209
0	8662	82.571508718518	0.007814632125
0	8668	82.579323350643	2.7305998e-005
0	8670	82.579350656641	0.009198697182
0	8675	82.588549353823	0.027704207242
0	8683	82.616253561065	0.003330256862
0	8685	82.619583817927	0.003283159259
0	8687	82.622866977186	0.015348869127
0	8695	82.638215846313	0.011675685302
0	8703	82.649891531615	0.021412901441
0	8708	82.671304433056	0.134702884249
0	8717	82.806007317305	0.004619375938
0	8719	82.810626693243	0.012128947944
0	8727	82.822755641187	0.046093962914
0	8732	82.868849604101	0.097715438585
0	8738	82.966565042686	0.0626539047
0	8743	83.029218947386	0.08120052219
0	8749	83.110419469576	0.008552590952
0	8754	83.118972060528	0.008666876061
0	8759	83.127638936589	0.020937967613
0	8764	83.148576904202	0.046533677831
0	8769	83.195110582033	0.064959966622
0	8775	83.260070548655	0.006145789408
0	8777	83.266216338063	0.054430808653
0	8785	83.320647146716	0.065077105423
0	8790	83.385724252139	0.096365224863
0	8796	83.482089477002	0.050731337713
0	8801	83.532820814715	0.040439506314
0	8806	83.573260321029	0.08354932876
0	8811	83.656809649789	0.001304698248
0	8813	83.658114348037	0.032637181027
0	8822	83.690751529064	0.002951452643
0	8824	83.693702981707	0.123174731459
0	8833	83.816877713166	0.004172400878
0	8836	83.821050114044	0.002530410466
0	8838	83.82358052451	0.03640114415
0	8850	83.85998166866	0.017328350456
0	8855	83.877310019116	0.070346527264
0	8860	83.94765654638	0.062772533575
0	8866	84.010429079955	0.001640277736
0	8868	84.012069357691	0.027073624683
0	8870	84.039142982374	0.030503539564
0	8872	84.069646521938	0.009494587873
0	8874	84.079141109811	0.087090701073
0	8876	84.166231810884	0.00567023611
0	8878	84.171902046994	0.055222340249
0	8880	84.227124387243	0.085006196463
0	8883	84.312130583706	0.039473829742
0	8885	84.351604413448	0.032041303575
0	8887	84.383645717023	0.044435201381
0	8899	84.428080918404	0.106973876149
0	8928	84.535054794553	0.113399519542
0	8934	84.648454314095	0.066079505309
0	8940	84.714533819404	0.042792461072
0	8946	84.757326280476	0.026358439485
0	8951	84.783684719961	0.027393434699
0	8956	84.81107815466	0.023381203863
0	8961	84.834459358523	0.060693028153
0	8966	84.895152386676	0.036246171815
0	8972	84.931398558491	0.022096659444
0	8977	84.953495217935	0.109938264483
0	8982	85.063433482418	0.180432750846
0	8987	85.243866233264	0.066833051938
0	8992	85.310699285202	0.102904558883
0	8997	85.413603844085	0.000258314305
0	8999	85.41386215839	0.008518867934
0	9004	85.422381026324	0.059234307533
0	9013	85.481615333857	0.057620550969
0	9018	85.539235884826	0.125979507948
0	9023	85.665215392774	0.001733235128
0	9025	85.666948627902	0.061972357939
0	9033	85.728920985841	0.108231358784
0	9039	85.837152344625	0.009740304826
0	9044	85.846892649451	0.09316929919
0	9051	85.940061948641	0.033035754671
0	9056	85.973097703312	0.035680557663
0	9061	86.008778260975	0.007559521322
0	9063	86.016337782297	0.006830442985
0	9068	86.023168225282	0.022235922748
0	9076	86.04540414803	0.048573397678
0	9081	86.093977545708	0.138324008403
0	9087	86.232301554111	0.013678243112
0	9092	86.245979797223	0.128396135988
0	9097	86.374375933211	0.049830463958
0	9102	86.424206397169	0.016622596079
0	9107	86.440828993248	0.059166976168
0	9113	86.499995969416	0.020747829136
0	9118	86.520743798552	0.005616734033
0	9120	86.526360532585	0.045841151865
0	9128	86.57220168445	0.032403517984
0	9133	86.604605202434	0.165109197623
0	9140	86.769714400057	0.044045380864
0	9145	86.813759780921	0.007996780193
0	9147	86.821756561114	0.014626403646
0	9155	86.83638296476	0.014847352939
0	9160	86.851230317699	0.011220360177
0	9165	86.862450677876	0.103398115758
0	9171	86.965848793634	0.050785633653
0	9176	87.016634427287	0.033853085618
0	9181	87.050487512905	0.071510967413
0	9186	87.121998480318	0.114612481292
0	9192	87.23661096161	0.022244923449
0	9197	87.258855885059	0.010260140916
0	9202	87.269116025975	0.061704001337
0	9207	87.330820027312	0.038035830092
0	9213	87.368855857404	0.044260842233
0	9219	87.413116699637	0.019746264605
0	9224	87.432862964242	0.082929669345
0	9230	87.515792633587	0.019029544966
0	9235	87.534822178553	0.01141233116
0	9240	87.546234509713	0.029608740199
0	9245	87.575843249912	0.079579105654
0	9251	87.655422355566	0.028376629192
0	9256	87.683798984758	0.015490106728
0	9261	87.699289091486	0.022107508596
0	9266	87.721396600082	0.017709930704
0	9271	87.739106530786	0.123238006821
0	9276	87.862344537607	0.191228482822
0	9283	88.053573020429	0.065790711589
0	9285	88.119363732018	0.002355291874
0	9287	88.121719023892	0.065014457102
0	9290	88.186733480994	0.010520845162
0	9292	88.197254326156	0.017118420643
0	9294	88.214372746799	0.036789666351
0	9296	88.25116241315	0.043103081365
0	9299	88.294265494515	0.023579786023
0	9301	88.317845280538	0.075520240934
0	9304	88.393365521472	0.013860171926
0	9310	88.407225693398	0.079381464379
0	9342	88.486607157777	0.057688188168
0	9347	88.544295345945	0.02112017247
0	9352	88.565415518415	0.055317653248
0	9357	88.620733171663	0.073673888833
0	9362	88.694407060496	0.165853368886
0	9367	88.860260429382	0.066570217522
0	9372	88.926830646904	0.105433374094
0	9377	89.032264020998	0.007628807407
0	9382	89.039892828405	0.298311784988
0	9388	89.338204613393	0.100475430835
0	9393	89.438680044228	0.022540490531
0	9398	89.461220534759	0.029109052657
0	9403	89.490329587416	0.002314475296
0	9405	89.492644062712	0.033316543801
0	9413	89.525960606513	0.019674119848
0	9418	89.545634726361	0.029743812795
0	9423	89.575378539156	0.034349781795
0	9428	89.609728320951	0.041948664146
0	9433	89.651676985097	0.009448925836
0	9438	89.661125910933	0.048533287392
0	9443	89.709659198325	0.004445718117
0	9445	89.714104916442	0.034475646096
0	9453	89.748580562538	0.0301405454
0	9459	89.778721107938	0.100790873217
0	9464	89.879511981155	0.134904152148
0	9470	90.014416133303	0.049407432658
0	9475	90.063823565961	0.07201958025
0	9481	90.135843146211	0.025660419062
0	9486	90.161503565273	0.018660986418
0	9493	90.180164551691	0.026951975427
0	9498	90.207116527118	0.109738352439
0	9504	90.316854879557	0.083257736369
0	9509	90.400112615926	0.059746406669
0	9514	90.459859022595	0.021400257523
0	9519	90.481259280118	0.031119901217
0	9525	90.512379181335	0.011878277147
0	9530	90.524257458482	0.015368363638
0	9535	90.53962582212	0.003060971606
0	9537	90.542686793726	0.042846155074
0	9545	90.5855329488	0.104384513157
0	9551	90.689917461957	0.010839501287
0	9556	90.700756963244	0.125386116763
0	9561	90.826143080007	0.067591104303
0	9566	90.89373418431	0.006398497243
0	9568	90.900132681553	0.138173822029
0	9577	91.038306503582	0.020358859027
0	9582	91.058665362609	0.053832932443
0	9588	91.112498295052	0.00964114944
0	9593	91.122139444492	0.064548135279
0	9599	91.186687579771	0.006159168614
0	9601	91.192846748385	0.008985552962
0	9609	91.201832301347	0.115062668302
0	9616	91.316894969649	0.068960767537
0	9621	91.385855737186	0.002927942416
0	9623	91.388783679602	0.034393738574
0	9631	91.423177418176	0.196830306491
0	9638	91.620007724667	0.004571932402
0	9640	91.624579657069	0.00507123917
0	9645	91.629650896239	0.02442446432
0	9653	91.654075360559	0.099560782025
0	9658	91.753636142584	0.06536456925
0	9664	91.819000711834	0.041793878377
0	9669	91.860794590211	0.043162427213
0	9674	91.903957017424	0.022936767067
0	9679	91.926893784491	0.018291741957
0	9684	91.945185526448	0.020953540178
0	9689	91.966139066626	0.224364920562
0	9697	92.190503987188	0.070809674025
0	9699	92.261313661213	0.042669534311
0	9701	92.303983195524	0.018885685277
0	9703	92.322868880801	0.144974932684
0	9718	92.467843813485	0.053547752319
0	9725	92.521391565804	0.041023378396
0	9730	92.5624149442	0.03642069877
0	9735	92.59883564297	0.041582147635
0	9740	92.640417790605	0.033176084247
0	9745	92.673593874852	0.002626304518
0	9747	92.67622017937	0.115713744931
0	9755	92.791933924301	0.005495138759
0	9757	92.79742906306	0.040444184431
0	9765	92.837873247491	0.047652671309
0	9771	92.8855259188	0.087683200867
0	9777	92.973209119667	0.065770124628
0	9782	93.038979244295	0.064653596894
0	9788	93.103632841189	0.01398784012
0	9793	93.117620681309	0.001966012496
0	9795	93.119586693805	0.16617810632
0	9804	93.285764800125	0.074164509915
0	9809	93.35992931004	0.067592342845
0	9814	93.427521652885	0.01222284463
0	9819	93.439744497515	0.013591175951
0	9824	93.453335673466	0.116729411103
0	9829	93.570065084569	0.051700291137
0	9834	93.621765375706	0.002193633898
0	9836	93.623959009604	0.020757319724
0	9844	93.644716329328	0.020253661459
0	9850	93.664969990787	0.065002300459
0	9855	93.729972291246	0.005253191645
0	9857	93.735225482891	0.043924774525
0	9865	93.779150257416	0.032273988551
0	9870	93.811424245967	0.070663490764
0	9875	93.882087736731	0.085746155205
0	9880	93.967833891936	0.014481784896
0	9885	93.982315676832	0.017704440005
0	9890	94.000020116837	0.134629993383
0	9897	94.13465011022	0.008180970676
0	9902	94.142831080896	0.248101637245
0	9908	94.390932718141	0.020043810682
0	9913	94.410976528823	0.008988204409
0	9918	94.419964733232	0.084068219762
0	9923	94.504032952994	0.035964838614
0	9928	94.539997791608	0.007563472252
0	9933	94.54756126386	0.099562824567
0	9938	94.647124088427	0.012897261464
0	9943	94.660021349891	0.021362380815
0	9948	94.681383730706	0.003566850321
0	9950	94.684950581027	0.01389565234
0	9958	94.698846233367	0.061159487028
0	9963	94.760005720395	0.065664317767
0	9968	94.825670038162	0.025145620834
0	9973	94.850815658996	0.189751616686
0	9978	95.040567275682	0.018614089157
0	9983	95.059181364839	0.035033552108
0	9988	95.094214916947	0.063403596193
0	9994	95.15761851314	0.024914440861
0	9999	95.182532954001	0.020471965633
0	10004	95.203004919634	0.024873498871
0	10009	95.227878418505	0.065055631893
0	10014	95.292934050398	0.079117032514
0	10019	95.372051082912	0.084423891401
0	10024	95.456474974313	0.061219151799
0	10029	95.517694126112	0.012273474107
0	10034	95.529967600219	0.019203578585
0	10040	95.549171178804	0.182135484401
0	10047	95.731306663205	0.183627979262
0	10052	95.914934642467	0.008858220546
0	10057	95.923792863013	0.111087360125
0	10065	96.034880223138	0.01718376925
0	10068	96.052063992388	0.060353558045
0	10070	96.112417550433	0.009910066028
0	10072	96.122327616461	0.029060365156
0	10075	96.151387981617	0.021194617016
0	10077	96.172582598633	0.011615268207
0	10079	96.18419786684	0.032702178126
0	10082	96.216900044966	0.054675968857
0	10084	96.271576013823	0.036925626851
0	10087	96.308501640674	0.07009884735
0	10089	96.378600488024	0.096072696799
0	10122	96.474673184823	0.046326845527
0	10131	96.52100003035	0.110113422272
0	10137	96.631113452622	0.034220947078
0	10142	96.6653343997	0.012429726214
0	10147	96.677764125914	0.006280517467
0	10149	96.684044643381	0.048761452122
0	10157	96.732806095503	0.076793243289
0	10162	96.809599338792	0.005910809752
0	10164	96.815510148544	0.033823493993
0	10172	96.849333642537	0.030714013931
0	10177	96.880047656468	0.096246791883
0	10183	96.976294448351	0.01945500292
0	10188	96.995749451271	0.007240806724
0	10190	97.002990257995	0.019026485505
0	10198	97.0220167435	0.167748218968
0	10204	97.189764962468	0.032945427342
0	10210	97.22271038981	0.033785115788
0	10215	97.256495505598	0.065434757987
0	10220	97.321930263585	0.003755058543
0	10222	97.325685322128	0.003584610903
0	10224	97.329269933031	0.016433102883
0	10235	97.345703035914	0.105669914214
0	10240	97.451372950128	0.116436294359
0	10245	97.567809244487	0.066366148624
0	10250	97.634175393111	0.020324628378
0	10255	97.654500021489	0.009709548939
0	10260	97.664209570428	0.175458230457
0	10266	97.839667800885	0.139976138423
0	10271	97.979643939308	0.029360268565
0	10276	98.009004207873	0.035292599756
0	10281	98.044296807629	0.022867895573
0	10286	98.067164703202	0.428050912966
0	10293	98.495215616168	0.077977564086
0	10298	98.573193180254	0.010986187275
0	10303	98.584179367529	0.031472895067
0	10308	98.615652262596	0.038276023692
0	10313	98.653928286288	0.003928711348
0	10315	98.657856997636	0.017141986293
0	10323	98.674998983929	0.088258088979
0	10330	98.763257072908	0.018132750652
0	10337	98.78138982356	0.07814257772
0	10343	98.85953240128	0.044709999511
0	10349	98.904242400791	0.036179588405
0	10354	98.940421989196	0.127372562545
0	10360	99.067794551741	0.000486525297
0	10362	99.068281077038	0.08180548703
0	10371	99.150086564068	0.007329789628
0	10373	99.157416353696	0.064357105291
0	10382	99.221773458987	0.06223810394
0	10387	99.284011562927	0.040955227169
0	10393	99.324966790096	0.044684594587
0	10400	99.369651384683	0.127744039487
0	10405	99.49739542417	0.060206058006
0	10411	99.557601482176	0.033899276086
0	10416	99.591500758262	0.022387413738
0	10421	99.613888172	0.103507116908
0	10426	99.717395288908	0.049628455892
0	10431	99.7670237448	0.089782846942
0	10436	99.856806591742	0.0285311379
0	10442	99.885337729642	0.012029451388
0	10447	99.89736718103	0.026704799398
0	10452	99.924071980428	0.073750915729
0	10457	99.997822896157	0.026809959507
0	10463	100.024632855664	0.000612291942
0	10465	100.025245147606	0.001629032679
0	10467	100.026874180285	0.019491612326
0	10475	100.046365792611	0.003146724093
0	10480	100.049512516704	0.013040157811
0	10488	100.062552674515	0.094629566453
0	10494	100.157182240968	0.035348408203
0	10499	100.192530649171	0.059458403725
0	10505	100.251989052896	0.066752154216
0	10511	100.318741207112	0.013094979529
0	10516	100.331836186641	0.005139101601
0	10518	100.336975288242	0.006285344438
0	10523	100.34326063268	0.036172300003
0	10531	100.379432932683	0.00207810594
0	10533	100.381511038623	0.139364431634
0	10542	100.520875470257	0.032668173361
0	10547	100.553543643618	0.012980428984
0	10552	100.566524072602	0.04433260673
0	10557	100.610856679332	0.056527001506
0	10563	100.667383680838	0.114117528249
0	10569	100.781501209087	0.044932397735
0	10574	100.826433606822	0.126456571998
0	10579	100.95289017882	0.000505733781
0	10581	100.953395912601	0.022804588286
0	10589	100.976200500887	0.032296597679
0	10594	101.008497098566	0.133566233521
0	10601	101.142063332087	0.06168216388
0	10606	101.203745495967	0.039458608288
0	10611	101.243204104255	0.002248583397
0	10613	101.245452687652	0.042676583517
0	10622	101.288129271169	0.105814192402
0	10628	101.393943463571	0.009839423306
0	10633	101.403782886877	0.036706940817
0	10638	101.440489827694	0.006157075346
0	10640	101.44664690304	0.001557046672
0	10645	101.448203949712	0.014010573905
0	10650	101.462214523617	0.012706795643
0	10658	101.47492131926	0.006635951492
0	10660	101.481557270752	0.153604432011
0	10669	101.635161702763	0.012634518846
0	10674	101.647796221609	0.043651952586
0	10679	101.691448174195	0.038806158881
0	10684	101.730254333076	0.005684901421
0	10686	101.735939234497	0.101344347854
0	10696	101.837283582351	0.016951891383
0	10701	101.854235473734	0.079234285342
0	10707	101.933469759076	0.03050501511
0	10712	101.963974774186	0.00164456349
0	10714	101.965619337676	0.001058631593
0	10716	101.966677969269	0.059958784803
0	10727	102.026636754072	0.026518733244
0	10733	102.053155487316	0.002396095855
0	10735	102.055551583171	0.033614180583
0	10743	102.089165763754	0.311371608399
0	10750	102.400537372153	0.013964395101
0	10755	102.414501767254	0.076650320289
0	10760	102.491152087543	0.044414205108
0	10765	102.535566292651	0.01315804483
0	10770	102.548724337481	0.069966978121
0	10775	102.618691315602	0.033678039523
0	10780	102.652369355125	0.013448526417
0	10785	102.665817881542	0.068148666585
0	10791	102.733966548127	0.048445020145
0	10796	102.782411568272	0.091568649005
0	10801	102.873980217277	0.051030124233
0	10806	102.92501034151	0.012994097604
0	10811	102.938004439114	0.148347816354
0	10816	103.086352255468	0.00719056774
0	10818	103.093542823208	0.075316133113
0	10827	103.168858956321	0.133737969693
0	10835	103.302596926014	0.094307441345
0	10840	103.396904367359	0.055548667318
0	10845	103.452453034677	0.033708411473
0	10850	103.48616144615	0.104488694384
0	10855	103.590650140534	0.010249748703
0	10860	103.600899889237	0.013223228096
0	10865	103.614123117333	0.27381594257
0	10873	103.887939059903	0.006888252177
0	10875	103.89482731208	0.006926092106
0	10880	103.901753404186	0.021564166607
0	10888	103.923317570793	0.031881585963
0	10893	103.955199156756	0.01456442417
0	10898	103.969763580926	0.00352611823
0	10900	103.973289699156	0.003776823045
0	10902	103.977066522201	0.143987189067
0	10915	104.121053711268	0.051708561938
0	10917	104.172762273206	0.167513255285
0	10920	104.340275528491	0.014464966408
0	10922	104.354740494899	0.063539305969
0	10931	104.418279800868	0.029912260768
0	10942	104.448192061636	0.021538595654
0	10947	104.46973065729	0.017004979157
0	10952	104.486735636447	0.014677120167
0	10957	104.501412756614	0.127037171859
0	10962	104.628449928473	0.015414877563
0	10967	104.643864806036	0.029910868738
0	10972	104.673775674774	0.006807828669
0	10974	104.680583503443	0.105953497639
0	10983	104.786537001082	0.03730724985
0	10988	104.823844250932	0.002250724041
0	10990	104.826094974973	0.007646911837
0	10995	104.83374188681	0.038372196152
0	11003	104.872114082962	0.019043307718
0	11008	104.89115739068	0.030140695219
0	11013	104.921298085899	0.049269512228
0	11018	104.970567598127	0.019734989961
0	11023	104.990302588088	0.065013836473
0	11028	105.055316424561	0.017847281814
0	11033	105.073163706375	0.001228607289
0	11035	105.074392313664	0.015516030735
0	11043	105.089908344399	0.028116121248
0	11048	105.118024465647	0.011127781849
0	11053	105.129152247496	0.052795544966
0	11058	105.181947792462	0.033925977424
0	11063	105.215873769886	0.095949871234
0	11069	105.31182364112	0.021166520303
0	11074	105.332990161423	0.032248791884
0	11079	105.365238953307	0.020068713761
0	11084	105.385307667068	0.174021571018
0	11091	105.559329238086	0.003425034089
0	11093	105.562754272175	0.015437288397
0	11101	105.578191560572	0.000698103413
0	11103	105.578889663985	0.000680038799
0	11105	105.579569702784	0.121326277956
0	11117	105.70089598074	0.033058484206
0	11122	105.733954464946	0.026701167036
0	11127	105.760655631982	0.014793360359
0	11133	105.775448992341	0.056512041946
0	11138	105.831961034287	0.086783422475
0	11143	105.918744456762	0.030110414703
0	11148	105.948854871465	0.013248606786
0	11153	105.962103478251	0.011197048022
0	11158	105.973300526273	0.018598800421
0	11163	105.991899326694	0.132589531271
0	11169	106.124488857965	0.078325490259
0	11174	106.202814348224	0.006543146789
0	11176	106.209357495013	0.06278844309
0	11184	106.272145938103	0.032828732124
0	11189	106.304974670227	0.040828066554
0	11195	106.345802736781	0.004810574708
0	11197	106.350613311489	0.061030193593
0	11205	106.411643505082	0.013021253474
0	11210	106.424664758556	0.027118984686
0	11215	106.451783743242	0.057825038308
0	11220	106.50960878155	0.00026620992
0	11222	106.50987499147	0.037370933776
0	11230	106.547245925246	0.000571004327
0	11232	106.547816929573	0.039931441522
0	11240	106.587748371095	0.035792322366
0	11245	106.623540693461	0.089260705879
0	11251	106.71280139934	0.004348258884
0	11253	106.717149658224	0.003135178613
0	11258	106.720284836837	0.002621300943
0	11260	106.72290613778	0.117602794254
0	11272	106.840508932034	0.16836391561
0	11277	107.008872847644	0.052666780677
0	11283	107.061539628321	0.097950706024
0	11288	107.159490334345	0.05120873895
0	11293	107.210699073295	0.008245337797
0	11298	107.218944411092	0.001533693784
0	11300	107.220478104876	3.3221811e-005
0	11302	107.220511326687	0.120437637035
0	11314	107.340948963722	0.142080047792
0	11319	107.483029011514	0.001419047439
0	11321	107.484448058953	0.016309039876
0	11329	107.500757098829	0.010255848776
0	11334	107.511012947605	0.010283455998
0	11339	107.521296403603	0.113125540189
0	11344	107.634421943792	0.058802986361
0	11350	107.693224930153	0.006775391382
0	11352	107.700000321535	0.005765141193
0	11357	107.705765462728	0.0253739082
0	11365	107.731139370928	0.015370407508
0	11370	107.746509778436	0.071366068234
0	11375	107.81787584667	0.184633686061
0	11381	108.002509532731	0.041385091088
0	11383	108.043894623819	0.051008003068
0	11385	108.094902626887	0.065555273183
0	11387	108.16045790007	0.036769112119
0	11389	108.197227012189	0.01071204609
0	11391	108.207939058279	0.025368132804
0	11393	108.233307191083	0.026555875956
0	11396	108.259863067039	0.074471968505
0	11399	108.334335035544	0.03449642859
0	11402	108.368831464134	0.00759684293
0	11404	108.376428307064	0.013960801914
0	11406	108.390389108978	0.171076837308
0	11445	108.561465946286	0.308709853648
0	11450	108.870175799934	0.098708334516
0	11455	108.96888413445	0.055602444318
0	11461	109.024486578768	0.048071855295
0	11467	109.072558434063	0.107613276629
0	11472	109.180171710692	0.002192693584
0	11474	109.182364404276	0.024958587669
0	11482	109.207322991945	0.060341451065
0	11487	109.26766444301	0.129406683319
0	11492	109.397071126329	0.122256042085
0	11497	109.519327168414	0.01449267178
0	11503	109.533819840194	0.037177524366
0	11509	109.57099736456	0.008591867739
0	11514	109.579589232299	0.021865192802
0	11520	109.601454425101	0.077290310446
0	11526	109.678744735547	0.006407429295
0	11528	109.685152164842	0.180626727161
0	11537	109.865778892003	0.070304675853
0	11542	109.936083567856	0.003202175904
0	11544	109.93928574376	0.108150659953
[...]
33	30219	292.925730259304	0.012730512583
33	30224	292.991399504724	0.00864090853
33	30230	293.176836027499	0.008598452279
33	30236	293.326503316093	0.008564786492
33	30241	293.387429184977	0.00855118495
33	30248	293.472339452813	0.008532423208
33	30251	293.480869796464	0.016489894696
33	30257	293.606522200296	0.008502368517
33	30262	293.666375402617	0.008488964346
33	30267	293.698592808468	0.00848279205
33	30272	293.717041979513	0.008478682171
33	30279	293.78055401726	0.0084643289
33	30284	293.815349546052	0.008457170472
33	30292	293.833829822193	0.008453085376
33	30297	293.842280866501	0.009379986963
33	30300	293.850729870726	0.014222650153
33	30306	293.891202537051	0.008439836026
33	30311	293.913942282331	0.008435767655
33	30316	293.925941342871	0.00843271895
33	30321	293.985780537202	0.008419533317
33	30326	294.002399294503	0.008416496333
33	30331	294.018448374937	0.008412450427
33	30336	294.07798217281	0.008400336013
33	30341	294.176770340587	0.008378216637
33	30346	294.187851196764	0.008376211559
33	30353	294.266050930734	0.00835920707
33	30358	294.283087309714	0.008356213442
33	30365	294.293870534855	0.008353221957
33	30368	294.302222760126	0.01216073789
33	30373	294.318496625456	0.008348240906
33	30378	294.364350205045	0.008338296605
33	30383	294.451567368217	0.008320456436
33	30388	294.465279141707	0.008317490494
33	30393	294.479257758581	0.008314526666
33	30398	294.585897832401	0.008291873964
33	30403	294.606037489894	0.008287946957
33	30408	294.650774620076	0.008278145695
33	30413	294.671779363133	0.008274231678
33	30418	294.684312204426	0.008271298594
33	30427	294.765028707085	0.008254716981
33	30434	294.773281477658	0.016141793366
33	30437	294.781532302741	0.022505953506
33	30442	294.789782155422	0.024548914905
33	30445	294.798030063988	0.028964272003
33	30448	294.806276029355	0.024107534174
33	30453	294.833599663839	0.00824014126
33	30459	294.87379719464	0.008232388569
33	30464	294.899092580831	0.008226583617
33	30469	294.909815235412	0.008224650452
33	30474	294.959908669438	0.008214034264
33	30480	295.017292976257	0.008202484181
33	30487	295.032783838307	0.008199601734
33	30490	295.040981519534	0.011748885343
33	30495	295.157572357062	0.008173750584
33	30500	295.183086528716	0.008168981211
33	30505	295.254623734121	0.008153756552
33	30512	295.268118746828	0.008150908244
33	30515	295.276268706078	0.012793357449
33	30520	295.35280153867	0.008133860098
33	30530	295.429388413739	0.008118765948
33	30533	295.437505296856	0.009390057366
33	30541	295.610834100757	0.008082207597
33	30544	295.618915375289	0.009737683242
33	30549	295.759972715035	0.008052455999
33	30554	295.836011110503	0.008037662189
33	30560	295.902490849765	0.008024762123
33	30567	295.924163009115	0.008020164986
33	30570	295.932182255306	0.009443134122
33	33126	320.407202387077	0.343389685765
33	33129	320.414404033168	0.342478535973
33	33132	320.421605679259	0.327181896598
33	33135	320.428806584516	0.325426206159
33	33139	320.436007489773	0.299111894151
33	33142	320.443207654348	0.282471863295
33	33145	320.450407818923	0.26893391815
33	33148	320.457607983498	0.207345098673
33	33151	320.464807407544	0.208862312991
33	33154	320.47200683159	0.127078988253
33	33157	320.479205515259	0.108559358745
33	33160	320.486404198928	0.106870499055
33	33165	320.552079102497	0.007194984068
33	33170	320.621773530428	0.007192027124
33	33176	320.708156203896	0.007187596262
33	33181	320.763694069634	0.007184645386
33	33186	320.835430625295	0.007181696932
33	33195	320.946102650723	0.007176542957
33	33198	320.953278458001	0.009032834714
33	33205	321.124766197825	0.007167724759
33	33210	321.131933188713	0.013792182446
33	33217	321.139100179601	0.014313416354
33	33220	321.146266436767	0.013940443317
33	33223	321.153432693933	0.016900983707
33	33228	321.168321056827	0.007165523595
33	33233	321.24872186308	0.007161857991
33	33238	321.375684932479	0.007155269345
33	33243	321.38453198787	0.007155269345
33	33248	321.391687852922	0.007154538021
33	33253	321.402507082667	0.007154538021
33	33258	321.444992974944	0.007152344947
33	33263	321.551856618843	0.007147233
33	33268	321.590226473867	0.007145044401
33	33274	321.730035222037	0.007138486641
33	33279	321.738803791699	0.007138486641
33	33284	321.757973177498	0.007137030995
33	33289	321.836643015975	0.007133394477
33	33297	321.92894989576	0.007129035543
33	33300	321.936078931303	0.012483791809
33	33307	322.028618875173	0.007124681934
33	33310	322.035742832022	0.010148276063
33	33315	322.079209266618	0.00712178248
33	33320	322.172683926615	0.007117437722
33	33325	322.214427484105	0.007115267331
33	33330	322.235665375515	0.007114544161
33	33335	322.278545245327	0.007112375533
33	33343	322.485544612903	0.007102993404
33	33348	322.503469089014	0.007101552196
33	33353	322.51695281072	0.007101552196
33	33358	322.565180278762	0.007098671534
33	33364	322.680544510997	0.007093635995
33	33369	322.694501735178	0.007092917216
33	33374	322.737143822273	0.00709076175
33	33379	322.746922204537	0.00709076175
33	33384	322.771913829164	0.007089325501
33	33389	322.798544696007	0.007087889834
33	33394	322.871885470265	0.007084303208
33	33400	322.933056199594	0.007083586319
33	33405	323.024683829744	0.007129035543
33	33410	323.073276009644	0.007153806847
33	33415	323.092028045145	0.007163323782
33	33420	323.259567039661	0.007250129467
33	33425	323.291982585853	0.00726744186
33	33430	323.343997203563	0.007294706128
33	33435	323.40032768627	0.007324474207
33	33440	323.407949121532	0.007328308208
33	33445	323.467862357223	0.007360672976
33	33451	323.476657239052	0.007365319865
33	33458	323.494525450744	0.007375408282
33	33463	323.501904746548	0.009870361057
33	33468	323.509287933975	0.01238920119
33	33471	323.516675017132	0.00916772554
33	33476	323.539712341763	0.007399577167
33	33481	323.585296510591	0.007424692406
33	33486	323.60644185199	0.007436523956
33	33493	323.697588404315	0.007486631016
33	33496	323.705079041019	0.01028275751
33	33501	323.814501760242	0.007552055238
33	33506	323.839493318998	0.007566749541
33	33512	323.865053009348	0.007581501137
33	33517	323.907410078429	0.007605388961
33	33522	323.948322383843	0.007629427793
33	35227	340.008465495177	0.008611145282
33	35232	340.092277514358	0.00729318608
33	35237	340.126503665888	0.007290147886
33	35242	340.151403390438	0.007287112222
33	35249	340.257894882083	0.007276507277
33	35255	340.36595048967	0.007265179035
33	35263	340.479353819284	0.00725388601
33	35269	340.543093936828	0.007247127032
33	35276	340.565983615302	0.007244876837
33	35279	340.573227742385	0.010093634324
33	35285	340.61169002656	0.007240380637
33	35290	340.685630445771	0.007232899359
33	35295	340.701075833045	0.007231404959
33	35301	340.787542814443	0.007222451506
33	35308	340.836797776217	0.007217238891
33	35311	340.844014271062	0.009155423265
33	35320	341.085684241583	0.007192766132
33	35325	341.141149111603	0.007186858316
33	35331	341.230505295553	0.007178014766
33	35336	341.242989818039	0.007176542957
33	35341	341.265805265033	0.007174336374
33	35349	341.286228659351	0.007172866072
33	35354	341.293400790499	0.009332962123
33	35357	341.300572186872	0.00893955468
33	35366	341.468953631192	0.007238134629
33	35369	341.476203760659	0.012248971732
33	35374	341.495918145191	0.007282563462
33	35379	341.593503739216	0.00744522442
33	35384	341.610897127485	0.007475437847
33	35390	341.746203216354	0.007716049383
33	35396	341.765250921486	0.007749363445
33	35401	341.829209890516	0.00774250636
33	35406	341.862866181692	0.007739082366
33	35411	341.871844213004	0.007738226841
33	35418	342.028866662018	0.007721155967
33	35421	342.036586966419	0.015395793782
33	35427	342.244596942454	0.00769738289
33	35432	342.267180366845	0.007694844454
33	35437	342.284736522802	0.007693153094
33	35442	342.324139707342	0.007688927944
33	35447	342.345789425826	0.007686395081
33	35452	342.372762165024	0.007683863886
33	35457	342.408610127477	0.00767964893
33	35464	342.463668880135	0.007673755755
33	35467	342.471341794746	0.014935620867
33	35472	342.480389926779	0.007672073652
33	35477	342.489997776398	0.007671232877
33	35482	342.507116435488	0.007668711656
33	35492	342.644591924432	0.007654455987
33	35495	342.6522455435	0.015004126134
33	35498	342.659898325833	0.021163051227
33	35505	342.697677619831	0.007648601399
33	35508	342.705325385591	0.009974074163
33	35513	342.796523962379	0.007637752319
33	35518	342.823813629762	0.007635253054
33	35523	342.947792129682	0.00762195122
33	35528	343.013521451051	0.007615317668
33	35533	343.057750819629	0.007610350076
33	35538	343.073407928234	0.007608695652
33	35543	343.084045302603	0.00760786871
33	35548	343.102304509837	0.007605388961
33	35553	343.12871092282	0.007602910829
33	35558	343.146934656846	0.007600434311
33	35563	343.169066778193	0.007598784195
33	35571	343.272077180591	0.007587253414
33	35574	343.279663611717	0.012223777389
33	35581	343.287840919331	0.007585609016
33	35584	343.295425706415	0.014461256488
33	35589	343.32986866086	0.007581501137
33	35594	343.348459473152	0.007579859231
33	35601	343.827584981901	0.00752931053
33	35606	343.88935159322	0.007522837184
33	35612	343.954528433641	0.00751637496
33	38162	368.407270461155	0.343374679564
33	38165	368.414548481533	0.324221996021
33	38168	368.421834835233	0.299516231153
33	38171	368.429128781258	0.231251465425
33	38174	368.436431097135	0.18698939909
33	38177	368.443741038655	0.15764110739
33	38182	368.451059386799	0.149409032743
33	38186	368.458385394125	0.102708875032
33	38189	368.465719076681	0.021471337564
33	38195	368.493370059421	0.007364544976
33	38201	368.539364611845	0.007416039835
33	38206	368.601707141736	0.007486631016
33	38213	368.616956776779	0.007504288165
33	38216	368.624469118483	0.010075036254
33	38221	368.713901346292	0.007616974973
33	38228	368.73763994105	0.007645259939
33	38233	368.745294397037	0.010117569165
33	38236	368.752958071221	0.008639807534
33	38241	368.766727900583	0.007680491551
33	38246	368.780601282318	0.00769738289
33	38251	368.801206462586	0.007722007722
33	38258	368.812428838021	0.007735661399
33	38261	368.820173914365	0.008849956236
33	38266	368.854101951566	0.007787295583
33	38274	368.885346753757	0.007822977202
33	38277	368.893164488847	0.014681928939
33	38284	368.958816053458	0.007769145394
33	38290	369.124863190495	0.00764943722
33	38295	369.150988204163	0.007631091246
33	38300	369.187553141894	0.007605388961
33	38307	369.246863582572	0.0075634792
33	38312	369.254422161559	0.012421867122
33	38315	369.26197503165	0.009189123577
33	38321	369.317594330296	0.007514761138
33	38326	369.405266965141	0.007455533071
33	38331	369.420915299309	0.007444432628
33	38338	369.43025480636	0.007438104346
33	38341	369.437688171551	0.009226045834
33	38346	369.496263421803	0.007394105841
33	38351	369.584892546354	0.007335988262
33	38356	369.601417490594	0.007325240686
33	38361	369.612437171187	0.007318348144
33	38369	369.697319666172	0.007263671267
33	38372	369.704578065177	0.008989218581
33	38380	369.869880488636	0.007181696932
33	38383	369.877062922455	0.011434640991
33	38388	369.947855317965	0.007192027124
33	38396	370.013063748908	0.007200164575
33	38399	370.020264654165	0.011627411351
33	38410	370.069094691635	0.007207578254
33	38413	370.076303012096	0.012406663335
33	38418	370.083512817431	0.01920482164
33	38421	370.090723365433	0.025353398344
33	38424	370.097934656254	0.020046624977
33	38429	370.221925407057	0.007227671657
33	38436	370.282918758535	0.007235890014
33	38441	370.292776713169	0.00723738627
33	38446	370.301029499224	0.007238134629
33	38451	370.3973671438	0.007250880464
33	38456	370.440362862151	0.007256894049
33	38461	370.5064741706	0.007265179035
33	38466	370.518461971973	0.007266687429
33	38471	370.574816313382	0.007274238803
33	38478	370.604643139859	0.007278777165
33	38481	370.611922673969	0.012150831559
33	38486	370.708093876295	0.007292426294
33	38492	370.750278943645	0.007297748123
33	38497	370.768301538753	0.007300792657
33	38502	370.949397360663	0.007325240686
33	38507	371.007318752785	0.00733291431
33	38512	371.059318503969	0.007339834329
33	38517	371.088160052451	0.007343684431
33	38524	371.105226824624	0.007345996432
33	38527	371.112573592046	0.009637880236
33	38534	371.183259000497	0.007356805045
33	38539	371.205626083362	0.007359899064
33	38544	371.238833372233	0.007364544976
33	38552	371.330876492455	0.007376962799
33	38555	371.338254232759	0.008537034198
33	38561	371.517801521622	0.007402707276
33	38566	371.622261620293	0.007416825599
33	38572	371.715517863024	0.007430209107
33	38578	371.797144954667	0.007441267141
33	38585	371.805997025229	0.007442849548
33	38588	371.813440666233	0.013532207151
33	38595	371.828549370812	0.007446016381
33	38598	371.835996179323	0.012814728466
33	38603	371.919588688937	0.007458710709
33	38608	371.930046249347	0.007460300544
33	38613	371.970411970125	0.007465870307
33	40309	388.407391763464	0.291021609144
33	40312	388.414783526928	0.288927482591
33	40315	388.422174509929	0.237576905974
33	40318	388.42956549293	0.151714381596
33	40321	388.436956475931	0.122449966129
33	40326	388.444346678634	0.085079343429
33	40329	388.451736881337	0.010689077431
33	40336	388.48533235035	0.007388642601
33	40341	388.539636765346	0.007385524372
33	40346	388.551304209897	0.007385524372
33	40351	388.560816981331	0.007384745226
33	40356	388.588432871465	0.007383187427
33	40362	388.600831691673	0.007382408775
33	40367	388.644310169048	0.007380851961
33	40373	388.745437501801	0.007376185458
33	40378	388.794890957016	0.007373854419
33	40384	388.815435501615	0.007372301211
33	40390	388.876209787464	0.007369972626
33	40395	388.905886030559	0.007368421053
33	40402	388.974848635331	0.007364544976
33	40407	388.99965585426	0.00736377025
33	40415	389.048145705919	0.00736144705
33	40420	389.055506378895	0.012050508752
33	40423	389.062867051871	0.010955685726
33	40428	389.120235741689	0.007357578306
33	40433	389.159313638365	0.007356031946
33	40440	389.198146585535	0.007354486237
33	40443	389.20550029916	0.010820158433
33	40448	389.258403747642	0.007351396765
33	40455	389.303078975071	0.007349081365
33	40460	389.319381508402	0.007349081365
33	40465	389.51351394866	0.007342143906
33	40470	389.539633964239	0.007341373886
33	40475	389.555180532586	0.007340604027
33	40480	389.565880417968	0.007340604027
33	40486	389.590744801393	0.007339064793
33	40491	389.6179530389	0.007338295419
33	40496	389.633864368806	0.007338295419
33	40501	389.686854444802	0.007335988262
33	40506	389.727778257884	0.007334450964
33	40514	389.872512868046	0.007329842932
33	40517	389.879842710978	0.012420959793
33	40522	389.929200789162	0.007327541087
33	40528	390.184509654068	0.007319113342
33	40533	390.221746963663	0.007317583107
33	40538	390.301411520433	0.007315288954
33	40543	390.328334921039	0.007314524556
33	40550	390.37636821821	0.007312996239
33	40553	390.38368045053	0.009047932732
33	40558	390.465674929949	0.00730994152
33	40564	390.498089197753	0.007308415118
33	40569	390.510602675158	0.007308415118
33	40574	390.519029241184	0.007307652156
33	40581	390.616775634996	0.007304601899
33	40586	390.660410198356	0.007303077726
33	40592	390.865913429211	0.007296226808
33	40597	390.931423590344	0.007293946025
33	40602	390.981887931938	0.007292426294
33	40607	391.128282199366	0.007287112222
33	40612	391.169644270292	0.007285595337
33	40618	391.187252967931	0.007284837132
33	40623	391.217268167559	0.007284079084
33	40628	391.242551481623	0.007283321194
33	40634	391.294002229633	0.007281805888
33	40639	391.304104339989	0.007281048471
33	40645	391.357499730045	0.00727953411
33	40650	391.462658282518	0.007275750961
33	40655	391.503176026167	0.007274238803
33	40660	391.590058509963	0.007271216371
33	40665	391.661861489808	0.007268951194
33	40670	391.73643305883	0.007266687429
33	40677	391.758292558844	0.007265933153
33	40680	391.765558491997	0.011582035633
33	40685	391.844592773432	0.007262917618
33	40690	391.885268886503	0.007261410788
33	40695	391.935701638144	0.007259904584
33	40700	391.949096496649	0.007259904584
33	40707	391.97029663097	0.007259151716
33	40710	391.977555029975	0.00814376548
33	40715	391.986549612526	0.007258399005
33	40754	392.407244127083	0.351878563092
33	40757	392.414488254166	0.326267373397
33	40760	392.421731631649	0.321624446975
33	40763	392.428975009132	0.298604705209
33	40766	392.436218386615	0.271109487706
33	40769	392.443461764098	0.260901665489
33	40772	392.450704392137	0.230806731344
33	40775	392.457947020176	0.193296346395
33	40778	392.465189648215	0.18854470286
33	40781	392.472431526965	0.195515970562
33	40784	392.479673405715	0.168868445612
33	40787	392.486915284465	0.156352878648
33	40792	392.494156414081	0.160880707317
33	40795	392.501397543697	0.11576423152
33	40798	392.508638673313	0.123001738335
33	40801	392.51587905395	0.128931446683
33	40804	392.523119434587	0.030024333469
33	40809	392.543302264224	0.007239631813
33	40814	392.570159029272	0.007238883144
33	40819	392.5937763776	0.007238134629
33	40824	392.712756636033	0.007234394378
33	40829	392.783640044427	0.007231404959
33	40834	392.817928749462	0.00723065799
33	40839	392.82986661168	0.007229911175
33	40844	392.858069124158	0.007229164515
33	40849	392.944246377869	0.007226179416
33	40855	392.961788238721	0.007225433526
33	40862	392.973373159035	0.007225433526
33	40865	392.980598592561	0.01018991223
33	40870	393.024262707222	0.007223942208
33	40875	393.042793023872	0.007223196781
33	40880	393.053827168077	0.007222451506
33	40885	393.100710368775	0.007220961419
33	40890	393.140323073542	0.007219471947
33	40895	393.212260543348	0.007217238891
33	40900	393.2443529229	0.007216494845
33	40905	393.283267685608	0.007215007215
33	40910	393.295942849601	0.007215007215
33	40916	393.366933641585	0.007212033794
33	40921	393.410744383636	0.007210548002
33	40926	393.419328397917	0.007210548002
33	40931	393.431806178812	0.007210548002
33	40936	393.475566923801	0.007209062822
33	40941	393.511116125165	0.007207578254
33	40946	393.618222207165	0.007203869507
33	40951	393.715415514615	0.007200905257
33	40956	393.727707256254	0.007200164575
33	40961	393.827443461567	0.007197203372
33	40966	393.840359820987	0.007196463452
33	40971	393.892462256501	0.007194984068
33	40977	393.961462237587	0.007192766132
33	40983	393.992766221304	0.007192027124
33	40989	394.076344036958	0.00718907261
33	40994	394.131682640027	0.007186858316
33	40999	394.145936668028	0.007186858316
33	41004	394.229044265135	0.007183908046
33	41010	394.249184693309	0.007183170857
33	41015	394.327570519865	0.007180960197
33	41020	394.37752060613	0.007178750897
33	41025	394.417268157793	0.007178014766
33	41030	394.442678182843	0.007177278786
33	41035	394.461042629525	0.007176542957
33	41041	394.509950923386	0.007175071751
33	41046	394.563570248035	0.007172866072
33	41053	394.597871144068	0.007172131148
33	41056	394.605042540441	0.013384920202
33	41063	394.673118828144	0.007177278786
33	41068	394.846717900572	0.007453945267
33	41073	394.940379953777	0.00761200522
33	41078	394.960416418421	0.007646930304
33	41084	395.060285748214	0.007824726135
33	41089	395.08735797784	0.007874015748
33	41094	395.13472298435	0.007962689114
33	41099	395.174494013054	0.008038585209
33	41104	395.22199927816	0.008131025671
33	41109	395.285327662002	0.008257638315
33	41114	395.315248262778	0.008318478907
33	41121	395.324091211463	0.008337303478
33	41124	395.332445430344	0.015291398407
33	41129	395.349112699746	0.008389261745
33	41134	395.366925292147	0.008426628145
33	41143	395.386168406369	0.008467400508
33	41146	395.394654283445	0.013662432179
33	41149	395.403157684806	0.019286867109
33	41154	395.421207222997	0.008542836222
33	41160	395.451478339749	0.008568980291
33	41168	395.546118180303	0.008524111057
33	41171	395.554638141355	0.012440456579
33	41176	395.596115398872	0.008501335924
33	41181	395.702986182107	0.008452064719
33	41186	395.75923925617	0.008426628145
33	41192	395.796938791867	0.008409418549
33	41197	395.807346981233	0.008404370273
33	41202	395.892443283486	0.00836620055
33	41207	395.907623688701	0.00835920707
33	41213	395.952865491758	0.008339289969
33	41218	395.961765974907	0.008335317933

