file 40140399 1608577348                                        
version 2
run Exponential-selection-capacity-exponential-interarrival-time-14739-20201221-17:59:00-7580
attr configname Exponential-selection-capacity-exponential-interarrival-time
attr datetime 20201221-17:59:00
attr experiment Exponential-selection-capacity-exponential-interarrival-time
attr inifile aerocom.ini
attr iterationvars "$0=1.5s, $1=1.0s, $2=0.5, $3=7s"
attr iterationvarsf 1.5s,1.0s,0.5,7s-
attr measurement "$0=1.5s, $1=1.0s, $2=0.5, $3=7s"
attr network Aerocom
attr processid 7580
attr repetition 9
attr replication #9
attr resultdir results
attr runnumber 14739
attr seedset 9
param **.t 1.5s
param **.k 1.0s
param **.dataLink[*].s "1500 byte"
param **.dataLink[*].X 0.5
param **.nDL 5
param **.dataLink[*].dimPoolMax 400
param **.dataLink[*].dimPoolMin 100
param **.setCapacityDistribution "\"exponential\""
param **.aircraft[*].distribution "\"exponential\""
param **.aircraft[*].m 7s
param **.aircraft[*].linkSelector.DLMaxCapacity 0
param **.aircraft[*].linkSelector.trasmitting false
param **.aircraft[*].linkSelector.operationMode 0

vector 0 Aerocom.aircraft[3].dataLink[0] responseTime:vector ETV
attr "" ""
attr source computeResponseTime
0	9123 160701 418299 3392590 10000.078863819736 81135.985206212725 3603 7461.2762352273 61587.001671242 125166771.98492 5263855128841.1
0	20034434 151389 3395420 6270013 81206.202865286761 149992.399423539781 3327 61656.113863398 114138.60292135 293614254.82861 26675246471394
vector 1 Aerocom.aircraft[3].dataLink[0] waitingTime:vector ETV
attr "" ""
attr source computeWaitingTime
1	169824 160657 418299 3392333 10000.078863819736 81129.985206212725 3602 7456.3518606126 61575.253171792 125120748.70868 5261126105158
1	20185823 151434 3395244 6270173 81201.202865286761 149996.059238963393 3328 61646.113863398 114137.2445708 293692886.07318 26682002786148
vector 2 Aerocom.aircraft[2].dataLink[0] responseTime:vector ETV
attr "" ""
attr source computeResponseTime
2	330481 155198 418301 3393837 10000.108432860078 81167.820140449785 3481 7782.2899661372 61916.211098546 122092114.91718 5109147027706.7
2	20337257 145093 3395404 6269964 81205.701823817487 149990.928415227091 3189 61942.561645875 115941.013378 282846093.48566 25863307378615
vector 3 Aerocom.aircraft[2].dataLink[0] waitingTime:vector ETV
attr "" ""
attr source computeWaitingTime
3	485679 155153 418301 3393631 10000.108432860078 81162.820140449785 3480 7778.1279646167 61906.211098546 122046840.62722 5106458491794.4
3	20482350 145139 3395232 6270229 81200.701823817487 149996.716213850711 3190 61930.561645875 115942.31639963 282927495.80206 25870633725939
vector 4 Aerocom.aircraft[2].dataLink[0] queueLength:vector ETV
attr "" ""
attr source computeQueueLength
4	640832 501929 418310 3393690 10000.374687991203 81164.751324771683 14781 1690 12991 108579209 954925655903
4	20627489 475546 3395232 6270292 81200.701823817487 149998.96694675322 13353 12992 23154 241120006 4468549315406
vector 5 Aerocom.aircraft[4].dataLink[4] queueLength:vector ETV
attr "" ""
attr source computeQueueLength
5	1142761 492258 418313 3392019 10000.400777815302 81122.567429851364 14498 1694 12775 104653498 904226104856
5	21103035 472662 3396137 6268942 81221.880628131123 149967.681534715484 13270 12776 22817 236223897 4316486939301
vector 6 Aerocom.aircraft[0].dataLink[0] queueLength:vector ETV
attr "" ""
attr source computeQueueLength
6	1635019 480719 418319 3394246 10000.635457915519 81178.062875018068 14178 1489 12273 97366212 805947335202
6	21575697 483632 3395802 6270316 81214.06564400998 149999.612836342929 13577 12274 22580 236500617 4240370907933
vector 7 Aerocom.aircraft[0].dataLink[0] waitingTime:vector ETV
attr "" ""
attr source computeWaitingTime
7	2115738 151232 418319 3394070 10000.635457915519 81173.109320303808 3393 7650.3545211905 61386.466737886 117834389.07129 4891409520083.6
7	22059329 148729 3395802 6270073 81214.06564400998 149994.021591086561 3270 61427.388355489 113216.94302454 285403918.38013 25619710035502
vector 8 Aerocom.aircraft[3].dataLink[0] queueLength:vector ETV
attr "" ""
attr source computeQueueLength
8	2266970 516437 418349 3392314 10001.766733852631 81129.485944711573 15209 1501 13109 111273794 984829836954
8	22208058 496779 3395244 6270281 81201.202865286761 149998.813244504367 13948 13109 23728 256853960 4860791665384
vector 9 Aerocom.aircraft[4].dataLink[4] responseTime:vector ETV
attr "" ""
attr source computeResponseTime
9	2783407 152336 418361 3392153 10001.98538710214 81125.143628194228 3417 7567.5102815345 62088.385986394 119546139.92504 4976544128274.1
9	22704837 146961 3396310 6269406 81226.880628131123 149977.874094318528 3229 62147.579375533 114918.53238902 285004208.8909 25906627320199
vector 10 Aerocom.aircraft[4].dataLink[4] waitingTime:vector ETV
attr "" ""
attr source computeWaitingTime
10	2935743 155711 418361 3391929 10001.98538710214 81120.143628194228 3416 7561.7454222278 62078.385986394 119501608.41476 4973899875806.7
10	22851798 150189 3396137 6268951 81221.880628131123 149967.874094318528 3229 62139.579375533 114910.53238902 284969764.8909 25900546215754
vector 11 Aerocom.aircraft[1].dataLink[3] queueLength:vector ETV
attr "" ""
attr source computeQueueLength
11	3091454 486048 418385 3394267 10002.578686760764 81178.780279844794 13927 1594 12174 95831306 789393462196
11	23001987 485739 3395805 6270225 81214.072100184036 149996.660727720362 13261 12175 22261 228288166 4042670415962
vector 12 Aerocom.aircraft[4].dataLink[2] queueLength:vector ETV
attr "" ""
attr source computeQueueLength
12	3577502 496080 418437 3390893 10003.073721192393 81094.277573885169 14222 1290 12149 95620989 782290999449
12	23487726 511980 3395325 6270310 81203.143729133668 149999.491354455467 13980 12150 22802 244318091 4402529166647
vector 13 Aerocom.aircraft[4].dataLink[2] waitingTime:vector ETV
attr "" ""
attr source computeWaitingTime
13	4073582 153224 418437 3390889 10003.073721192393 81094.262238180855 3362 7635.752198114 61470.064763962 113892414.13628 4701770485797.1
13	23999706 154795 3395325 6270065 81203.143729133668 149993.760252565569 3327 61559.982587536 114065.95224802 292047466.20788 26385545345568
vector 14 Aerocom.aircraft[2].dataLink[4] queueLength:vector ETV
attr "" ""
attr source computeQueueLength
14	4226806 493674 418477 3394462 10003.59292723657 81183.112494075923 14146 1427 12200 96413918 794477140000
14	24154501 502679 3396825 6269206 81239.599450870901 149974.075292884156 13729 12201 22674 239237496 4294365807414
vector 15 Aerocom.aircraft[2].dataLink[4] waitingTime:vector ETV
attr "" ""
attr source computeWaitingTime
15	4720480 153681 418477 3394408 10003.59292723657 81181.87748189917 3372 7668.9440437891 61182.89888677 117287214.69722 4930505190754
15	24657180 151329 3396825 6269179 81239.599450870901 149973.095341458771 3255 61163.361985032 113624.27924459 284803930.95501 25668192481478
vector 16 Aerocom.aircraft[0].dataLink[1] queueLength:vector ETV
attr "" ""
attr source computeQueueLength
16	4874161 509037 418501 3393938 10004.593242226286 81170.228153330856 14569 1579 12701 103963686 891631764778
16	24808509 519879 3396991 6268598 81242.956187377899 149960.199849072271 14199 12701 23498 256961970 4787871652094
vector 17 Aerocom.aircraft[0].dataLink[1] waitingTime:vector ETV
attr "" ""
attr source computeWaitingTime
17	5383198 157107 418501 3393926 10004.593242226286 81170.101761920959 3446 7885.5864226996 62282.465328304 119864501.50833 5005999325025
17	25328388 158289 3396991 6268612 81242.956187377899 149960.740606913078 3403 62354.914021975 114834.52608541 300972416.23431 27424794571696
vector 18 Aerocom.aircraft[1].dataLink[3] responseTime:vector ETV
attr "" ""
attr source computeResponseTime
18	5540305 152590 418526 3394389 10005.505034340331 81180.872501842089 3347 7841.2134929822 61959.312331613 117165008.54803 4919382546677.7
18	25486677 147531 3395950 6269796 81218.072100184036 149987.883201180154 3173 61915.455191648 115320.81531702 282341210.37693 25878388662058
vector 19 Aerocom.aircraft[0].dataLink[0] responseTime:vector ETV
attr "" ""
attr source computeResponseTime
19	5692895 154626 418537 3394313 10005.635457915519 81179.109320303808 3393 7660.3545211905 61398.466737886 117871329.07129 4893964537353.8
19	25634208 151953 3395948 6270073 81218.06564400998 149994.021591086561 3269 61435.388355489 113230.94302454 285325500.36884 25612964479036
vector 20 Aerocom.aircraft[1].dataLink[4] queueLength:vector ETV
attr "" ""
attr source computeQueueLength
20	5847521 518083 418556 3394635 10006.128464575015 81186.952231084737 14826 1482 12792 105844986 914069347246
20	25786161 494847 3394688 6269825 81188.240470996219 149988.524750124817 13519 12793 23099 242513277 4469786728335
vector 21 Aerocom.aircraft[1].dataLink[4] waitingTime:vector ETV
attr "" ""
attr source computeWaitingTime
21	6365604 160278 418556 3394553 10006.128464575015 81185.936916243406 3515 7461.6435201404 61521.554254243 122167698.33571 5154797649958.3
21	26281008 149378 3396413 6269773 81228.688998787351 149987.143947995553 3212 61563.688110845 113988.35608401 281523771.87862 25423161518735
vector 22 Aerocom.aircraft[4].dataLink[2] responseTime:vector ETV
attr "" ""
attr source computeResponseTime
22	6525882 153224 418595 3391186 10007.073721192393 81101.262238180855 3362 7643.752198114 61480.064763962 113928654.13628 4704232428126.3
22	26430386 154748 3395491 6270065 81207.143729133668 149993.760252565569 3326 61567.982587536 114070.17636858 291968774.25563 26378748379303
vector 23 Aerocom.aircraft[2].dataLink[4] responseTime:vector ETV
attr "" ""
attr source computeResponseTime
23	6679106 153637 418613 3392207 10007.59292723657 81126.570201641363 3371 7676.9440437891 61133.855833442 117262467.79834 4929303189320.7
23	26585134 151373 3394832 6269504 81191.87748189917 149980.095341458771 3256 61181.361985032 113638.27924459 284900085.85389 25678055464046
vector 24 Aerocom.aircraft[0].dataLink[1] responseTime:vector ETV
attr "" ""
attr source computeResponseTime
24	6832743 157107 418683 3394165 10009.593242226286 81176.101761920959 3446 7895.5864226996 62294.465328304 119901167.50833 5008562848165.6
24	26736507 158290 3397144 6269026 81246.956187377899 149968.740606913078 3403 62362.914021975 114850.52608541 301008590.23431 27431191753351
vector 25 Aerocom.aircraft[3].dataLink[3] queueLength:vector ETV
attr "" ""
attr source computeQueueLength
25	6989850 484641 418731 3394264 10010.034056389538 81178.69275585154 13897 1384 11982 92915283 751497658665
25	26894797 508377 3395488 6269544 81207.103137866573 149981.308778618931 13883 11983 22570 239752810 4270477622398
vector 26 Aerocom.aircraft[3].dataLink[3] waitingTime:vector ETV
attr "" ""
attr source computeWaitingTime
26	7474491 150334 418731 3394195 10010.034056389538 81176.621706857346 3298 7829.583839459 61829.153509769 112267971.19595 4622067442336.2
26	27403174 153223 3395488 6269352 81207.103137866573 149976.646914081263 3295 61830.920097206 113679.99768341 289646222.90685 26174599717104
vector 27 Aerocom.aircraft[1].dataLink[1] queueLength:vector ETV
attr "" ""
attr source computeQueueLength
27	7624825 496793 418742 3392611 10010.222586067101 81136.618206951736 14232 1538 12412 99414923 834965528701
27	27556397 509810 3396662 6264460 81235.170566976086 149862.490541723855 13925 12413 23054 247138207 4517230202355
vector 28 Aerocom.aircraft[1].dataLink[1] waitingTime:vector ETV
attr "" ""
attr source computeWaitingTime
28	8121618 152983 418742 3392565 10010.222586067101 81135.184321398002 3357 7489.3238849493 62210.764239089 116427749.36324 4878234028413.6
28	28066207 152679 3396662 6264390 81235.170566976086 149860.480550219096 3283 62310.186155437 114736.8856614 291822525.79941 26696628361436
vector 29 Aerocom.aircraft[0].dataLink[4] queueLength:vector ETV
attr "" ""
attr source computeQueueLength
29	8274601 490878 418745 3393537 10010.276665671388 81159.454406666736 14067 1393 12088 94815880 773103547798
29	28218886 500318 3396161 6269821 81222.104800377188 149988.416228476381 13664 12089 22560 236636230 4222560604604
vector 30 Aerocom.aircraft[0].dataLink[4] waitingTime:vector ETV
attr "" ""
attr source computeWaitingTime
30	8765479 153696 418745 3393443 10010.276665671388 81157.680508114709 3371 7605.9420592564 60774.670752306 116227136.29733 4806265751799.4
30	28719204 148526 3396161 6269656 81222.104800377188 149983.499269611055 3192 60834.859304805 113415.13031268 279656559.61339 25242654096125
vector 31 Aerocom.aircraft[0].dataLink[4] responseTime:vector ETV
attr "" ""
attr source computeResponseTime
31	8919175 153696 418932 3393622 10014.276665671388 81162.680508114709 3371 7613.9420592564 60784.670752306 116263456.29733 4808779265641.9
31	28867730 148526 3396284 6269890 81226.104800377188 149989.499269611055 3192 60842.859304805 113427.13031268 279690881.61339 25248662386885
vector 32 Aerocom.aircraft[1].dataLink[4] responseTime:vector ETV
attr "" ""
attr source computeResponseTime
32	9072871 160232 418961 3394553 10015.128464575015 81185.936916243406 3514 7479.6435201404 61527.909014924 122144066.78146 5153643373135.3
32	29016256 149424 3394843 6270117 81191.936916243406 149995.143947995553 3213 61533.554254243 113999.58978954 281619751.43288 25432984950698
vector 33 Aerocom.aircraft[1].dataLink[1] responseTime:vector ETV
attr "" ""
attr source computeResponseTime
33	9233103 152983 418966 3392977 10015.222586067101 81145.184321398002 3357 7499.3238849493 62230.764239089 116463883.36324 4880739630474.3
33	29165680 152679 3396808 6264600 81239.170566976086 149865.480550219096 3283 62318.186155437 114746.8856614 291857729.79941 26702889698521
vector 34 Aerocom.aircraft[3].dataLink[3] responseTime:vector ETV
attr "" ""
attr source computeResponseTime
34	9386086 150334 418990 3394435 10016.034056389538 81182.621706857346 3298 7841.583839459 61841.153509769 112303567.19595 4624489430720.2
34	29318359 153223 3395704 6269658 81212.103137866573 149983.646914081263 3295 61840.920097206 113693.99768341 289681526.90685 26180805482964
vector 35 Aerocom.aircraft[0].dataLink[2] queueLength:vector ETV
attr "" ""
attr source computeQueueLength
35	9536420 497244 419055 3394536 10017.152838069278 81185.177384420438 14244 1567 12381 99325510 831612884278
35	29471582 504143 3394962 6267083 81193.989099918997 149925.394520160289 13768 12382 22859 242453304 4395224094410
vector 36 Aerocom.aircraft[0].dataLink[2] waitingTime:vector ETV
attr "" ""
attr source computeWaitingTime
36	10033664 156365 419055 3394413 10017.152838069278 81182.082100813301 3429 7955.8602624254 61711.35816403 119516723.49707 5002499889149.8
36	29975725 153026 3394962 6267040 81193.989099918997 149924.46724262563 3290 61722.836930929 113810.82121407 289266846.1649 26166391818879
vector 37 Aerocom.aircraft[3].dataLink[1] queueLength:vector ETV
attr "" ""
attr source computeQueueLength
37	10190029 481607 419060 3393384 10017.171617098072 81156.107815704602 13796 1835 12339 97836825 820804956827
37	30128751 507572 3394950 6269244 81193.875149588063 149974.995390549144 13862 12339 22911 244029757 4424975951963
vector 38 Aerocom.aircraft[3].dataLink[1] waitingTime:vector ETV
attr "" ""
attr source computeWaitingTime
38	10671636 150045 419060 3393449 10017.171617098072 81157.902715278088 3292 7495.9792726058 63888.403278768 118918037.87069 5207716751324.3
38	30636323 152943 3394950 6269085 81193.875149588063 149970.896807743496 3289 63924.232275739 116091.83262864 295333171.3414 27269271744929
vector 39 Aerocom.aircraft[1].dataLink[2] queueLength:vector ETV
attr "" ""
attr source computeQueueLength
39	10821681 490168 419066 3391155 10017.495003113259 81100.439271242371 14050 1390 12130 94986196 776816051624
39	30789266 529599 3395199 6270124 81200.401144483918 149995.39269007013 14462 12130 23208 255539239 4663491851393
vector 40 Aerocom.aircraft[1].dataLink[2] waitingTime:vector ETV
attr "" ""
attr source computeWaitingTime
40	11311849 150883 419066 3391160 10017.495003113259 81100.493785144172 3310 8090.1673517847 61928.941439082 114581607.45165 4750866153156.5
40	31318865 157324 3395199 6270086 81200.401144483918 149994.451584764906 3383 62028.674501483 112901.61790017 295464470.05028 26541618004126
vector 41 Aerocom.aircraft[2].dataLink[2] queueLength:vector ETV
attr "" ""
attr source computeQueueLength
41	11462732 493423 419091 3394272 10017.616869633971 81178.833774105937 14144 1523 12324 97837136 814023001170
41	31476189 498398 3394917 6270096 81193.301169169303 149994.596593615514 13608 12324 22619 237889971 4279185855187
vector 42 Aerocom.aircraft[2].dataLink[2] waitingTime:vector ETV
attr "" ""
attr source computeWaitingTime
42	11956155 152304 419091 3394272 10017.616869633971 81178.833774105937 3343 7826.0941698944 63324.476109075 112520979.63636 4662906803005.5
42	31974587 154052 3394917 6270070 81193.301169169303 149993.950483261855 3312 63338.797422132 115928.66301619 298004012.99438 27538305424786
vector 43 Aerocom.aircraft[0].dataLink[2] responseTime:vector ETV
attr "" ""
attr source computeResponseTime
43	12108459 156365 419187 3394639 10021.152838069278 81187.082100813301 3429 7967.8602624254 61721.35816403 119553251.49707 5005047156174.1
43	32128639 153026 3395160 6267272 81199.989099918997 149929.46724262563 3290 61734.836930929 113820.82121407 289302448.1649 26172657093918
vector 44 Aerocom.aircraft[3].dataLink[1] responseTime:vector ETV
attr "" ""
attr source computeResponseTime
44	12264824 150046 419189 3393634 10021.171617098072 81162.902715278088 3292 7503.9792726058 63898.403278768 118953195.87069 5210265238020.4
44	32281665 152943 3395109 6269630 81197.875149588063 149982.896807743496 3289 63932.232275739 116115.83262864 295368369.3414 27275596739961
vector 45 Aerocom.aircraft[1].dataLink[2] responseTime:vector ETV
attr "" ""
attr source computeResponseTime
45	12414870 150884 419198 3391614 10021.495003113259 81111.493785144172 3310 8098.1673517847 61950.941439082 114617415.45165 4753347445102.5
45	32434608 157324 3395390 6270270 81205.401144483918 149998.451584764906 3383 62038.674501483 112909.61790017 295500500.05028 26547912328017
vector 46 Aerocom.aircraft[2].dataLink[2] responseTime:vector ETV
attr "" ""
attr source computeResponseTime
46	12565754 152304 419204 3394444 10021.616869633971 81182.833774105937 3343 7834.0941698944 63336.699673371 112557305.63636 4665344524832.8
46	32591932 154052 3395089 6270287 81197.301169169303 149998.950483261855 3312 63346.797422132 115938.66301619 298039262.99438 27544640643100
vector 47 Aerocom.aircraft[2].dataLink[1] queueLength:vector ETV
attr "" ""
attr source computeQueueLength
47	12718058 490863 419336 3388915 10024.390830544862 81044.910155066228 14060 1545 12243 96523958 797048259972
47	32745984 510798 3397857 6268306 81263.475684953614 149953.569520731108 13946 12243 22876 244810866 4428978906178
vector 48 Aerocom.aircraft[2].dataLink[1] waitingTime:vector ETV
attr "" ""
attr source computeWaitingTime
48	13208921 153227 419336 3388919 10024.390830544862 81045.078923503784 3362 7361.1742993734 60651.736554118 115301928.88597 4734086140316.3
48	33256782 154038 3397857 6268154 81263.475684953614 149949.584890774577 3312 60869.021263342 113585.88690383 288670647.27023 25907278639456
vector 49 Aerocom.aircraft[3].dataLink[4] queueLength:vector ETV
attr "" ""
attr source computeQueueLength
49	13362148 507025 419362 3394547 10024.597927028241 81185.454255013691 14511 1581 12674 103423132 886281953316
49	33410820 495489 3397884 6270110 81263.536945076817 149995.082373995698 13533 12675 22964 241206620 4418784968402
vector 50 Aerocom.aircraft[3].dataLink[4] waitingTime:vector ETV
attr "" ""
attr source computeWaitingTime
50	13869173 155783 419362 3394491 10024.597927028241 81183.695825817438 3417 8060.8668833363 61511.345447273 119168913.57366 4940844073554
50	33906309 150803 3397884 6270050 81263.536945076817 149993.262027258887 3243 61589.583485395 115110.11956891 286522388.15377 26107817878975
vector 51 Aerocom.aircraft[3].dataLink[4] responseTime:vector ETV
attr "" ""
attr source computeResponseTime
51	14024956 155737 419521 3394491 10028.597927028241 81183.695825817438 3416 8076.8668833363 61515.783231848 119143934.22821 4939611467995.6
51	34057112 150850 3394701 6270299 81188.695825817438 149999.262027258887 3244 61521.345447273 115122.11956891 286618355.49922 26117693903054
vector 52 Aerocom.aircraft[2].dataLink[1] responseTime:vector ETV
attr "" ""
attr source computeResponseTime
52	14180693 153227 419544 3389451 10029.390830544862 81058.078923503784 3362 7371.1742993734 60677.736554118 115337870.88597 4736557904417
52	34207962 154038 3398019 6268389 81267.475684953614 149954.584890774577 3312 60877.021263342 113596.67310018 288706037.27023 25913439260548
vector 53 Aerocom.aircraft[4].dataLink[3] queueLength:vector ETV
attr "" ""
attr source computeQueueLength
53	14333920 482780 419636 3394255 10031.191427176654 81178.312340096206 13837 1494 12068 93819948 765504860780
53	34362000 496725 3394913 6266220 81193.250499585885 149904.955998510634 13570 12069 22399 233986321 4155139209509
vector 54 Aerocom.aircraft[4].dataLink[3] waitingTime:vector ETV
attr "" ""
attr source computeWaitingTime
54	14816700 148592 419636 3394200 10031.191427176654 81176.927899866119 3262 7466.0832073534 61468.537518028 114655843.14293 4844271356165.7
54	34858725 150640 3394913 6266174 81193.250499585885 149903.621479110944 3239 61484.65254834 113359.67890958 283664743.68057 25583561361140
vector 55 Aerocom.aircraft[4].dataLink[3] responseTime:vector ETV
attr "" ""
attr source computeResponseTime
55	14965292 148592 419779 3394410 10035.191427176654 81181.927899866119 3262 7474.0832073534 61478.537518028 114691117.14293 4846748460549.7
55	35009365 150640 3395082 6266393 81197.250499585885 149908.621479110944 3239 61492.65254834 113369.67890958 283699367.68057 25589625287329
vector 56 Aerocom.aircraft[4].dataLink[0] queueLength:vector ETV
attr "" ""
attr source computeQueueLength
56	15113884 506620 419943 3394543 10038.268904411015 81185.373208005392 14498 1544 12632 102754608 877128040164
56	35160005 496027 3395500 6269232 81207.278514268692 149974.827030268625 13551 12632 22933 240820029 4399404017893
vector 57 Aerocom.aircraft[4].dataLink[0] waitingTime:vector ETV
attr "" ""
attr source computeWaitingTime
57	15620504 155472 419943 3394543 10038.268904411015 81185.373208005392 3410 7159.9055008513 61846.788092764 119182124.64689 5000517861983.1
57	35656032 151054 3395500 6269095 81207.278514268692 149971.136676552647 3249 61867.35348488 114238.23081355 282932429.70444 25387207537595
vector 58 Aerocom.aircraft[0].dataLink[3] queueLength:vector ETV
attr "" ""
attr source computeQueueLength
58	15775976 484463 419976 3392331 10038.686326123967 81129.783053327956 13886 1528 12106 94655896 775019034780
58	35807086 490162 3394711 6268292 81188.916552181788 149953.25778451818 13390 12107 22255 230208074 4072835174834
vector 59 Aerocom.aircraft[0].dataLink[3] waitingTime:vector ETV
attr "" ""
attr source computeWaitingTime
59	16260439 150746 419976 3392178 10038.686326123967 81125.620663053556 3307 7730.3017090217 61999.81766034 114101433.42195 4760706910691.6
59	36297248 150684 3394711 6268219 81188.916552181788 149951.280134274728 3241 62028.197475087 115041.10207361 286020666.0865 25991188611370
vector 60 Aerocom.aircraft[0].dataLink[3] responseTime:vector ETV
attr "" ""
attr source computeResponseTime
60	16411185 150747 420129 3392408 10042.686326123967 81130.620663053556 3307 7738.3017090217 62007.81766034 114137065.42195 4763152936496.1
60	36447932 150684 3394953 6268520 81193.916552181788 149958.280134274728 3241 62038.197475087 115055.08992922 286055726.0865 25997377806933
vector 61 Aerocom.aircraft[4].dataLink[0] responseTime:vector ETV
attr "" ""
attr source computeResponseTime
61	16561932 155426 420186 3393878 10044.268904411015 81168.509861105949 3409 7171.9055008513 61836.278708636 119157109.8588 4999254146463.7
61	36598616 151100 3394729 6269366 81189.373208005392 149977.136676552647 3250 61854.788092764 114250.23081355 283028864.49253 25397059810772
vector 62 Aerocom.aircraft[1].dataLink[3] waitingTime:vector ETV
attr "" ""
attr source computeWaitingTime
62	16717358 152546 420260 3394094 10045.598820772179 81173.872501842089 3346 7833.2134929822 61945.312331613 117120922.62595 4916788749042
62	36749716 147578 3395805 6270183 81214.072100184036 149996.272434952108 3174 61907.455191648 115320.34826227 282422632.72519 25885649952039
vector 63 Aerocom.aircraft[1].dataLink[0] queueLength:vector ETV
attr "" ""
attr source computeQueueLength
63	16869904 483576 420777 3390488 10059.002313634163 81083.209514329499 13859 1590 12154 95186490 782678231566
63	36897294 504176 3394909 6268932 81193.175584715828 149967.566912370622 13769 12154 22641 239554549 4293794456373
vector 64 Aerocom.aircraft[1].dataLink[0] waitingTime:vector ETV
attr "" ""
attr source computeWaitingTime
64	17353480 150162 420777 3390558 10059.002313634163 81085.123375363555 3295 7391.7486053004 62020.192460384 115270027.04146 4840329093450.4
64	37401470 152630 3394909 6268709 81193.175584715828 149962.136739301995 3281 62104.654566132 114027.16536554 288858088.94573 26165507912602
vector 65 Aerocom.aircraft[1].dataLink[0] responseTime:vector ETV
attr "" ""
attr source computeResponseTime
65	17503642 150162 420914 3390768 10062.002313634163 81090.123375363555 3295 7399.7486053004 62030.192460384 115305315.04146 4842798033099.3
65	37554100 152631 3395117 6269061 81198.175584715828 149970.136739301995 3281 62112.654566132 114043.16536554 288893110.94573 26171677811007
vector 66 Aerocom.aircraft[4].dataLink[1] queueLength:vector ETV
attr "" ""
attr source computeQueueLength
66	17653804 508040 421957 3394678 10087.486096195481 81188.004756970795 14538 1664 12817 105248994 912286845206
66	37706731 513235 3394707 6269555 81188.860052683472 149981.701706372113 14012 12818 23436 254077622 4738813976714
vector 67 Aerocom.aircraft[4].dataLink[1] waitingTime:vector ETV
attr "" ""
attr source computeWaitingTime
67	18161844 154210 421957 3394595 10087.486096195481 81186.427824856769 3384 8383.6885913396 62614.341075147 120275659.24176 5124190875709.4
67	38219966 157797 3394731 6269381 81189.427824856769 149977.325352838078 3393 62615.849441586 115635.81855852 306178567.92586 28435860767114
vector 68 Aerocom.aircraft[4].dataLink[1] responseTime:vector ETV
attr "" ""
attr source computeResponseTime
68	18316054 154165 422193 3394072 10093.486096195481 81173.2174822503 3383 8395.6885913396 62608.623013301 120249372.90068 5122845983317.9
68	38377763 157844 3394731 6269646 81189.427824856769 149983.325352838078 3394 62620.341075147 115647.81855852 306277414.26693 28446315499601
vector 69 Aerocom.aircraft[3].dataLink[2] queueLength:vector ETV
attr "" ""
attr source computeQueueLength
69	18470219 483302 422253 3394667 10094.062827501125 81187.876032165293 13847 1510 12039 93770776 763379254808
69	38535607 496804 3394683 6268946 81188.156826384682 149967.771982723706 13567 12039 22369 233547938 4141336412604
vector 70 Aerocom.aircraft[3].dataLink[2] waitingTime:vector ETV
attr "" ""
attr source computeWaitingTime
70	18953521 151278 422253 3394667 10094.062827501125 81187.876032165293 3318 7698.6945357424 60726.440541393 115777693.44613 4790516712609.7
70	39032411 150481 3396417 6268822 81228.781046951344 149965.077653224345 3236 60550.659429493 113021.34117269 280399755.02941 25026706613011
vector 71 Aerocom.aircraft[3].dataLink[2] responseTime:vector ETV
attr "" ""
attr source computeResponseTime
71	19104799 151232 422383 3393726 10098.062827501125 81165.008235350514 3317 7706.6945357424 60734.440541393 115752545.15722 4789328477499.6
71	39182892 150528 3394951 6269088 81193.876032165293 149971.077653224345 3237 60536.288904402 113033.34117269 280494953.31832 25036390382495
vector 72 Aerocom.aircraft[2].dataLink[3] queueLength:vector ETV
attr "" ""
attr source computeQueueLength
72	19256031 477889 422975 3394656 10111.80005020749 81187.496732535147 13701 1422 11826 90826189 726162391599
72	39333420 500081 3394743 6267312 81189.583705231825 149930.412747873255 13657 11826 22183 232211268 4070818995118
vector 73 Aerocom.aircraft[2].dataLink[3] waitingTime:vector ETV
attr "" ""
attr source computeWaitingTime
73	19733920 150280 422975 3394656 10111.80005020749 81187.496732535147 3297 7752.470521021 60736.980199437 116129346.93706 4864457146554.8
73	39833501 153425 3399047 6267344 81291.122089889622 149931.002827116799 3300 60840.595914291 111326.50720369 284955691.19406 25342898812404
vector 74 Aerocom.aircraft[2].dataLink[3] responseTime:vector ETV
attr "" ""
attr source computeResponseTime
74	19884200 150234 423159 3391184 10115.80005020749 81101.205200233061 3296 7760.470521021 60659.024581246 116104059.95686 4863262312249.5
74	39986926 153473 3395028 6267524 81195.496732535147 149936.002827116799 3301 60752.980199437 111336.50720369 285051138.17426 25352586002738
