file 6038525 1613553641                                         
version 2
run Exponential-capacity-4-20210217-10:20:39-8492
attr configname Exponential-capacity
attr datetime 20210217-10:20:39
attr experiment Exponential-capacity
attr inifile aerocom.ini
attr iterationvars "$0=15, $1=0.7"
attr iterationvarsf 15,0.7-
attr measurement "$0=15, $1=0.7"
attr network Aerocom
attr processid 8492
attr repetition 0
attr replication #0
attr resultdir results
attr runnumber 4
attr seedset 0
param **.t 3s
param **.k 15ms
param **.X 0.5s
param **.m 0.7s
param **.tDistribution "\"exponential\""
param **.operationMode 0
param **.s "70 byte"
param **.dimPoolMax 10000
param **.dimPoolMin 8000
param **.nDL 10
param **.nA 1
param **.DLMaxCapacity 0
param **.trasmitting false

vector 0 Aerocom.aircraft[0].linkSelector responseTime:vector ETV
attr "" ""
attr source computeResponseTime
vector 1 Aerocom.aircraft[0].packetGenerator arrivalTime:vector ETV
attr "" ""
attr source computeArrivalTime
vector 2 Aerocom.aircraft[0].linkSelector waitingTime:vector ETV
attr "" ""
attr source computeWaitingTime
vector 3 Aerocom.aircraft[0].linkSelector queueLength:vector ETV
attr "" ""
attr source computeQueueLength
vector 4 Aerocom.aircraft[0].dataLink[6] actualCapacity:vector ETV
attr "" ""
attr source computeActualCapacity
vector 5 Aerocom.aircraft[0].linkSelector serviceTime:vector ETV
attr "" ""
attr source computeServiceTime
vector 6 Aerocom.aircraft[0].dataLink[4] tDistribution:vector ETV
attr "" ""
attr source computeTDistribution
vector 7 Aerocom.aircraft[0].dataLink[6] tDistribution:vector ETV
attr "" ""
attr source computeTDistribution
vector 8 Aerocom.aircraft[0].dataLink[1] tDistribution:vector ETV
attr "" ""
attr source computeTDistribution
vector 9 Aerocom.aircraft[0].dataLink[0] actualCapacity:vector ETV
attr "" ""
attr source computeActualCapacity
vector 10 Aerocom.aircraft[0].dataLink[1] actualCapacity:vector ETV
attr "" ""
attr source computeActualCapacity
vector 11 Aerocom.aircraft[0].dataLink[2] actualCapacity:vector ETV
attr "" ""
attr source computeActualCapacity
vector 12 Aerocom.aircraft[0].dataLink[3] actualCapacity:vector ETV
attr "" ""
attr source computeActualCapacity
vector 13 Aerocom.aircraft[0].dataLink[4] actualCapacity:vector ETV
attr "" ""
attr source computeActualCapacity
vector 14 Aerocom.aircraft[0].dataLink[5] actualCapacity:vector ETV
attr "" ""
attr source computeActualCapacity
vector 15 Aerocom.aircraft[0].dataLink[7] actualCapacity:vector ETV
attr "" ""
attr source computeActualCapacity
vector 16 Aerocom.aircraft[0].dataLink[8] actualCapacity:vector ETV
attr "" ""
attr source computeActualCapacity
vector 17 Aerocom.aircraft[0].dataLink[9] actualCapacity:vector ETV
attr "" ""
attr source computeActualCapacity
vector 18 Aerocom.aircraft[0].dataLink[5] tDistribution:vector ETV
attr "" ""
attr source computeTDistribution
vector 19 Aerocom.aircraft[0].dataLink[8] tDistribution:vector ETV
attr "" ""
attr source computeTDistribution
vector 20 Aerocom.aircraft[0].dataLink[0] tDistribution:vector ETV
attr "" ""
attr source computeTDistribution
vector 21 Aerocom.aircraft[0].dataLink[2] tDistribution:vector ETV
attr "" ""
attr source computeTDistribution
vector 22 Aerocom.aircraft[0].dataLink[7] tDistribution:vector ETV
attr "" ""
attr source computeTDistribution
vector 23 Aerocom.aircraft[0].dataLink[9] tDistribution:vector ETV
attr "" ""
attr source computeTDistribution
vector 24 Aerocom.aircraft[0].dataLink[3] tDistribution:vector ETV
attr "" ""
attr source computeTDistribution
0	3584 1068863 3786 154727 10.001149993737 399.703477145743 26151 0.007005604484 1.120139065037 5910.8663212904 3185.4116257955
1	1072447 1070517 3789 154764 10.020364233319 399.960743426342 26189 3.00452e-007 0.160834874694 389.99668517737 11.590851499697
2	2142964 978862 3790 154723 10.020364233319 399.696020024192 26150 0 1.112854227905 5721.0444315405 3100.886789066
3	3121826 742200 3790 154723 10.020364233319 399.696020024192 26150 0 96 380426 14136856
4	3864026 75784 3790 154726 10.020364233319 399.7 2656 8071 9955 25218139 239867944811
5	3939810 1172101 3790 154723 10.020364233319 399.696020024192 26150 0.0070056044835869 0.0086999751429282 189.81479827035 1.3788129303938
6	5111911 6540 3882 153848 10.203684607688 397.281470896017 155 0.010739517205868 10.933740481042 391.20523465692 1867.3384032852
7	5118451 5418 3931 154664 10.276687748401 399.582664491057 128 0.0046257705518035 21.866676562641 394.65348847132 2680.3533415531
8	5123869 5048 3959 154673 10.379485951627 399.598350968059 120 0.010023053548118 19.095471434865 392.76340000707 2407.0567308421
9	5128917 108514 4030 154726 10.5 399.7 3711 8024 9962 35505920 340285959320
10	5237431 113411 4030 154726 10.5 399.7 3705 8083 9921 35367747 338053759603
11	5350842 69999 4030 154726 10.5 399.7 2390 8018 9977 22602435 214185539403
12	5420841 82449 4030 154726 10.5 399.7 2788 8044 9951 26540693 253033046277
13	5503290 82272 4030 154726 10.5 399.7 2775 8020 9942 26370868 251160641362
14	5585562 91731 4030 154726 10.5 399.7 3051 8033 9986 29006922 276185719558
15	5677293 99601 4030 154726 10.5 399.7 3284 8022 9987 31209681 297206352995
16	5776894 116917 4030 154726 10.5 399.7 3894 8032 9992 37422721 360182222281
17	5893811 104675 4030 154726 10.5 399.7 3466 8062 9952 33115627 316963640253
18	5998486 6296 4032 154585 10.512701937009 399.26724886852 146 0.0074565261417224 13.460148239681 393.83660967434 2049.2077779932
19	6004782 4740 4356 152049 11.360882962893 393.499445083393 110 0.00037077544349613 23.253607185995 395.47160748284 3033.4957189197
20	6009522 5734 4519 153587 11.986246086418 396.616178795411 133 0.039976272460222 11.530792426723 388.43385299836 2058.0400242859
21	6015256 5882 4536 153148 12.109370541993 395.436018372776 136 0.0061931119847609 15.274890465208 389.19202620404 2037.979323136
22	6021138 5668 4730 154528 12.313726549034 398.971737981676 131 0.029300814333314 15.865257109258 388.93846333758 2425.3017972606
23	6026806 5578 5049 154600 13.034736668212 399.363504255394 129 0.0077577452830852 19.513402438353 388.62563507912 2515.9534008334
24	6032384 6139 6925 154351 18.527692622347 398.597767503948 142 0.0056532962066554 13.09960706888 383.31012451243 1994.1847888339

