file 9411613 1613479524                                         
version 2
run Exponential-capacity-1-20210216-13:45:21-16004
attr configname Exponential-capacity
attr datetime 20210216-13:45:21
attr experiment Exponential-capacity
attr inifile aerocom.ini
attr iterationvars "$0=0.5, $1=10, $2=0.5, $3=0.5"
attr iterationvarsf 0.5,10,0.5,0.5-
attr measurement "$0=0.5, $1=10, $2=0.5, $3=0.5"
attr network Aerocom
attr processid 16004
attr repetition 1
attr replication #1
attr resultdir results
attr runnumber 1
attr seedset 1
param **.t 0.5s
param **.k 10ms
param **.X 0.5s
param **.m 0.5s
param **.tDistribution "\"exponential\""
param **.operationMode 0
param **.s "70 byte"
param **.dimPoolMax 10000
param **.dimPoolMin 8000
param **.nDL 10
param **.nA 1
param **.DLMaxCapacity 0
param **.trasmitting false

vector 0 Aerocom.aircraft[0].dataLink[0] actualCapacity:vector ETV
attr "" ""
attr source computeActualCapacity
vector 1 Aerocom.aircraft[0].dataLink[1] actualCapacity:vector ETV
attr "" ""
attr source computeActualCapacity
vector 2 Aerocom.aircraft[0].dataLink[2] actualCapacity:vector ETV
attr "" ""
attr source computeActualCapacity
vector 3 Aerocom.aircraft[0].dataLink[3] actualCapacity:vector ETV
attr "" ""
attr source computeActualCapacity
vector 4 Aerocom.aircraft[0].dataLink[4] actualCapacity:vector ETV
attr "" ""
attr source computeActualCapacity
vector 5 Aerocom.aircraft[0].dataLink[5] actualCapacity:vector ETV
attr "" ""
attr source computeActualCapacity
vector 6 Aerocom.aircraft[0].dataLink[6] actualCapacity:vector ETV
attr "" ""
attr source computeActualCapacity
vector 7 Aerocom.aircraft[0].dataLink[7] actualCapacity:vector ETV
attr "" ""
attr source computeActualCapacity
vector 8 Aerocom.aircraft[0].dataLink[8] actualCapacity:vector ETV
attr "" ""
attr source computeActualCapacity
vector 9 Aerocom.aircraft[0].dataLink[9] actualCapacity:vector ETV
attr "" ""
attr source computeActualCapacity
vector 10 Aerocom.aircraft[0].dataLink[2] tDistribution:vector ETV
attr "" ""
attr source computeTDistribution
vector 11 Aerocom.aircraft[0].packetGenerator arrivalTime:vector ETV
attr "" ""
attr source computeArrivalTime
vector 12 Aerocom.aircraft[0].linkSelector waitingTime:vector ETV
attr "" ""
attr source computeWaitingTime
vector 13 Aerocom.aircraft[0].linkSelector queueLength:vector ETV
attr "" ""
attr source computeQueueLength
vector 14 Aerocom.aircraft[0].linkSelector serviceTime:vector ETV
attr "" ""
attr source computeServiceTime
vector 15 Aerocom.aircraft[0].dataLink[7] tDistribution:vector ETV
attr "" ""
attr source computeTDistribution
vector 16 Aerocom.aircraft[0].dataLink[4] tDistribution:vector ETV
attr "" ""
attr source computeTDistribution
vector 17 Aerocom.aircraft[0].linkSelector responseTime:vector ETV
attr "" ""
attr source computeResponseTime
vector 18 Aerocom.aircraft[0].dataLink[3] tDistribution:vector ETV
attr "" ""
attr source computeTDistribution
vector 19 Aerocom.aircraft[0].dataLink[6] tDistribution:vector ETV
attr "" ""
attr source computeTDistribution
vector 20 Aerocom.aircraft[0].dataLink[9] tDistribution:vector ETV
attr "" ""
attr source computeTDistribution
vector 21 Aerocom.aircraft[0].dataLink[5] tDistribution:vector ETV
attr "" ""
attr source computeTDistribution
vector 22 Aerocom.aircraft[0].dataLink[1] tDistribution:vector ETV
attr "" ""
attr source computeTDistribution
vector 23 Aerocom.aircraft[0].dataLink[0] tDistribution:vector ETV
attr "" ""
attr source computeTDistribution
vector 24 Aerocom.aircraft[0].dataLink[8] tDistribution:vector ETV
attr "" ""
attr source computeTDistribution
11	3628 1375782 5757 197701 10.016111387263 336.362810807891 32768 1.25289e-007 0.104473724894 326.36676166777 6.4713047354134
12	1379410 1205225 5758 197703 10.016111387263 336.36801315853 32768 0 0.081733148004 159.58147476054 2.8244257020748
13	2584635 952729 5758 197703 10.016111387263 336.36801315853 32768 0 9 15921 42447
14	3537364 1505944 5758 197703 10.016111387263 336.36801315853 32768 0.0070049034324027 0.0087434424181864 241.58651462092 1.784356374053
17	5043308 1376101 5761 197709 10.02345199129 336.375612767693 32768 0.007004903432 0.090271815972 401.16798938087 6.9789105283717
0	6419409 131782 5753 234912 10 400 4523 8006 9992 42753499 405039049003
1	6551191 157176 5753 234912 10 400 5342 8006 9984 50447045 477324832417
2	6708367 123846 5753 234912 10 400 4266 8026 9986 40041961 376759283219
3	6832213 153615 5753 234912 10 400 5243 8016 9991 49498285 468151544759
4	6985828 134048 5753 234912 10 400 4576 8033 9982 42868989 402545476363
5	7119876 136533 5753 234912 10 400 4676 8047 9993 44204523 418786857121
6	7256409 130878 5753 234912 10 400 4538 8027 9981 42918944 406652824198
7	7387287 144555 5753 234912 10 400 4895 8013 9995 45878390 430921208722
8	7531842 135055 5753 234912 10 400 4603 8048 9991 43339329 409092034803
9	7666897 124800 5753 234912 10 400 4288 8025 9962 40305728 379750506802
10	7791697 34836 5754 234721 10.002440533518 399.613684531708 788 0.0001914864321459 4.0595658217344 390.15052246665 396.37126649952
11	7826533 272568 197713 234907 336.382873055034 399.993116417247 6372 3.144071e-006 0.083792971301 63.633834888188 1.265925692866
12	8099101 240479 197714 234909 336.382873055034 399.996637792715 6372 0 0.088698541816 35.664598016421 0.79068606729724
13	8339580 190263 197714 234909 336.382873055034 399.996637792715 6372 0 11 3623 11453
14	8529843 297779 197714 234909 336.382873055034 399.996637792715 6372 0.0070056044835869 0.0087173100871731 47.203996997732 0.35032591674592
15	8827622 34583 5759 234648 10.018728362009 399.483725630489 783 0.00034159714347765 3.2981237745143 391.35819720761 357.41689350569
16	8862205 34304 5760 234761 10.019182810426 399.72511463043 776 0.00022582942754141 2.893087118346 390.29011693391 368.32851616896
17	8896509 272535 197718 234909 336.390494176428 399.996637792715 6371 0.007005604484 0.0966903217 82.857872733353 1.6767364450331
18	9169044 35509 5764 233867 10.027108108793 398.131636771278 803 0.0004751805639204 4.453697559511 390.12960387538 390.18582583027
19	9204553 33589 5817 234871 10.121036234623 399.913493687474 760 0.00063319219385249 5.5377635064001 389.98199339083 409.55122004351
20	9238142 35526 5868 234885 10.193115675428 399.937212470626 803 0.00023287357305049 3.4869081636989 390.05912882152 383.16030878939
21	9273668 34904 6017 234798 10.421478285839 399.799552616295 789 0.00058682308117823 3.062921925806 390.37564920454 362.1101448934
22	9308572 34277 6031 234896 10.446050027507 399.9637824434 776 0.0020391668858433 3.8635408896462 389.70665166697 395.34398184093
23	9342849 35019 6161 234310 10.662245156735 398.905577454521 792 0.00024518793422673 3.5970472507568 389.63236336632 408.3312975504
24	9377868 33743 6459 234742 11.240247801697 399.687151375222 765 0.0018753544044786 2.7130676989691 390.20849799322 371.73377172441

