file 9184555 1613479558                                         
version 2
run Exponential-capacity-24-20210216-13:45:55-25220
attr configname Exponential-capacity
attr datetime 20210216-13:45:55
attr experiment Exponential-capacity
attr inifile aerocom.ini
attr iterationvars "$0=2, $1=10, $2=0.5, $3=0.5"
attr iterationvarsf 2,10,0.5,0.5-
attr measurement "$0=2, $1=10, $2=0.5, $3=0.5"
attr network Aerocom
attr processid 25220
attr repetition 0
attr replication #0
attr resultdir results
attr runnumber 24
attr seedset 0
param **.t 2s
param **.k 10ms
param **.X 0.5s
param **.m 0.5s
param **.tDistribution "\"exponential\""
param **.operationMode 0
param **.s "70 byte"
param **.dimPoolMax 10000
param **.dimPoolMin 8000
param **.nDL 10
param **.nA 1
param **.DLMaxCapacity 0
param **.trasmitting false

vector 0 Aerocom.aircraft[0].dataLink[0] actualCapacity:vector ETV
attr "" ""
attr source computeActualCapacity
vector 1 Aerocom.aircraft[0].dataLink[1] actualCapacity:vector ETV
attr "" ""
attr source computeActualCapacity
vector 2 Aerocom.aircraft[0].dataLink[2] actualCapacity:vector ETV
attr "" ""
attr source computeActualCapacity
vector 3 Aerocom.aircraft[0].dataLink[3] actualCapacity:vector ETV
attr "" ""
attr source computeActualCapacity
vector 4 Aerocom.aircraft[0].dataLink[4] actualCapacity:vector ETV
attr "" ""
attr source computeActualCapacity
vector 5 Aerocom.aircraft[0].dataLink[5] actualCapacity:vector ETV
attr "" ""
attr source computeActualCapacity
vector 6 Aerocom.aircraft[0].dataLink[6] actualCapacity:vector ETV
attr "" ""
attr source computeActualCapacity
vector 7 Aerocom.aircraft[0].dataLink[7] actualCapacity:vector ETV
attr "" ""
attr source computeActualCapacity
vector 8 Aerocom.aircraft[0].dataLink[8] actualCapacity:vector ETV
attr "" ""
attr source computeActualCapacity
vector 9 Aerocom.aircraft[0].dataLink[9] actualCapacity:vector ETV
attr "" ""
attr source computeActualCapacity
vector 10 Aerocom.aircraft[0].packetGenerator arrivalTime:vector ETV
attr "" ""
attr source computeArrivalTime
vector 11 Aerocom.aircraft[0].linkSelector waitingTime:vector ETV
attr "" ""
attr source computeWaitingTime
vector 12 Aerocom.aircraft[0].linkSelector queueLength:vector ETV
attr "" ""
attr source computeQueueLength
vector 13 Aerocom.aircraft[0].linkSelector serviceTime:vector ETV
attr "" ""
attr source computeServiceTime
vector 14 Aerocom.aircraft[0].linkSelector responseTime:vector ETV
attr "" ""
attr source computeResponseTime
vector 15 Aerocom.aircraft[0].dataLink[1] tDistribution:vector ETV
attr "" ""
attr source computeTDistribution
vector 16 Aerocom.aircraft[0].dataLink[2] tDistribution:vector ETV
attr "" ""
attr source computeTDistribution
vector 17 Aerocom.aircraft[0].dataLink[7] tDistribution:vector ETV
attr "" ""
attr source computeTDistribution
vector 18 Aerocom.aircraft[0].dataLink[5] tDistribution:vector ETV
attr "" ""
attr source computeTDistribution
vector 19 Aerocom.aircraft[0].dataLink[0] tDistribution:vector ETV
attr "" ""
attr source computeTDistribution
vector 20 Aerocom.aircraft[0].dataLink[8] tDistribution:vector ETV
attr "" ""
attr source computeTDistribution
vector 21 Aerocom.aircraft[0].dataLink[9] tDistribution:vector ETV
attr "" ""
attr source computeTDistribution
vector 22 Aerocom.aircraft[0].dataLink[3] tDistribution:vector ETV
attr "" ""
attr source computeTDistribution
vector 23 Aerocom.aircraft[0].dataLink[4] tDistribution:vector ETV
attr "" ""
attr source computeTDistribution
vector 24 Aerocom.aircraft[0].dataLink[6] tDistribution:vector ETV
attr "" ""
attr source computeTDistribution
10	3622 1375399 5522 192281 10.002616319138 334.179259405181 32768 4.011e-008 0.107223249796 324.17673621716 6.4215077879631
11	1379021 1205255 5523 192291 10.002616319138 334.198713505592 32768 0 0.078688975578 155.92196364157 2.7850697247899
12	2584276 952376 5523 192291 10.002616319138 334.198713505592 32768 0 10 15677 43675
13	3536652 1505406 5523 192291 10.002616319138 334.198713505592 32768 0.0070056044835869 0.0087010565568676 237.8011575212 1.7269069870562
14	5042058 1375713 5528 192300 10.009905707871 334.206043348524 32768 0.007005604484 0.08593610261 393.72312116197 6.7821346347337
0	6417771 164374 5520 229076 10 400 5591 8007 9962 53351685 509888661667
1	6582145 151712 5520 229076 10 400 5152 8034 9938 49267267 471684852537
2	6733857 143909 5520 229076 10 400 4880 8018 9977 46482470 443471012562
3	6877766 162348 5520 229076 10 400 5489 8019 9972 52785527 508232684471
4	7040114 118397 5520 229076 10 400 4095 8021 9980 38776175 367927153015
5	7158511 124707 5520 229076 10 400 4282 8016 9986 40696326 387424016628
6	7283218 105441 5520 229076 10 400 3691 8055 9985 34994064 332465721862
7	7388659 104351 5520 229076 10 400 3633 8010 9987 34344910 325423139328
8	7493010 157302 5520 229076 10 400 5381 8033 9994 51609233 495671699409
9	7650312 144091 5520 229076 10 400 4906 8020 9954 46902506 449114765410
10	7794403 279053 192283 229065 334.179352536302 399.974672125632 6522 2.306095e-006 0.10350655095 65.828555667873 1.3356747668135
11	8073456 245277 192300 229070 334.206043348524 399.982705687435 6522 0 0.073895466434 33.238372877193 0.6683869743082
12	8318733 194760 192300 229070 334.206043348524 399.982705687435 6522 0 10 3301 10449
13	8513493 304763 192300 229070 334.206043348524 399.982705687435 6522 0.0070042025215129 0.0087390761548065 47.433635304509 0.34524631298665
14	8818256 278977 192303 229073 334.213374726823 399.989998113729 6522 0.007009111845 0.081203881552 80.672008181559 1.4986669643955
15	9097233 8055 5581 228018 10.108197594216 398.088369796402 185 0.0066820356987456 12.73031428991 396.86298794996 1623.8347515601
16	9105288 9071 5587 227656 10.118477058203 397.558805043633 208 0.0041287413231739 10.183260310139 395.22270641998 1456.7542704876
17	9114359 9403 5690 228755 10.33332325754 399.333067430601 215 0.00077673227493106 10.576838072839 389.79085381369 1482.1836615119
18	9123762 8770 6015 228942 10.906402754895 399.686148362669 202 0.0049710174278149 10.878397109943 389.80983006386 1506.3173147908
19	9132532 8938 6113 228883 11.154402806452 399.568904735542 205 0.026650848306815 8.9434407592357 391.98412032014 1363.8043493512
20	9141470 7784 6285 228116 11.548798313583 398.231772090748 179 0.00024718362899742 15.502404790664 390.4007084239 1835.4558401444
21	9149254 8413 6473 227961 11.840764687096 398.015447176651 193 0.0051718301887234 13.008934958902 388.53607179952 1591.3147854771
22	9157667 9342 6787 227149 12.351795081565 396.748910847202 214 0.0037688641377702 8.7330713792533 391.09610518445 1399.6917749019
23	9167009 9909 7001 226425 12.816289886563 395.483655140687 227 0.00093716124287715 8.9792967001633 388.75865197493 1334.0402886836
24	9176918 7635 10676 228054 19.157218708739 398.124100143442 175 0.0030838470345357 14.577784375094 384.36506644851 1855.2118041636

