file 72822596 1609669104                                        
version 2
run Exponential-selection-capacity-exponential-interarrival-time-4-20210103-11:18:11-16236
attr configname Exponential-selection-capacity-exponential-interarrival-time
attr datetime 20210103-11:18:11
attr experiment Exponential-selection-capacity-exponential-interarrival-time
attr inifile aerocom.ini
attr iterationvars $0=10
attr iterationvarsf 10-
attr measurement $0=10
attr network Aerocom
attr processid 16236
attr repetition 0
attr replication #0
attr resultdir results
attr runnumber 4
attr seedset 0
param **.t 0.5s
param **.k 0.5s
param **.dataLink[*].s "70 byte"
param **.dataLink[*].X 10
param **.nDL 1
param **.dataLink[*].dimPoolMax 100
param **.dataLink[*].dimPoolMin 10
param **.tDistribution "\"exponential\""
param **.aircraft[*].m 1s
param **.aircraft[*].linkSelector.DLMaxCapacity 0
param **.aircraft[*].linkSelector.trasmitting false
param **.operationMode 0

vector 0 Aerocom.aircraft[0].dataLink[0] actualCapacity:vector ETV
attr "" ""
attr source computeActualCapacity
vector 1 Aerocom.aircraft[0].dataLink[0] meanMalus:vector ETV
attr "" ""
attr source computeMeanMalus
vector 2 Aerocom.aircraft[0].packetGenerator arrivalTime:vector ETV
attr "" ""
attr source computeArrivalTime
vector 3 Aerocom.aircraft[0].dataLink[0] queueLength:vector ETV
attr "" ""
attr source computeQueueLength
vector 4 Aerocom.aircraft[0].dataLink[0] waitingTime:vector ETV
attr "" ""
attr source computeWaitingTime
vector 5 Aerocom.aircraft[0].dataLink[0] responseTime:vector ETV
attr "" ""
attr source computeResponseTime
vector 6 Aerocom.aircraft[0].dataLink[0] tDistribution:vector ETV
attr "" ""
attr source computeTDistribution
0	1695 884796 147523 307869 10000 20892 32768 10 99 1793284 113006678
2	886491 1434440 147526 387631 10000.335380543637 26319.464179132675 32768 2.005491e-006 5.175327547487 16320.31896762 16233.471373226
3	2320931 1014617 147528 387633 10000.335380543637 26319.464179132675 32768 0 25 110910 811722
4	3335548 1367116 147528 387636 10000.335380543637 26319.595289661224 32768 -3e-012 10.354822063476 55585.156845785 181849.57469796
5	4702664 1399159 147528 387636 10000.335380543637 26319.595289661224 32768 0.707070707071 13.620105123516 107007.93942819 465588.90054352
6	6101823 1502254 147530 388568 10000.33654955662 26381.930974226323 32768 6.0133526603536e-005 4.885625744685 16382.938942448 16212.798527172
0	7604077 885187 307870 468069 20892 31797.373763904857 32768 10 98 1788881 112392167
2	8489264 1434345 387645 627403 26320.654348163831 42626.805892038358 32768 1.2104546e-005 7.140592652943 16306.334192977 16262.333498181
3	9923609 1015036 387647 627405 26320.654348163831 42626.805892038358 32768 0 27 118245 928245
4	10938645 1372682 387643 627482 26320.229845626072 42631.381534967744 32768 -6e-012 11.977899037238 58728.890147245 204870.4909694
5	12311327 1400262 387643 627482 26320.229845626072 42631.381534967744 32768 0.714285714286 14.81116075732 110702.40589719 501543.56430751
0	13711589 886090 468074 628107 31797.695579911048 42672 32768 10 98 1784206 112087358
6	14597679 1501988 388591 630805 26383.275492005092 42850.98715956921 32768 1.2466140895249e-005 5.6231143763239 16468.306867282 16589.957314016
0	16099667 885741 628113 788155 42672.262264335494 53570.34073433189 32768 10 99 1787737 112640201
2	16985408 1434431 627407 867022 42626.988541140419 58847.523085822318 32768 2.0031986e-005 5.178351573534 16221.052991208 16013.616595593
3	18419839 1014611 627409 867024 42626.988541140419 58847.523085822318 32768 0 25 113639 842123
4	19434450 1374731 627490 867032 42631.856539231912 58848.105749831117 32768 -4e-012 11.596540066987 56484.390283392 187800.43317217
5	20809181 1400491 627490 867032 42631.856539231912 58848.105749831117 32768 0.707070707071 15.225919274039 108590.05173037 479234.86423052
6	22209672 1502597 630813 872559 42851.582359286796 59233.664401050703 32768 9.9985463006899e-006 5.3050974404493 16382.127122487 16442.253169651
0	23712269 886581 788164 948558 53571 64415.664598702204 32768 10 99 1786115 112140549
1	24598850 1044652 147525 1089498 10000.029954647417 74042.155863702208 32768 10 10 327680 3276800
4	25643502 1389322 867047 1107690 58849.353248405329 75296.779947561931 32768 -1.2e-011 14.707570910075 58728.693094904 205721.43041935
5	27032824 1414535 867047 1107690 58849.353248405329 75296.779947561931 32768 0.714285714286 18.686066469981 110346.78919921 498388.12126876
2	28447359 1449296 867029 1107756 58848.041532348462 75301.923510937212 32768 6.384024e-006 5.054304310921 16454.201841323 16519.587989107
3	29896655 1029711 867031 1107758 58848.041532348462 75301.923510937212 32768 0 25 116642 881044
0	30926366 906684 948560 1108880 64415.715923151365 75380.720748436962 32768 10 99 1794253 113118437
6	31833050 1517595 872560 1112564 59233.709481773444 75631.960325363251 32768 1.0144417637191e-005 5.3796045254337 16398.367294609 16444.406446468
0	33350645 918261 1108882 1269064 75380.722133768399 86329.963673481196 32768 10 99 1775480 111217874
4	34268906 1410404 1107699 1348460 75297.128604308777 91768.669001729579 32768 -8e-012 11.082313647737 60028.987614718 211131.06788852
5	35679310 1433922 1107699 1348460 75297.128604308777 91768.669001729579 32768 0.714285714286 14.000744539664 112076.93690589 512321.79538705
2	37113232 1467222 1107764 1348471 75302.243373671363 91769.385324265298 32768 1.656942e-006 5.057800898872 16467.962404489 16643.883916635
3	38580454 1047741 1107766 1348473 75302.243373671363 91769.385324265298 32768 0 24 118596 908380
6	39628195 1535030 1112567 1351668 75632.076776382774 91999.006812368368 32768 7.3807368513526e-007 4.8908609436916 16367.29761025 16333.461861796
0	41163225 917113 1269069 1429300 86330 97296 32768 10 99 1797053 113455083
2	42080338 1483872 1348479 1589393 91770.205778160665 108287.039274660405 32768 1.4607426e-005 5.032937806411 16517.136784053 16571.503810716
3	43564210 1064175 1348481 1589395 91770.205778160665 108287.039274660405 32768 0 31 115340 911438
4	44628385 1423594 1348465 1589398 91768.978109452736 108287.180440066111 32768 -8e-012 13.790347692324 58279.85511513 206857.43200364
5	46051979 1448821 1348465 1589398 91768.978109452736 108287.180440066111 32768 0.714285714286 16.745363316741 109476.16299597 496674.72408188
0	47500800 941561 1429315 1589475 97296.99558401645 108292 32768 10 99 1809608 114659500
6	48442361 1551732 1351678 1590801 91999.374386632308 108382.519549741931 32768 2.1083841381586e-005 5.852274599145 16383.825495108 16321.151538686
0	49994093 951272 1589480 1749626 108292.190359739541 119205.574182243314 32768 10 99 1804435 114356249
2	50945365 1500135 1589405 1829742 108287.34256221346 124656.625134461921 32768 1.4774603e-005 5.66525934355 16370.048405664 16297.0444912
3	52445500 1080562 1589407 1829744 108287.34256221346 124656.625134461921 32768 0 28 117640 924686
4	53526062 1441256 1589400 1829797 108287.250507083639 124661.566661998763 32768 -8e-012 12.28830270176 58945.902024597 206979.63140553
5	54967318 1465900 1589400 1829797 108287.250507083639 124661.566661998763 32768 0.714285714286 16.741642339207 110348.0688124 501750.43269134
6	56433218 1567737 1590809 1830677 108383.199881740104 124722.156695576691 32768 3.1400803357218e-006 5.5625266860612 16340.308887718 16288.356351675
0	58000955 950286 1749629 1910047 119206 130149 32768 10 99 1795868 113297186
1	58951241 1094073 1089522 2028872 74043.028021772749 138321.08566804633 32768 10 10 327680 3276800
6	60045314 1567873 1830694 2067779 124723.508769457807 141015.100749319168 32768 9.6802605473928e-006 5.2879901362365 16292.366575877 16259.111638127
0	61613187 948112 1910053 2070452 130149.241749635497 141202.004032258065 32768 10 99 1797034 113324726
4	62561299 1441583 1829803 2071379 124662.251635574094 141263.720759859826 32768 -2.4e-011 14.11281618928 59395.450557094 216724.01750062
5	64002882 1464910 1829803 2071379 124662.251635574094 141263.720759859826 32768 0.707070707071 17.357851098512 110832.21729251 512227.27463081
2	65467792 1499954 1829751 2071390 124657.390967877016 141264.539999955219 32768 9.947788e-006 5.289227811502 16607.73706078 16757.91785364
3	66967746 1080465 1829753 2071392 124657.390967877016 141264.539999955219 32768 0 32 117468 959740
0	68048211 768490 2070454 2199903 141202.35018513717 150000 26459 10 99 1441732 90445988
1	68816701 201673 2028892 2199890 138322.058461754201 149999.049273834327 5972 10 10 59720 597200
2	69018374 802695 2071398 2199900 141265.128028657286 149999.848571743832 17535 3.4984261e-005 4.107563135677 8736.0637260074 8728.0827147721
3	69821069 578249 2071400 2199902 141265.128028657286 149999.848571743832 17535 0 29 65213 543321
4	70399318 773531 2071396 2199891 141265.112141335981 149999.149719632844 17530 -2.4e-011 12.880365848661 31771.222356559 112034.56862207
5	71172849 784790 2071396 2199891 141265.112141335981 149999.149719632844 17530 0.714285714286 15.536392443348 59504.668167909 271474.30215448
6	71957639 864955 2067789 2199896 141015.875345334597 149999.77689386553 18079 5.7116153357767e-005 4.3167988770307 8984.5056076948 8808.5499409228

