file 2217564 1613479551                                         
version 2
run Exponential-capacity-19-20210216-13:45:51-18296
attr configname Exponential-capacity
attr datetime 20210216-13:45:51
attr experiment Exponential-capacity
attr inifile aerocom.ini
attr iterationvars "$0=0.5, $1=50, $2=4, $3=0.5"
attr iterationvarsf 0.5,50,4,0.5-
attr measurement "$0=0.5, $1=50, $2=4, $3=0.5"
attr network Aerocom
attr processid 18296
attr repetition 1
attr replication #1
attr resultdir results
attr runnumber 19
attr seedset 1
param **.t 0.5s
param **.k 50ms
param **.X 4s
param **.m 0.5s
param **.tDistribution "\"exponential\""
param **.operationMode 0
param **.s "70 byte"
param **.dimPoolMax 10000
param **.dimPoolMin 8000
param **.nDL 10
param **.nA 1
param **.DLMaxCapacity 0
param **.trasmitting false

vector 0 Aerocom.aircraft[0].dataLink[0] actualCapacity:vector ETV
attr "" ""
attr source computeActualCapacity
vector 1 Aerocom.aircraft[0].dataLink[1] actualCapacity:vector ETV
attr "" ""
attr source computeActualCapacity
vector 2 Aerocom.aircraft[0].dataLink[2] actualCapacity:vector ETV
attr "" ""
attr source computeActualCapacity
vector 3 Aerocom.aircraft[0].dataLink[3] actualCapacity:vector ETV
attr "" ""
attr source computeActualCapacity
vector 4 Aerocom.aircraft[0].dataLink[4] actualCapacity:vector ETV
attr "" ""
attr source computeActualCapacity
vector 5 Aerocom.aircraft[0].dataLink[5] actualCapacity:vector ETV
attr "" ""
attr source computeActualCapacity
vector 6 Aerocom.aircraft[0].dataLink[6] actualCapacity:vector ETV
attr "" ""
attr source computeActualCapacity
vector 7 Aerocom.aircraft[0].dataLink[7] actualCapacity:vector ETV
attr "" ""
attr source computeActualCapacity
vector 8 Aerocom.aircraft[0].dataLink[8] actualCapacity:vector ETV
attr "" ""
attr source computeActualCapacity
vector 9 Aerocom.aircraft[0].dataLink[9] actualCapacity:vector ETV
attr "" ""
attr source computeActualCapacity
vector 10 Aerocom.aircraft[0].linkSelector responseTime:vector ETV
attr "" ""
attr source computeResponseTime
vector 11 Aerocom.aircraft[0].dataLink[2] tDistribution:vector ETV
attr "" ""
attr source computeTDistribution
vector 12 Aerocom.aircraft[0].dataLink[7] tDistribution:vector ETV
attr "" ""
attr source computeTDistribution
vector 13 Aerocom.aircraft[0].dataLink[4] tDistribution:vector ETV
attr "" ""
attr source computeTDistribution
vector 14 Aerocom.aircraft[0].dataLink[3] tDistribution:vector ETV
attr "" ""
attr source computeTDistribution
vector 15 Aerocom.aircraft[0].packetGenerator arrivalTime:vector ETV
attr "" ""
attr source computeArrivalTime
vector 16 Aerocom.aircraft[0].linkSelector waitingTime:vector ETV
attr "" ""
attr source computeWaitingTime
vector 17 Aerocom.aircraft[0].linkSelector queueLength:vector ETV
attr "" ""
attr source computeQueueLength
vector 18 Aerocom.aircraft[0].linkSelector serviceTime:vector ETV
attr "" ""
attr source computeServiceTime
vector 19 Aerocom.aircraft[0].dataLink[6] tDistribution:vector ETV
attr "" ""
attr source computeTDistribution
vector 20 Aerocom.aircraft[0].dataLink[9] tDistribution:vector ETV
attr "" ""
attr source computeTDistribution
vector 21 Aerocom.aircraft[0].dataLink[5] tDistribution:vector ETV
attr "" ""
attr source computeTDistribution
vector 22 Aerocom.aircraft[0].dataLink[1] tDistribution:vector ETV
attr "" ""
attr source computeTDistribution
vector 23 Aerocom.aircraft[0].dataLink[0] tDistribution:vector ETV
attr "" ""
attr source computeTDistribution
vector 24 Aerocom.aircraft[0].dataLink[8] tDistribution:vector ETV
attr "" ""
attr source computeTDistribution
0	3622 41705 1309 50229 10 400 1685 8018 9991 15632059 145438463769
1	45327 38467 1309 50229 10 400 1574 8006 9984 14657340 136870572654
2	83794 35163 1309 50229 10 400 1467 8026 9970 13521220 125010374748
3	118957 37375 1309 50229 10 400 1550 8016 9987 14415007 134419946485
4	156332 38041 1309 50229 10 400 1561 8033 9979 14417275 133546621649
5	194373 30659 1309 50229 10 400 1325 8047 9995 12236571 113349885945
6	225032 38066 1309 50229 10 400 1576 8027 9971 14665890 136838575286
7	263098 49917 1309 50229 10 400 1942 8030 9995 18047280 168157051500
8	313015 30159 1309 50229 10 400 1305 8076 9991 12056738 111749479798
9	343174 38488 1309 50229 10 400 1577 8025 9962 14660922 136699184588
10	381662 320711 1310 50196 10.000020252528 399.462366442031 7752 0.007006305675 4.299956575257 5621.8988925314 11172.309047167
11	702373 34248 1313 50207 10.002440533518 399.613684531708 788 0.0001914864321459 4.0595658217344 390.15052246665 396.37126649952
12	736621 33984 1315 50199 10.018728362009 399.483725630489 783 0.00034159714347765 3.2981237745143 391.35819720761 357.41689350569
13	770605 33720 1316 50218 10.019182810426 399.72511463043 776 0.00022582942754141 2.893087118346 390.29011693391 368.32851616896
14	804325 34899 1317 50017 10.027108108793 398.131636771278 803 0.0004751805639204 4.453697559511 390.12960387538 390.18582583027
15	839224 320930 1318 50226 10.070387184435 399.966895424537 7758 1.3484563e-005 0.53076813277 390.00950041313 38.629752309698
16	1160154 285056 1319 50228 10.070387184435 400 7752 0 4.292798379122 5565.4727456561 11090.765638937
17	1445210 220679 1319 50228 10.070387184435 400 7752 0 93 111934 4484578
18	1665889 348189 1319 50228 10.070387184435 400 7752 0.0070035017508754 0.0087129698780184 56.913319797136 0.41846875499344
19	2014078 33015 1330 50223 10.121036234623 399.913493687474 760 0.00063319219385249 5.5377635064001 389.98199339083 409.55122004351
20	2047093 34916 1335 50224 10.193115675428 399.937212470626 803 0.00023287357305049 3.4869081636989 390.05912882152 383.16030878939
21	2082009 34281 1379 50222 10.421478285839 399.799552616295 789 0.00058682308117823 3.062921925806 390.37564920454 362.1101448934
22	2116290 33698 1385 50225 10.446050027507 399.9637824434 776 0.0020391668858433 3.8635408896462 389.70665166697 395.34398184093
23	2149988 34421 1414 50074 10.662245156735 398.905577454521 792 0.00024518793422673 3.5970472507568 389.63236336632 408.3312975504
24	2184409 33153 1461 50216 11.240247801697 399.687151375222 765 0.0018753544044786 2.7130676989691 390.20849799322 371.73377172441

