file 9158531 1613479530                                         
version 2
run Exponential-capacity-4-20210216-13:45:29-14400
attr configname Exponential-capacity
attr datetime 20210216-13:45:29
attr experiment Exponential-capacity
attr inifile aerocom.ini
attr iterationvars "$0=0.5, $1=10, $2=0.5, $3=4"
attr iterationvarsf 0.5,10,0.5,4-
attr measurement "$0=0.5, $1=10, $2=0.5, $3=4"
attr network Aerocom
attr processid 14400
attr repetition 1
attr replication #1
attr resultdir results
attr runnumber 4
attr seedset 1
param **.t 0.5s
param **.k 10ms
param **.X 0.5s
param **.m 4s
param **.tDistribution "\"exponential\""
param **.operationMode 0
param **.s "70 byte"
param **.dimPoolMax 10000
param **.dimPoolMin 8000
param **.nDL 10
param **.nA 1
param **.DLMaxCapacity 0
param **.trasmitting false

vector 0 Aerocom.aircraft[0].dataLink[2] tDistribution:vector ETV
attr "" ""
attr source computeTDistribution
vector 1 Aerocom.aircraft[0].packetGenerator arrivalTime:vector ETV
attr "" ""
attr source computeArrivalTime
vector 2 Aerocom.aircraft[0].linkSelector waitingTime:vector ETV
attr "" ""
attr source computeWaitingTime
vector 3 Aerocom.aircraft[0].linkSelector queueLength:vector ETV
attr "" ""
attr source computeQueueLength
vector 4 Aerocom.aircraft[0].dataLink[1] actualCapacity:vector ETV
attr "" ""
attr source computeActualCapacity
vector 5 Aerocom.aircraft[0].linkSelector serviceTime:vector ETV
attr "" ""
attr source computeServiceTime
vector 6 Aerocom.aircraft[0].dataLink[7] tDistribution:vector ETV
attr "" ""
attr source computeTDistribution
vector 7 Aerocom.aircraft[0].dataLink[4] tDistribution:vector ETV
attr "" ""
attr source computeTDistribution
vector 8 Aerocom.aircraft[0].linkSelector responseTime:vector ETV
attr "" ""
attr source computeResponseTime
vector 9 Aerocom.aircraft[0].dataLink[3] tDistribution:vector ETV
attr "" ""
attr source computeTDistribution
vector 10 Aerocom.aircraft[0].dataLink[6] tDistribution:vector ETV
attr "" ""
attr source computeTDistribution
vector 11 Aerocom.aircraft[0].dataLink[9] tDistribution:vector ETV
attr "" ""
attr source computeTDistribution
vector 12 Aerocom.aircraft[0].dataLink[5] tDistribution:vector ETV
attr "" ""
attr source computeTDistribution
vector 13 Aerocom.aircraft[0].dataLink[1] tDistribution:vector ETV
attr "" ""
attr source computeTDistribution
vector 14 Aerocom.aircraft[0].dataLink[0] tDistribution:vector ETV
attr "" ""
attr source computeTDistribution
vector 15 Aerocom.aircraft[0].dataLink[8] tDistribution:vector ETV
attr "" ""
attr source computeTDistribution
vector 16 Aerocom.aircraft[0].dataLink[0] actualCapacity:vector ETV
attr "" ""
attr source computeActualCapacity
vector 17 Aerocom.aircraft[0].dataLink[2] actualCapacity:vector ETV
attr "" ""
attr source computeActualCapacity
vector 18 Aerocom.aircraft[0].dataLink[3] actualCapacity:vector ETV
attr "" ""
attr source computeActualCapacity
vector 19 Aerocom.aircraft[0].dataLink[4] actualCapacity:vector ETV
attr "" ""
attr source computeActualCapacity
vector 20 Aerocom.aircraft[0].dataLink[5] actualCapacity:vector ETV
attr "" ""
attr source computeActualCapacity
vector 21 Aerocom.aircraft[0].dataLink[6] actualCapacity:vector ETV
attr "" ""
attr source computeActualCapacity
vector 22 Aerocom.aircraft[0].dataLink[7] actualCapacity:vector ETV
attr "" ""
attr source computeActualCapacity
vector 23 Aerocom.aircraft[0].dataLink[8] actualCapacity:vector ETV
attr "" ""
attr source computeActualCapacity
vector 24 Aerocom.aircraft[0].dataLink[9] actualCapacity:vector ETV
attr "" ""
attr source computeActualCapacity
1	3620 1343020 5769 195419 10.016111387263 336.362810807891 32768 1.25289e-007 0.104473724894 326.36676166777 6.4713047354134
2	1346640 1204393 5770 195421 10.016111387263 336.367752477173 32768 0 0.546843321664 1599.780752213 550.23526399209
3	2551033 924607 5770 195421 10.016111387263 336.367752477173 32768 0 68 160722 5828088
5	3475640 1473446 5770 195421 10.016111387263 336.367752477173 32768 0.0070084100921105 0.0087423504433621 252.82192236539 1.9563488020597
8	4949086 1343353 5773 195426 10.023958041226 336.375351261368 32768 0.007008410092 0.554413344374 1852.6026745782 576.86196220461
0	6292439 34050 5766 232498 10.002440533518 399.613684531708 788 0.0001914864321459 4.0595658217344 390.15052246665 396.37126649952
1	6326489 266196 195431 232684 336.382873055034 399.993116417247 6372 3.144071e-006 0.083792971301 63.633834888188 1.265925692866
2	6592685 237881 195432 232686 336.382873055034 399.996637792715 6372 0 0.519146424507 296.94822814836 100.65173184051
3	6830566 184810 195432 232686 336.382873055034 399.996637792715 6372 0 54 30747 1118075
4	7015376 120927 5770 232689 10.016111387263 400 3944 8038 9967 36236596 333783923600
5	7136303 291636 195432 232686 336.382873055034 399.996637792715 6372 0.0070056044835869 0.0087467199800075 49.353205621784 0.38346153261494
6	7427939 33800 5771 232426 10.018728362009 399.483725630489 783 0.00034159714347765 3.2981237745143 391.35819720761 357.41689350569
7	7461739 33528 5772 232538 10.019182810426 399.72511463043 776 0.00022582942754141 2.893087118346 390.29011693391 368.32851616896
8	7495267 266174 195438 232686 336.390494176428 399.996637792715 6371 0.007005604484 0.526460949063 346.29071148939 105.63701068017
9	7761441 34707 5776 231745 10.027108108793 398.131636771278 803 0.0004751805639204 4.453697559511 390.12960387538 390.18582583027
10	7796148 33589 5829 232648 10.121036234623 399.913493687474 760 0.00063319219385249 5.5377635064001 389.98199339083 409.55122004351
11	7829737 35526 5877 232662 10.193115675428 399.937212470626 803 0.00023287357305049 3.4869081636989 390.05912882152 383.16030878939
12	7865263 34904 6030 232575 10.421478285839 399.799552616295 789 0.00058682308117823 3.062921925806 390.37564920454 362.1101448934
13	7900167 34277 6043 232673 10.446050027507 399.9637824434 776 0.0020391668858433 3.8635408896462 389.70665166697 395.34398184093
14	7934444 35020 6187 232129 10.662245156735 398.905577454521 792 0.00024518793422673 3.5970472507568 389.63236336632 408.3312975504
15	7969464 33742 6515 232519 11.240247801697 399.687151375222 765 0.0018753544044786 2.7130676989691 390.20849799322 371.73377172441
16	8003206 169670 7006 232689 12 400 5370 8022 9992 48924809 446960622251
17	8172876 132593 7006 232689 12 400 4132 8019 9984 37776735 346366118877
18	8305469 146724 7006 232689 12 400 4614 8003 9987 42161603 386285464077
19	8452193 107439 7006 232689 12 400 3346 8041 9986 29969228 269105822792
20	8559632 101801 7006 232689 12 400 3219 8017 9944 29015220 262289248708
21	8661433 127493 7006 232689 12 400 3988 8021 9969 36564266 336398874920
22	8788926 119870 7006 232689 12 400 3686 8031 9977 33423306 303750656798
23	8908796 103872 7006 232689 12 400 3284 8007 9988 29477907 265490949359
24	9012668 145861 7006 232689 12 400 4537 8014 9981 41205024 375304280014

