file 22217630 1608577348                                        
version 2
run Exponential-selection-capacity-exponential-interarrival-time-2400-20201220-18:01:58-3440
attr configname Exponential-selection-capacity-exponential-interarrival-time
attr datetime 20201220-18:01:58
attr experiment Exponential-selection-capacity-exponential-interarrival-time
attr inifile ../simulations/aerocom.ini
attr iterationvars "$0=2s, $1=2s, $2=50, $3=10s"
attr iterationvarsf 2s,2s,50,10s-
attr measurement "$0=2s, $1=2s, $2=50, $3=10s"
attr network Aerocom
attr processid 3440
attr repetition 0
attr replication #0
attr resultdir results
attr runnumber 2400
attr seedset 2400
param **.t 2s
param **.k 2s
param **.dataLink[*].s "1500 byte"
param **.dataLink[*].X 50
param **.dataLink[*].dimPoolMax 400
param **.dataLink[*].dimPoolMin 100
param **.nDL 5
param **.setCapacityDistribution "\"exponential\""
param **.aircraft[*].distribution "\"exponential\""
param **.aircraft[*].m 10s
param **.aircraft[*].linkSelector.DLMaxCapacity 0
param **.aircraft[*].linkSelector.trasmitting false
param **.aircraft[*].linkSelector.operationMode 0

vector 0 Aerocom.dataLink[4] queueLength:vector ETV
attr "" ""
attr source computeQueueLength
0	3402602 1100632 121813 929662 10000.493364041373 76423.008571262881 32768 3500 25233 470653936 8088345486674
0	10407916 1290854 929668 1825204 76423.668147884503 149959.81334471277 36378 25234 49377 1356756804 52345660760294
vector 1 Aerocom.dataLink[3] responseTime:vector ETV
attr "" ""
attr source computeResponseTime
1	11698770 740516 121819 1825656 10001 149997 23340 6434.2057584543 99475.387414685 1238095458.2498 82611963115278
vector 2 Aerocom.dataLink[3] waitingTime:vector ETV
attr "" ""
attr source computeWaitingTime
2	12439286 740517 121819 1825656 10001 149997 23340 6424.2057584543 99470.025226327 1237908497.8577 82592122141148
vector 3 Aerocom.dataLink[4] responseTime:vector ETV
attr "" ""
attr source computeResponseTime
3	13179803 1041115 121847 1825684 10002.892258926423 149998.892258926423 23276 7097.0692641067 100868.16796009 1239869376.1102 83183856184214
vector 4 Aerocom.dataLink[4] waitingTime:vector ETV
attr "" ""
attr source computeWaitingTime
4	14220918 1041115 121847 1825684 10002.892258926423 149998.892258926423 23276 7089.0692641067 100856.16796009 1239683062.9335 83164154436068
vector 5 Aerocom.dataLink[0] responseTime:vector ETV
attr "" ""
attr source computeResponseTime
5	15262033 1035110 121856 1825658 10003.521540042093 149997.521540042093 23141 6622.3707355519 98741.686068943 1204017407.7736 79070649681901
vector 6 Aerocom.dataLink[0] waitingTime:vector ETV
attr "" ""
attr source computeWaitingTime
6	16297143 1035110 121856 1825658 10003.521540042093 149997.521540042093 23141 6615.3350418326 98737.631476741 1203829535.0343 79051201841275
vector 7 Aerocom.dataLink[2] responseTime:vector ETV
attr "" ""
attr source computeResponseTime
7	17332253 1041850 121894 1825681 10006.600447409105 149998.600447409105 23292 6506.5450002585 101495.88465645 1272793792.1679 86725870662859
vector 8 Aerocom.dataLink[2] waitingTime:vector ETV
attr "" ""
attr source computeWaitingTime
8	18374103 1041850 121894 1825681 10006.600447409105 149998.600447409105 23292 6492.5450002585 101487.57303137 1272608709.9902 86705489804381
vector 9 Aerocom.dataLink[1] responseTime:vector ETV
attr "" ""
attr source computeResponseTime
9	19415953 1039334 121920 1825673 10008.336046170809 149998.336046170809 23237 6564.1078297535 100751.06062695 1258599753.1198 85349077449385
vector 10 Aerocom.dataLink[1] waitingTime:vector ETV
attr "" ""
attr source computeWaitingTime
10	20455287 1062571 121920 1825673 10008.336046170809 149998.336046170809 23237 6554.5436684518 100740.98964796 1258413885.3602 85328810466567
vector 11 Aerocom.dataLink[1] queueLength:vector ETV
attr "" ""
attr source computeQueueLength
11	2269161 1133441 122087 913138 10020.10402419963 75051.181481709382 32768 3430 25401 473166315 8122482055647
11	6828822 1192186 913143 1697751 75051.368773720989 139552.130474493777 32768 25397 47481 1195688169 44959694120573
11	21517858 193513 1697754 1824824 139552.749694551253 149927.255385397033 5246 47479 50988 258341994 12727423367418
vector 12 Aerocom.dataLink[2] queueLength:vector ETV
attr "" ""
attr source computeQueueLength
12	2483 1134136 122220 904097 10030.589152729226 74314.5298751264 32768 3746 25792 485981453 8521429096361
12	5636175 1192647 904101 1689895 74315.152523062424 138891.871625162116 32768 25790 47843 1203157758 45516191158054
12	21711371 208912 1689898 1825092 138892.042735441572 149949.213971332589 5662 47841 51665 281398465 13992406252571
vector 13 Aerocom.dataLink[0] queueLength:vector ETV
attr "" ""
attr source computeQueueLength
13	1136619 1132542 122356 912488 10040.095786809473 75001.271623006914 32768 3006 25017 454093460 7617077724282
13	8021008 1192220 912498 1705814 75001.993109388842 140216.128785961993 32768 25014 47043 1179829861 43797870331451
13	21920283 178354 1705818 1825689 140216.351138146822 149999.18928134363 4834 47043 50251 235103989 11438530683913
vector 14 Aerocom.dataLink[3] queueLength:vector ETV
attr "" ""
attr source computeQueueLength
14	4503234 1132941 123090 940559 10100.5107231773 77316.150063148294 32768 3103 24695 458977900 7702636127272
14	9213228 1194688 940562 1740694 77316.352404144202 143056.549800875693 32768 24683 46458 1167585739 42887754073493
14	22098637 118993 1740698 1825432 143056.737865624953 149979.681000882325 3226 46454 48544 153270474 7283188440846
