version 2
run Exponential-capacity-12-20210217-10:37:02-20508
attr configname Exponential-capacity
attr datetime 20210217-10:37:02
attr experiment Exponential-capacity
attr inifile aerocom.ini
attr iterationvars $0=2.2
attr iterationvarsf 2.2-
attr measurement $0=2.2
attr network Aerocom
attr processid 20508
attr repetition 0
attr replication #0
attr resultdir results
attr runnumber 12
attr seedset 0
param **.t 2s
param **.k 50ms
param **.X 2s
param **.m 2.2s
param **.tDistribution "\"exponential\""
param **.operationMode 0
param **.s "70 byte"
param **.dimPoolMax 10000
param **.dimPoolMin 8000
param **.nDL 10
param **.nA 10
param **.DLMaxCapacity 0
param **.trasmitting false

scalar Aerocom.aircraft[0].linkSelector responseTime:mean 1.3707736991828
attr "" ""
attr source computeResponseTime
scalar Aerocom.aircraft[0].linkSelector meanMalus:sum 9650
attr "" ""
attr source computeMeanMalus
scalar Aerocom.aircraft[0].linkSelector waitingTime:mean 1.3632345341715
attr "" ""
attr source computeWaitingTime
scalar Aerocom.aircraft[0].linkSelector serviceTime:mean 0.0075391650113232
attr "" ""
attr source computeServiceTime
scalar Aerocom.aircraft[0].linkSelector queueLength:mean 27.010737386805
attr "" ""
attr source computeQueueLength
scalar Aerocom.aircraft[0].dataLink[0] sentPackets:count 662
attr source computeSentPackets
scalar Aerocom.aircraft[0].dataLink[0] actualCapacity:mean 9328.9642431466
attr "" ""
attr source computeActualCapacity
scalar Aerocom.aircraft[0].dataLink[1] sentPackets:count 1280
attr source computeSentPackets
scalar Aerocom.aircraft[0].dataLink[1] actualCapacity:mean 9294.1960110041
attr "" ""
attr source computeActualCapacity
scalar Aerocom.aircraft[0].dataLink[2] sentPackets:count 529
attr source computeSentPackets
scalar Aerocom.aircraft[0].dataLink[2] actualCapacity:mean 9030.6676136364
attr "" ""
attr source computeActualCapacity
scalar Aerocom.aircraft[0].dataLink[3] sentPackets:count 969
attr source computeSentPackets
scalar Aerocom.aircraft[0].dataLink[3] actualCapacity:mean 9379.8789198606
attr "" ""
attr source computeActualCapacity
scalar Aerocom.aircraft[0].dataLink[4] sentPackets:count 856
attr source computeSentPackets
scalar Aerocom.aircraft[0].dataLink[4] actualCapacity:mean 9342.7184185149
attr "" ""
attr source computeActualCapacity
scalar Aerocom.aircraft[0].dataLink[5] sentPackets:count 448
attr source computeSentPackets
scalar Aerocom.aircraft[0].dataLink[5] actualCapacity:mean 9080.7284345048
attr "" ""
attr source computeActualCapacity
scalar Aerocom.aircraft[0].dataLink[6] sentPackets:count 740
attr source computeSentPackets
scalar Aerocom.aircraft[0].dataLink[6] actualCapacity:mean 9168.3989071038
attr "" ""
attr source computeActualCapacity
scalar Aerocom.aircraft[0].dataLink[7] sentPackets:count 623
attr source computeSentPackets
scalar Aerocom.aircraft[0].dataLink[7] actualCapacity:mean 9371.4114713217
attr "" ""
attr source computeActualCapacity
scalar Aerocom.aircraft[0].dataLink[8] sentPackets:count 780
attr source computeSentPackets
scalar Aerocom.aircraft[0].dataLink[8] actualCapacity:mean 9154.0542797495
attr "" ""
attr source computeActualCapacity
scalar Aerocom.aircraft[0].dataLink[9] sentPackets:count 843
attr source computeSentPackets
scalar Aerocom.aircraft[0].dataLink[9] actualCapacity:mean 9237.0462143559
attr "" ""
attr source computeActualCapacity
scalar Aerocom.aircraft[1].linkSelector responseTime:mean 1.3549520347814
attr "" ""
attr source computeResponseTime
scalar Aerocom.aircraft[1].linkSelector meanMalus:sum 10176
attr "" ""
attr source computeMeanMalus
scalar Aerocom.aircraft[1].linkSelector waitingTime:mean 1.3474349833325
attr "" ""
attr source computeWaitingTime
scalar Aerocom.aircraft[1].linkSelector serviceTime:mean 0.0075170514489484
attr "" ""
attr source computeServiceTime
scalar Aerocom.aircraft[1].linkSelector queueLength:mean 27.60756947064
attr "" ""
attr source computeQueueLength
scalar Aerocom.aircraft[1].dataLink[0] sentPackets:count 631
attr source computeSentPackets
scalar Aerocom.aircraft[1].dataLink[0] actualCapacity:mean 9227.8822800496
attr "" ""
attr source computeActualCapacity
scalar Aerocom.aircraft[1].dataLink[1] sentPackets:count 406
attr source computeSentPackets
scalar Aerocom.aircraft[1].dataLink[1] actualCapacity:mean 9223.7920962199
attr "" ""
attr source computeActualCapacity
scalar Aerocom.aircraft[1].dataLink[2] sentPackets:count 979
attr source computeSentPackets
scalar Aerocom.aircraft[1].dataLink[2] actualCapacity:mean 9280.2405172414
attr "" ""
attr source computeActualCapacity
scalar Aerocom.aircraft[1].dataLink[3] sentPackets:count 708
attr source computeSentPackets
scalar Aerocom.aircraft[1].dataLink[3] actualCapacity:mean 9055.6904761905
attr "" ""
attr source computeActualCapacity
scalar Aerocom.aircraft[1].dataLink[4] sentPackets:count 877
attr source computeSentPackets
scalar Aerocom.aircraft[1].dataLink[4] actualCapacity:mean 9033.1004739336
attr "" ""
attr source computeActualCapacity
scalar Aerocom.aircraft[1].dataLink[5] sentPackets:count 1126
attr source computeSentPackets
scalar Aerocom.aircraft[1].dataLink[5] actualCapacity:mean 9460.8514548239
attr "" ""
attr source computeActualCapacity
scalar Aerocom.aircraft[1].dataLink[6] sentPackets:count 1001
attr source computeSentPackets
scalar Aerocom.aircraft[1].dataLink[6] actualCapacity:mean 9345.4094754653
attr "" ""
attr source computeActualCapacity
scalar Aerocom.aircraft[1].dataLink[7] sentPackets:count 786
attr source computeSentPackets
scalar Aerocom.aircraft[1].dataLink[7] actualCapacity:mean 9250.9781021898
attr "" ""
attr source computeActualCapacity
scalar Aerocom.aircraft[1].dataLink[8] sentPackets:count 771
attr source computeSentPackets
scalar Aerocom.aircraft[1].dataLink[8] actualCapacity:mean 9435.2974683544
attr "" ""
attr source computeActualCapacity
scalar Aerocom.aircraft[1].dataLink[9] sentPackets:count 668
attr source computeSentPackets
scalar Aerocom.aircraft[1].dataLink[9] actualCapacity:mean 9364.9703087886
attr "" ""
attr source computeActualCapacity
scalar Aerocom.aircraft[2].linkSelector responseTime:mean 1.3726996014062
attr "" ""
attr source computeResponseTime
scalar Aerocom.aircraft[2].linkSelector meanMalus:sum 9546
attr "" ""
attr source computeMeanMalus
scalar Aerocom.aircraft[2].linkSelector waitingTime:mean 1.3651824884432
attr "" ""
attr source computeWaitingTime
scalar Aerocom.aircraft[2].linkSelector serviceTime:mean 0.0075171129630381
attr "" ""
attr source computeServiceTime
scalar Aerocom.aircraft[2].linkSelector queueLength:mean 27.109362808843
attr "" ""
attr source computeQueueLength
scalar Aerocom.aircraft[2].dataLink[0] sentPackets:count 736
attr source computeSentPackets
scalar Aerocom.aircraft[2].dataLink[0] actualCapacity:mean 9068.696369637
attr "" ""
attr source computeActualCapacity
scalar Aerocom.aircraft[2].dataLink[1] sentPackets:count 671
attr source computeSentPackets
scalar Aerocom.aircraft[2].dataLink[1] actualCapacity:mean 9276.3407755582
attr "" ""
attr source computeActualCapacity
scalar Aerocom.aircraft[2].dataLink[2] sentPackets:count 380
attr source computeSentPackets
scalar Aerocom.aircraft[2].dataLink[2] actualCapacity:mean 9225.6964285714
attr "" ""
attr source computeActualCapacity
scalar Aerocom.aircraft[2].dataLink[3] sentPackets:count 828
attr source computeSentPackets
scalar Aerocom.aircraft[2].dataLink[3] actualCapacity:mean 9251.8650793651
attr "" ""
attr source computeActualCapacity
scalar Aerocom.aircraft[2].dataLink[4] sentPackets:count 1115
attr source computeSentPackets
scalar Aerocom.aircraft[2].dataLink[4] actualCapacity:mean 9224.2161741835
attr "" ""
attr source computeActualCapacity
scalar Aerocom.aircraft[2].dataLink[5] sentPackets:count 667
attr source computeSentPackets
scalar Aerocom.aircraft[2].dataLink[5] actualCapacity:mean 9271.7154761905
attr "" ""
attr source computeActualCapacity
scalar Aerocom.aircraft[2].dataLink[6] sentPackets:count 1015
attr source computeSentPackets
scalar Aerocom.aircraft[2].dataLink[6] actualCapacity:mean 9400.9974874372
attr "" ""
attr source computeActualCapacity
scalar Aerocom.aircraft[2].dataLink[7] sentPackets:count 796
attr source computeSentPackets
scalar Aerocom.aircraft[2].dataLink[7] actualCapacity:mean 9289.7823408624
attr "" ""
attr source computeActualCapacity
scalar Aerocom.aircraft[2].dataLink[8] sentPackets:count 822
attr source computeSentPackets
scalar Aerocom.aircraft[2].dataLink[8] actualCapacity:mean 9342.3400200602
attr "" ""
attr source computeActualCapacity
scalar Aerocom.aircraft[2].dataLink[9] sentPackets:count 660
attr source computeSentPackets
scalar Aerocom.aircraft[2].dataLink[9] actualCapacity:mean 9357.3709869203
attr "" ""
attr source computeActualCapacity
scalar Aerocom.aircraft[3].linkSelector responseTime:mean 1.3355690419406
attr "" ""
attr source computeResponseTime
scalar Aerocom.aircraft[3].linkSelector meanMalus:sum 9960
attr "" ""
attr source computeMeanMalus
scalar Aerocom.aircraft[3].linkSelector waitingTime:mean 1.328018454155
attr "" ""
attr source computeWaitingTime
scalar Aerocom.aircraft[3].linkSelector serviceTime:mean 0.0075505877855618
attr "" ""
attr source computeServiceTime
scalar Aerocom.aircraft[3].linkSelector queueLength:mean 26.684635083227
attr "" ""
attr source computeQueueLength
scalar Aerocom.aircraft[3].dataLink[0] sentPackets:count 924
attr source computeSentPackets
scalar Aerocom.aircraft[3].dataLink[0] actualCapacity:mean 9232.8835304823
attr "" ""
attr source computeActualCapacity
scalar Aerocom.aircraft[3].dataLink[1] sentPackets:count 451
attr source computeSentPackets
scalar Aerocom.aircraft[3].dataLink[1] actualCapacity:mean 9327.9554848967
attr "" ""
attr source computeActualCapacity
scalar Aerocom.aircraft[3].dataLink[2] sentPackets:count 828
attr source computeSentPackets
scalar Aerocom.aircraft[3].dataLink[2] actualCapacity:mean 9265.4400396432
attr "" ""
attr source computeActualCapacity
scalar Aerocom.aircraft[3].dataLink[3] sentPackets:count 623
attr source computeSentPackets
scalar Aerocom.aircraft[3].dataLink[3] actualCapacity:mean 9066.6853932584
attr "" ""
attr source computeActualCapacity
scalar Aerocom.aircraft[3].dataLink[4] sentPackets:count 685
attr source computeSentPackets
scalar Aerocom.aircraft[3].dataLink[4] actualCapacity:mean 9323.3661645423
attr "" ""
attr source computeActualCapacity
scalar Aerocom.aircraft[3].dataLink[5] sentPackets:count 838
attr source computeSentPackets
scalar Aerocom.aircraft[3].dataLink[5] actualCapacity:mean 9185.5501968504
attr "" ""
attr source computeActualCapacity
scalar Aerocom.aircraft[3].dataLink[6] sentPackets:count 896
attr source computeSentPackets
scalar Aerocom.aircraft[3].dataLink[6] actualCapacity:mean 9275.8985102421
attr "" ""
attr source computeActualCapacity
scalar Aerocom.aircraft[3].dataLink[7] sentPackets:count 1353
attr source computeSentPackets
scalar Aerocom.aircraft[3].dataLink[7] actualCapacity:mean 9389.5297969876
attr "" ""
attr source computeActualCapacity
scalar Aerocom.aircraft[3].dataLink[8] sentPackets:count 604
attr source computeSentPackets
scalar Aerocom.aircraft[3].dataLink[8] actualCapacity:mean 8994.3051282051
attr "" ""
attr source computeActualCapacity
scalar Aerocom.aircraft[3].dataLink[9] sentPackets:count 608
attr source computeSentPackets
scalar Aerocom.aircraft[3].dataLink[9] actualCapacity:mean 9169.2813299233
attr "" ""
attr source computeActualCapacity
scalar Aerocom.aircraft[4].linkSelector responseTime:mean 1.3753268589303
attr "" ""
attr source computeResponseTime
scalar Aerocom.aircraft[4].linkSelector meanMalus:sum 9964
attr "" ""
attr source computeMeanMalus
scalar Aerocom.aircraft[4].linkSelector waitingTime:mean 1.3677584655234
attr "" ""
attr source computeWaitingTime
scalar Aerocom.aircraft[4].linkSelector serviceTime:mean 0.0075683934069245
attr "" ""
attr source computeServiceTime
scalar Aerocom.aircraft[4].linkSelector queueLength:mean 27.473819301848
attr "" ""
attr source computeQueueLength
scalar Aerocom.aircraft[4].dataLink[0] sentPackets:count 868
attr source computeSentPackets
scalar Aerocom.aircraft[4].dataLink[0] actualCapacity:mean 9413.8258373206
attr "" ""
attr source computeActualCapacity
scalar Aerocom.aircraft[4].dataLink[1] sentPackets:count 829
attr source computeSentPackets
scalar Aerocom.aircraft[4].dataLink[1] actualCapacity:mean 9039.416500994
attr "" ""
attr source computeActualCapacity
scalar Aerocom.aircraft[4].dataLink[2] sentPackets:count 518
attr source computeSentPackets
scalar Aerocom.aircraft[4].dataLink[2] actualCapacity:mean 9218.4126074499
attr "" ""
attr source computeActualCapacity
scalar Aerocom.aircraft[4].dataLink[3] sentPackets:count 1212
attr source computeSentPackets
scalar Aerocom.aircraft[4].dataLink[3] actualCapacity:mean 9172.3005780347
attr "" ""
attr source computeActualCapacity
scalar Aerocom.aircraft[4].dataLink[4] sentPackets:count 831
attr source computeSentPackets
scalar Aerocom.aircraft[4].dataLink[4] actualCapacity:mean 9336.1497536946
attr "" ""
attr source computeActualCapacity
scalar Aerocom.aircraft[4].dataLink[5] sentPackets:count 619
attr source computeSentPackets
scalar Aerocom.aircraft[4].dataLink[5] actualCapacity:mean 9193.6536523929
attr "" ""
attr source computeActualCapacity
scalar Aerocom.aircraft[4].dataLink[6] sentPackets:count 1058
attr source computeSentPackets
scalar Aerocom.aircraft[4].dataLink[6] actualCapacity:mean 9172.7918699187
attr "" ""
attr source computeActualCapacity
scalar Aerocom.aircraft[4].dataLink[7] sentPackets:count 576
attr source computeSentPackets
scalar Aerocom.aircraft[4].dataLink[7] actualCapacity:mean 9175.3821571238
attr "" ""
attr source computeActualCapacity
scalar Aerocom.aircraft[4].dataLink[8] sentPackets:count 703
attr source computeSentPackets
scalar Aerocom.aircraft[4].dataLink[8] actualCapacity:mean 9213.4569160998
attr "" ""
attr source computeActualCapacity
scalar Aerocom.aircraft[4].dataLink[9] sentPackets:count 578
attr source computeSentPackets
scalar Aerocom.aircraft[4].dataLink[9] actualCapacity:mean 9282.7661822985
attr "" ""
attr source computeActualCapacity
scalar Aerocom.aircraft[5].linkSelector responseTime:mean 1.333964785854
attr "" ""
attr source computeResponseTime
scalar Aerocom.aircraft[5].linkSelector meanMalus:sum 9858
attr "" ""
attr source computeMeanMalus
scalar Aerocom.aircraft[5].linkSelector waitingTime:mean 1.3264302544177
attr "" ""
attr source computeWaitingTime
scalar Aerocom.aircraft[5].linkSelector serviceTime:mean 0.007534531436399
attr "" ""
attr source computeServiceTime
scalar Aerocom.aircraft[5].linkSelector queueLength:mean 26.303932946486
attr "" ""
attr source computeQueueLength
scalar Aerocom.aircraft[5].dataLink[0] sentPackets:count 725
attr source computeSentPackets
scalar Aerocom.aircraft[5].dataLink[0] actualCapacity:mean 9243.9867986799
attr "" ""
attr source computeActualCapacity
scalar Aerocom.aircraft[5].dataLink[1] sentPackets:count 753
attr source computeSentPackets
scalar Aerocom.aircraft[5].dataLink[1] actualCapacity:mean 9173.0462365591
attr "" ""
attr source computeActualCapacity
scalar Aerocom.aircraft[5].dataLink[2] sentPackets:count 591
attr source computeSentPackets
scalar Aerocom.aircraft[5].dataLink[2] actualCapacity:mean 9335.9206762029
attr "" ""
attr source computeActualCapacity
scalar Aerocom.aircraft[5].dataLink[3] sentPackets:count 785
attr source computeSentPackets
scalar Aerocom.aircraft[5].dataLink[3] actualCapacity:mean 9246.396049896
attr "" ""
attr source computeActualCapacity
scalar Aerocom.aircraft[5].dataLink[4] sentPackets:count 896
attr source computeSentPackets
scalar Aerocom.aircraft[5].dataLink[4] actualCapacity:mean 9300.9944029851
attr "" ""
attr source computeActualCapacity
scalar Aerocom.aircraft[5].dataLink[5] sentPackets:count 694
attr source computeSentPackets
scalar Aerocom.aircraft[5].dataLink[5] actualCapacity:mean 9186.6359447005
attr "" ""
attr source computeActualCapacity
scalar Aerocom.aircraft[5].dataLink[6] sentPackets:count 559
attr source computeSentPackets
scalar Aerocom.aircraft[5].dataLink[6] actualCapacity:mean 9117.6983695652
attr "" ""
attr source computeActualCapacity
scalar Aerocom.aircraft[5].dataLink[7] sentPackets:count 965
attr source computeSentPackets
scalar Aerocom.aircraft[5].dataLink[7] actualCapacity:mean 9325.4921328671
attr "" ""
attr source computeActualCapacity
scalar Aerocom.aircraft[5].dataLink[8] sentPackets:count 814
attr source computeSentPackets
scalar Aerocom.aircraft[5].dataLink[8] actualCapacity:mean 9186.9797365755
attr "" ""
attr source computeActualCapacity
scalar Aerocom.aircraft[5].dataLink[9] sentPackets:count 973
attr source computeSentPackets
scalar Aerocom.aircraft[5].dataLink[9] actualCapacity:mean 9356.6907665505
attr "" ""
attr source computeActualCapacity
scalar Aerocom.aircraft[6].linkSelector responseTime:mean 1.3399207172101
attr "" ""
attr source computeResponseTime
scalar Aerocom.aircraft[6].linkSelector meanMalus:sum 10206
attr "" ""
attr source computeMeanMalus
scalar Aerocom.aircraft[6].linkSelector waitingTime:mean 1.3323649889896
attr "" ""
attr source computeWaitingTime
scalar Aerocom.aircraft[6].linkSelector serviceTime:mean 0.0075557282205394
attr "" ""
attr source computeServiceTime
scalar Aerocom.aircraft[6].linkSelector queueLength:mean 27.559024754323
attr "" ""
attr source computeQueueLength
scalar Aerocom.aircraft[6].dataLink[0] sentPackets:count 1100
attr source computeSentPackets
scalar Aerocom.aircraft[6].dataLink[0] actualCapacity:mean 9285.3098039216
attr "" ""
attr source computeActualCapacity
scalar Aerocom.aircraft[6].dataLink[1] sentPackets:count 1318
attr source computeSentPackets
scalar Aerocom.aircraft[6].dataLink[1] actualCapacity:mean 9315.8403755869
attr "" ""
attr source computeActualCapacity
scalar Aerocom.aircraft[6].dataLink[2] sentPackets:count 826
attr source computeSentPackets
scalar Aerocom.aircraft[6].dataLink[2] actualCapacity:mean 9026.4506480558
attr "" ""
attr source computeActualCapacity
scalar Aerocom.aircraft[6].dataLink[3] sentPackets:count 460
attr source computeSentPackets
scalar Aerocom.aircraft[6].dataLink[3] actualCapacity:mean 9232.8777429467
attr "" ""
attr source computeActualCapacity
scalar Aerocom.aircraft[6].dataLink[4] sentPackets:count 423
attr source computeSentPackets
scalar Aerocom.aircraft[6].dataLink[4] actualCapacity:mean 8968.7142857143
attr "" ""
attr source computeActualCapacity
scalar Aerocom.aircraft[6].dataLink[5] sentPackets:count 710
attr source computeSentPackets
scalar Aerocom.aircraft[6].dataLink[5] actualCapacity:mean 9352.6042841037
attr "" ""
attr source computeActualCapacity
scalar Aerocom.aircraft[6].dataLink[6] sentPackets:count 788
attr source computeSentPackets
scalar Aerocom.aircraft[6].dataLink[6] actualCapacity:mean 9116.5463059313
attr "" ""
attr source computeActualCapacity
scalar Aerocom.aircraft[6].dataLink[7] sentPackets:count 640
attr source computeSentPackets
scalar Aerocom.aircraft[6].dataLink[7] actualCapacity:mean 9404.2987804878
attr "" ""
attr source computeActualCapacity
scalar Aerocom.aircraft[6].dataLink[8] sentPackets:count 836
attr source computeSentPackets
scalar Aerocom.aircraft[6].dataLink[8] actualCapacity:mean 9329.8700787402
attr "" ""
attr source computeActualCapacity
scalar Aerocom.aircraft[6].dataLink[9] sentPackets:count 938
attr source computeSentPackets
scalar Aerocom.aircraft[6].dataLink[9] actualCapacity:mean 9203.1299283154
attr "" ""
attr source computeActualCapacity
scalar Aerocom.aircraft[7].linkSelector responseTime:mean 1.3662521295136
attr "" ""
attr source computeResponseTime
scalar Aerocom.aircraft[7].linkSelector meanMalus:sum 10346
attr "" ""
attr source computeMeanMalus
scalar Aerocom.aircraft[7].linkSelector waitingTime:mean 1.3587621728618
attr "" ""
attr source computeWaitingTime
scalar Aerocom.aircraft[7].linkSelector serviceTime:mean 0.0074899566518341
attr "" ""
attr source computeServiceTime
scalar Aerocom.aircraft[7].linkSelector queueLength:mean 27.583545593479
attr "" ""
attr source computeQueueLength
scalar Aerocom.aircraft[7].dataLink[0] sentPackets:count 900
attr source computeSentPackets
scalar Aerocom.aircraft[7].dataLink[0] actualCapacity:mean 9437.6317254174
attr "" ""
attr source computeActualCapacity
scalar Aerocom.aircraft[7].dataLink[1] sentPackets:count 767
attr source computeSentPackets
scalar Aerocom.aircraft[7].dataLink[1] actualCapacity:mean 9181.3644067797
attr "" ""
attr source computeActualCapacity
scalar Aerocom.aircraft[7].dataLink[2] sentPackets:count 740
attr source computeSentPackets
scalar Aerocom.aircraft[7].dataLink[2] actualCapacity:mean 9156.2464558342
attr "" ""
attr source computeActualCapacity
scalar Aerocom.aircraft[7].dataLink[3] sentPackets:count 422
attr source computeSentPackets
scalar Aerocom.aircraft[7].dataLink[3] actualCapacity:mean 8967.2725752508
attr "" ""
attr source computeActualCapacity
scalar Aerocom.aircraft[7].dataLink[4] sentPackets:count 1246
attr source computeSentPackets
scalar Aerocom.aircraft[7].dataLink[4] actualCapacity:mean 9235.1068917018
attr "" ""
attr source computeActualCapacity
scalar Aerocom.aircraft[7].dataLink[5] sentPackets:count 1097
attr source computeSentPackets
scalar Aerocom.aircraft[7].dataLink[5] actualCapacity:mean 9484.4160756501
attr "" ""
attr source computeActualCapacity
scalar Aerocom.aircraft[7].dataLink[6] sentPackets:count 1017
attr source computeSentPackets
scalar Aerocom.aircraft[7].dataLink[6] actualCapacity:mean 9350.5393634841
attr "" ""
attr source computeActualCapacity
scalar Aerocom.aircraft[7].dataLink[7] sentPackets:count 436
attr source computeSentPackets
scalar Aerocom.aircraft[7].dataLink[7] actualCapacity:mean 9351.9188311688
attr "" ""
attr source computeActualCapacity
scalar Aerocom.aircraft[7].dataLink[8] sentPackets:count 486
attr source computeSentPackets
scalar Aerocom.aircraft[7].dataLink[8] actualCapacity:mean 9356.721633888
attr "" ""
attr source computeActualCapacity
scalar Aerocom.aircraft[7].dataLink[9] sentPackets:count 741
attr source computeSentPackets
scalar Aerocom.aircraft[7].dataLink[9] actualCapacity:mean 9350.5958829902
attr "" ""
attr source computeActualCapacity
scalar Aerocom.aircraft[8].linkSelector responseTime:mean 1.4154486316907
attr "" ""
attr source computeResponseTime
scalar Aerocom.aircraft[8].linkSelector meanMalus:sum 9920
attr "" ""
attr source computeMeanMalus
scalar Aerocom.aircraft[8].linkSelector waitingTime:mean 1.4079221837351
attr "" ""
attr source computeWaitingTime
scalar Aerocom.aircraft[8].linkSelector serviceTime:mean 0.0075264479556644
attr "" ""
attr source computeServiceTime
scalar Aerocom.aircraft[8].linkSelector queueLength:mean 28.132602320541
attr "" ""
attr source computeQueueLength
scalar Aerocom.aircraft[8].dataLink[0] sentPackets:count 835
attr source computeSentPackets
scalar Aerocom.aircraft[8].dataLink[0] actualCapacity:mean 9305.5336633663
attr "" ""
attr source computeActualCapacity
scalar Aerocom.aircraft[8].dataLink[1] sentPackets:count 710
attr source computeSentPackets
scalar Aerocom.aircraft[8].dataLink[1] actualCapacity:mean 9334.7300337458
attr "" ""
attr source computeActualCapacity
scalar Aerocom.aircraft[8].dataLink[2] sentPackets:count 1195
attr source computeSentPackets
scalar Aerocom.aircraft[8].dataLink[2] actualCapacity:mean 9331.2892622352
attr "" ""
attr source computeActualCapacity
scalar Aerocom.aircraft[8].dataLink[3] sentPackets:count 992
attr source computeSentPackets
scalar Aerocom.aircraft[8].dataLink[3] actualCapacity:mean 9319.8183376178
attr "" ""
attr source computeActualCapacity
scalar Aerocom.aircraft[8].dataLink[4] sentPackets:count 638
attr source computeSentPackets
scalar Aerocom.aircraft[8].dataLink[4] actualCapacity:mean 9134.9189189189
attr "" ""
attr source computeActualCapacity
scalar Aerocom.aircraft[8].dataLink[5] sentPackets:count 784
attr source computeSentPackets
scalar Aerocom.aircraft[8].dataLink[5] actualCapacity:mean 9338.9802494802
attr "" ""
attr source computeActualCapacity
scalar Aerocom.aircraft[8].dataLink[6] sentPackets:count 483
attr source computeSentPackets
scalar Aerocom.aircraft[8].dataLink[6] actualCapacity:mean 9203.3459214502
attr "" ""
attr source computeActualCapacity
scalar Aerocom.aircraft[8].dataLink[7] sentPackets:count 668
attr source computeSentPackets
scalar Aerocom.aircraft[8].dataLink[7] actualCapacity:mean 9158.7747641509
attr "" ""
attr source computeActualCapacity
scalar Aerocom.aircraft[8].dataLink[8] sentPackets:count 716
attr source computeSentPackets
scalar Aerocom.aircraft[8].dataLink[8] actualCapacity:mean 9023.3834080717
attr "" ""
attr source computeActualCapacity
scalar Aerocom.aircraft[8].dataLink[9] sentPackets:count 822
attr source computeSentPackets
scalar Aerocom.aircraft[8].dataLink[9] actualCapacity:mean 9307.438
attr "" ""
attr source computeActualCapacity
scalar Aerocom.aircraft[9].linkSelector responseTime:mean 1.4078170953115
attr "" ""
attr source computeResponseTime
scalar Aerocom.aircraft[9].linkSelector meanMalus:sum 10078
attr "" ""
attr source computeMeanMalus
scalar Aerocom.aircraft[9].linkSelector waitingTime:mean 1.4002889145431
attr "" ""
attr source computeWaitingTime
scalar Aerocom.aircraft[9].linkSelector serviceTime:mean 0.0075281807683889
attr "" ""
attr source computeServiceTime
scalar Aerocom.aircraft[9].linkSelector queueLength:mean 28.6624617737
attr "" ""
attr source computeQueueLength
scalar Aerocom.aircraft[9].dataLink[0] sentPackets:count 804
attr source computeSentPackets
scalar Aerocom.aircraft[9].dataLink[0] actualCapacity:mean 9278.8792221085
attr "" ""
attr source computeActualCapacity
scalar Aerocom.aircraft[9].dataLink[1] sentPackets:count 920
attr source computeSentPackets
scalar Aerocom.aircraft[9].dataLink[1] actualCapacity:mean 9413.4681818182
attr "" ""
attr source computeActualCapacity
scalar Aerocom.aircraft[9].dataLink[2] sentPackets:count 1015
attr source computeSentPackets
scalar Aerocom.aircraft[9].dataLink[2] actualCapacity:mean 9239.283557047
attr "" ""
attr source computeActualCapacity
scalar Aerocom.aircraft[9].dataLink[3] sentPackets:count 574
attr source computeSentPackets
scalar Aerocom.aircraft[9].dataLink[3] actualCapacity:mean 9272.6728723404
attr "" ""
attr source computeActualCapacity
scalar Aerocom.aircraft[9].dataLink[4] sentPackets:count 939
attr source computeSentPackets
scalar Aerocom.aircraft[9].dataLink[4] actualCapacity:mean 9145.0089686099
attr "" ""
attr source computeActualCapacity
scalar Aerocom.aircraft[9].dataLink[5] sentPackets:count 709
attr source computeSentPackets
scalar Aerocom.aircraft[9].dataLink[5] actualCapacity:mean 9126.9560810811
attr "" ""
attr source computeActualCapacity
scalar Aerocom.aircraft[9].dataLink[6] sentPackets:count 438
attr source computeSentPackets
scalar Aerocom.aircraft[9].dataLink[6] actualCapacity:mean 9130.8522727273
attr "" ""
attr source computeActualCapacity
scalar Aerocom.aircraft[9].dataLink[7] sentPackets:count 936
attr source computeSentPackets
scalar Aerocom.aircraft[9].dataLink[7] actualCapacity:mean 9312.3597835888
attr "" ""
attr source computeActualCapacity
scalar Aerocom.aircraft[9].dataLink[8] sentPackets:count 758
attr source computeSentPackets
scalar Aerocom.aircraft[9].dataLink[8] actualCapacity:mean 9420.4360341151
attr "" ""
attr source computeActualCapacity
scalar Aerocom.aircraft[9].dataLink[9] sentPackets:count 755
attr source computeSentPackets
scalar Aerocom.aircraft[9].dataLink[9] actualCapacity:mean 9245.2567132116
attr "" ""
attr source computeActualCapacity
scalar Aerocom.controlTower receivedPackets:count 78312
attr source computeReceivedPackets

