file 10275245 1613502079                                        
version 2
run Exponential-capacity-1-20210216-20:01:16-7008
attr configname Exponential-capacity
attr datetime 20210216-20:01:16
attr experiment Exponential-capacity
attr inifile aerocom.ini
attr iterationvars "$0=9, $1=0.5"
attr iterationvarsf 9,0.5-
attr measurement "$0=9, $1=0.5"
attr network Aerocom
attr processid 7008
attr repetition 0
attr replication #0
attr resultdir results
attr runnumber 1
attr seedset 0
param **.t 1s
param **.k 9ms
param **.X 50ms
param **.m 0.5s
param **.tDistribution "\"exponential\""
param **.operationMode 0
param **.s "70 byte"
param **.dimPoolMax 10000
param **.dimPoolMin 8000
param **.nDL 10
param **.nA 1
param **.DLMaxCapacity 0
param **.trasmitting false

vector 0 Aerocom.aircraft[0].dataLink[0] actualCapacity:vector ETV
attr "" ""
attr source computeActualCapacity
vector 1 Aerocom.aircraft[0].dataLink[1] actualCapacity:vector ETV
attr "" ""
attr source computeActualCapacity
vector 2 Aerocom.aircraft[0].dataLink[2] actualCapacity:vector ETV
attr "" ""
attr source computeActualCapacity
vector 3 Aerocom.aircraft[0].dataLink[3] actualCapacity:vector ETV
attr "" ""
attr source computeActualCapacity
vector 4 Aerocom.aircraft[0].dataLink[4] actualCapacity:vector ETV
attr "" ""
attr source computeActualCapacity
vector 5 Aerocom.aircraft[0].dataLink[5] actualCapacity:vector ETV
attr "" ""
attr source computeActualCapacity
vector 6 Aerocom.aircraft[0].dataLink[6] actualCapacity:vector ETV
attr "" ""
attr source computeActualCapacity
vector 7 Aerocom.aircraft[0].dataLink[7] actualCapacity:vector ETV
attr "" ""
attr source computeActualCapacity
vector 8 Aerocom.aircraft[0].dataLink[8] actualCapacity:vector ETV
attr "" ""
attr source computeActualCapacity
vector 9 Aerocom.aircraft[0].dataLink[9] actualCapacity:vector ETV
attr "" ""
attr source computeActualCapacity
vector 10 Aerocom.aircraft[0].packetGenerator arrivalTime:vector ETV
attr "" ""
attr source computeArrivalTime
vector 11 Aerocom.aircraft[0].linkSelector responseTime:vector ETV
attr "" ""
attr source computeResponseTime
vector 12 Aerocom.aircraft[0].linkSelector waitingTime:vector ETV
attr "" ""
attr source computeWaitingTime
vector 13 Aerocom.aircraft[0].linkSelector queueLength:vector ETV
attr "" ""
attr source computeQueueLength
vector 14 Aerocom.aircraft[0].linkSelector serviceTime:vector ETV
attr "" ""
attr source computeServiceTime
vector 15 Aerocom.aircraft[0].dataLink[4] tDistribution:vector ETV
attr "" ""
attr source computeTDistribution
vector 16 Aerocom.aircraft[0].dataLink[5] tDistribution:vector ETV
attr "" ""
attr source computeTDistribution
vector 17 Aerocom.aircraft[0].dataLink[0] tDistribution:vector ETV
attr "" ""
attr source computeTDistribution
vector 18 Aerocom.aircraft[0].dataLink[3] tDistribution:vector ETV
attr "" ""
attr source computeTDistribution
vector 19 Aerocom.aircraft[0].dataLink[8] tDistribution:vector ETV
attr "" ""
attr source computeTDistribution
vector 20 Aerocom.aircraft[0].dataLink[9] tDistribution:vector ETV
attr "" ""
attr source computeTDistribution
vector 21 Aerocom.aircraft[0].dataLink[6] tDistribution:vector ETV
attr "" ""
attr source computeTDistribution
vector 22 Aerocom.aircraft[0].dataLink[1] tDistribution:vector ETV
attr "" ""
attr source computeTDistribution
vector 23 Aerocom.aircraft[0].dataLink[7] tDistribution:vector ETV
attr "" ""
attr source computeTDistribution
vector 24 Aerocom.aircraft[0].dataLink[2] tDistribution:vector ETV
attr "" ""
attr source computeTDistribution
12	3580 1235518 6264 194970 10.008464846148 301.885422491973 32768 0 0.15386745514 366.12373481996 16.978796498176
13	1239098 952475 6264 194970 10.008464846148 301.885422491973 32768 0 21 41633 260989
14	2191573 1504861 6264 194970 10.008464846148 301.885422491973 32768 0.0070056044835869 0.0087478130467383 239.77033828971 1.7567644697902
11	3696434 1374899 6261 194971 10.006276113524 301.888206392457 32768 0.007009111845 0.160952475383 605.89377495389 24.089388445495
10	5071333 1374917 6259 194977 10.005231214764 301.895187569655 32768 3.6099e-008 0.096500924816 291.90165072413 5.2073499154391
0	6446250 205239 6258 256717 10 400 6881 8009 9971 65386787 622376284937
1	6651489 160891 6258 256717 10 400 5438 8030 9982 51785887 493928040415
2	6812380 113631 6258 256717 10 400 3953 8018 9982 37503068 356526576140
3	6926011 194279 6258 256717 10 400 6486 8002 9972 61940794 592492982310
4	7120290 133692 6258 256717 10 400 4555 8013 9993 43091284 408564386580
5	7253982 157314 6258 256717 10 400 5321 8016 9988 50479608 479717916442
6	7411296 126612 6258 256717 10 400 4348 8028 9982 41185335 390858268249
7	7537908 141005 6258 256717 10 400 4813 8031 9987 45605364 432945464722
8	7678913 136949 6258 256717 10 400 4684 8029 9995 44540611 424273777729
9	7815862 139790 6258 256717 10 400 4790 8019 9975 45316050 429549131622
10	7955652 457363 194985 256709 301.906881938898 399.984749715246 10690 2.075485e-006 0.093155895855 98.130373617798 1.8051015975744
11	8413015 457480 194974 256714 301.892875643591 399.998728699844 10692 0.007003501751 0.113899964462 179.58790833969 5.9561332159222
12	8870495 409818 194978 256711 301.895187569655 399.991450679466 10691 0 0.106798412266 101.54105669669 3.9060270818251
13	9280313 319499 194978 256711 301.895187569655 399.991450679466 10691 0 13 10829 53879
14	9599812 499766 194978 256711 301.895187569655 399.991450679466 10691 0.0070035017508754 0.0087205680827208 78.033220488071 0.57021346944703
15	10099578 19656 6365 256484 10.195530479815 399.531824074835 448 0.00046858062143858 4.5969873950114 392.60944509323 663.24396395861
16	10119234 16315 6388 255840 10.231100016177 398.599861515051 373 0.0024855087139075 5.8553159328738 390.84022742546 802.17398724391
17	10135549 18188 6486 255866 10.427056730335 398.62556036574 414 0.004703906220746 5.6853850636561 391.58372694686 721.55513685387
18	10153737 18199 6608 256412 10.589143172582 399.384120383163 415 0.0018844320688851 5.4400638357789 389.86273410498 710.29195188133
19	10171936 17694 6850 256277 11.019995833196 399.139608699086 402 0.00012359181449871 7.7512023953318 390.10962708975 845.86750006598
20	10189630 16992 6955 255462 11.167216926612 397.8417113111 387 0.0025859150943617 6.5044674794512 388.92988761984 770.5822460086
21	10206622 16458 7271 255590 11.770581468296 398.054009604438 375 0.0015419235172678 7.2888921875472 388.51856274567 827.55298216986
22	10223080 17183 7772 254964 12.476454100424 396.963073561627 391 0.0027066362142686 6.3651571449549 387.88865806586 753.37949136275
23	10240263 18372 8525 255833 13.481960993213 398.584954438043 418 0.00038836613746553 5.4284265520006 387.88024916169 747.54762606095
24	10258635 16608 9220 255867 14.694997286335 398.628191179598 379 0.00090222306082665 5.2881247296081 386.67360661758 751.94746314648

