version 2
run Exponential-capacity-7-20210215-11:02:29-10844
attr configname Exponential-capacity
attr datetime 20210215-11:02:29
attr experiment Exponential-capacity
attr inifile aerocom.ini
attr iterationvars "$0=35, $1=2"
attr iterationvarsf 35,2-
attr measurement "$0=35, $1=2"
attr network Aerocom
attr processid 10844
attr repetition 0
attr replication #0
attr resultdir results
attr runnumber 7
attr seedset 0
param **.t 1s
param **.k 35ms
param **.X 0.4s
param **.m 2s
param **.tDistribution "\"exponential\""
param **.operationMode 0
param **.s "70 byte"
param **.dimPoolMax 10000
param **.dimPoolMin 8000
param **.nDL 1
param **.nA 1
param **.DLMaxCapacity 0
param **.trasmitting false

vector 0 Aerocom.aircraft[0].dataLink[0] actualCapacity:vector ETV
attr "" ""
attr source computeActualCapacity
vector 1 Aerocom.aircraft[0].packetGenerator arrivalTime:vector ETV
attr "" ""
attr source computeArrivalTime
vector 2 Aerocom.aircraft[0].dataLink[0] tDistribution:vector ETV
attr "" ""
attr source computeTDistribution
vector 3 Aerocom.aircraft[0].linkSelector waitingTime:vector ETV
attr "" ""
attr source computeWaitingTime
vector 4 Aerocom.aircraft[0].linkSelector queueLength:vector ETV
attr "" ""
attr source computeQueueLength
vector 5 Aerocom.aircraft[0].linkSelector serviceTime:vector ETV
attr "" ""
attr source computeServiceTime
vector 6 Aerocom.aircraft[0].linkSelector responseTime:vector ETV
attr "" ""
attr source computeResponseTime
0	1504	10	8763
0	1524	10.4	8799
0	1525	10.407955449483	8804
0	1528	10.415906380878	8808
0	1533	10.423853701496	8812
0	1536	10.431797414614	8817
0	1541	10.439736622962	8821
0	1544	10.44767223117	8825
0	1547	10.455604242501	8829
0	1550	10.463532660215	8834
0	1553	10.471456590484	8838
0	1556	10.479376934453	8842
0	1561	10.487293695367	8847
0	1568	10.502838141564	8855
0	1573	10.739626809762	8983
0	1578	10.80401745724	9018
0	1581	10.811779710511	9022
0	1588	10.891939115416	9065
0	1593	10.962845924015	9103
0	1598	10.970535696617	9107
0	1601	10.978222091698	9112
0	1608	10.995239348549	9121
0	1613	11.028698173386	9139
0	1616	11.03635765473	9143
0	1621	11.044013785103	9147
0	1628	11.092557275235	9173
0	1633	11.158494786266	9209
0	1638	11.228564313609	9247
0	1643	11.286199482155	9278
0	1648	11.30474958289	9288
0	1653	11.334215416551	9304
0	1656	11.341739062295	9308
0	1663	11.357793552961	9316
0	1668	11.365307507448	9321
0	1671	11.372817431276	9325
0	1679	11.503229368264	9279
0	1684	11.545069718084	9256
0	1689	11.561424257908	9246
0	1694	11.582574725423	9234
0	1699	11.601644724908	9224
0	1704	11.646456422041	9198
0	1707	11.654066772117	9194
0	1714	11.718720407134	9157
0	1719	11.734642321702	9148
0	1724	11.864490942419	9075
0	1727	11.872204441042	9071
0	1734	11.932858017541	9036
0	1739	11.942039543362	9031
0	1742	11.949790622977	9027
0	1749	11.993124749349	9002
0	1750	12	8998
0	1789	12.400900799116	9102
0	1790	12.408591416563	9167
0	1793	12.416227502524	9231
0	1796	12.423810646279	9295
0	1799	12.431341576887	9359
0	1802	12.43882100845	9422
0	1805	12.446250428955	9485
0	1808	12.453630502756	9547
0	1811	12.46096264898	9609
0	1814	12.468247486112	9670
0	1819	12.475486369256	9731
0	1822	12.482679874548	9792
0	1827	12.489828567358	9852
0	1831	12.496933723671	9859
0	1834	12.504033835244	9844
0	1837	12.51114476576	9828
0	1840	12.518267272883	9812
0	1843	12.525401394367	9796
0	1846	12.532547168152	9780
0	1853	12.587205430864	9658
0	1858	12.679333091053	9453
0	1863	12.712132946173	9380
0	1868	12.75479083429	9285
0	1873	12.786569575246	9214
0	1876	12.794166710041	9197
0	1888	12.841281156328	9092
0	1893	12.848980232439	9077
0	1903	12.871841655216	9098
0	1913	12.905843530749	9130
0	1916	12.91114476576	9135
0	1927	12.937784759736	9160
0	1933	12.979818741465	9198
0	1938	12.989327123927	9207
0	1946	13.160096775007	9365
0	1955	13.255343963964	9454
0	1961	13.266227837138	9464
0	1967	13.299541876902	9495
0	1974	13.339322754236	9531
0	1980	13.366170542146	9556
0	1987	13.436071561008	9621
0	1992	13.4672698112	9650
0	1998	13.515908508432	9681
0	2003	13.56175099643	9555
0	2011	13.678578698115	9233
0	2016	13.691664725472	9197
0	2022	13.719944027341	9120
0	2027	13.737719306635	9071
0	2032	13.746075657185	9048
0	2038	13.754319017255	9025
0	2043	13.763124968714	9001
0	2046	13.77090188239	8979
0	2054	13.778976164819	8957
0	2062	13.880093810535	8825
0	2067	13.909598067675	8819
0	2073	13.956685227838	8809
0	2079	13.977743992366	8805
0	2083	14	8800
0	2086	14.086160199252	8782
0	2092	14.124349306122	8774
0	2098	14.13337975286	8772
0	2107	14.17331957946	8763
0	2113	14.183592347277	8761
0	2116	14.186791281488	8760
0	2121	14.191582302762	8759
0	2124	14.194782149068	8759
0	2134	14.210784028589	8755
0	2139	14.234203008918	8750
0	2144	14.247281451722	8748
0	2151	14.321784905031	8732
0	2156	14.363499938659	8723
0	2164	14.494634250143	8695
0	2169	14.511238820305	8692
0	2174	14.54488920531	8685
0	2177	14.552949078655	8683
0	2184	14.579187226278	8677
0	2187	14.587254530646	8676
0	2194	14.647554423435	8663
0	2197	14.655634765118	8661
0	2204	14.697658652274	8652
0	2209	14.737472499968	8644
0	2214	14.760265575585	8639
0	2219	14.781425918227	8635
0	2224	14.820988362334	8626
0	2230	14.847907555372	8644
0	2235	14.880599667013	8669
0	2240	14.960044067565	8730
0	2245	15.003941182018	8763
0	2250	15.166329020441	8888
0	2255	15.18851657112	8905
0	2260	15.197073756892	8911
0	2265	15.218382908873	8928
0	2270	15.25645956405	8957
0	2275	15.339371700029	9020
0	2280	15.350067871593	9029
0	2285	15.357820668137	9035
0	2290	15.365568316172	9041
0	2293	15.373310822532	9046
0	2300	15.414789805744	9078
0	2305	15.489464520806	9136
0	2310	15.502963590098	9146
0	2315	15.585138121748	9209
0	2320	15.60206546531	9222
0	2325	15.638390217952	9250
0	2330	15.669452785449	9273
0	2335	15.683192841436	9284
0	2340	15.745427858225	9332
0	2345	15.771095726786	9351
0	2351	15.805798377037	9367
0	2354	15.813271420701	9366
0	2361	15.877929057784	9354
0	2366	15.891010773068	9351
0	2371	15.902195885989	9349
0	2376	15.921591865006	9346
0	2381	15.97758204547	9335
0	2385	16	9331
0	2404	16.4	9256
0	2405	16.407562662057	9254
0	2408	16.415126958577	9253
0	2411	16.422692072594	9251
0	2414	16.430258822135	9250
0	2417	16.437826389703	9248
0	2420	16.445395593855	9247
0	2423	16.452965616565	9246
0	2428	16.46053645801	9244
0	2433	16.468108937456	9243
0	2436	16.475682236169	9241
0	2443	16.513467905667	9234
0	2448	16.587764038555	9220
0	2453	16.598017339602	9218
0	2458	16.611192366905	9216
0	2463	16.619589690085	9214
0	2468	16.730088034035	9193
0	2473	16.755646002318	9189
0	2478	16.777982603514	9184
0	2481	16.785604554734	9183
0	2488	16.822409801824	9176
0	2493	16.830548177467	9174
0	2496	16.838178436896	9173
0	2503	16.855738132883	9170
0	2508	16.901622165769	9161
0	2513	16.918025842428	9158
0	2518	16.954398039708	9151
0	2523	16.97619706555	9147
0	2528	16.984664253117	9145
0	2533	16.996046813746	9143
0	2536	17.003702944119	9142
0	2543	17.034201841483	9136
0	2548	17.091884507544	9125
0	2553	17.161675879589	9112
0	2558	17.209789677972	9103
0	2561	17.217479450574	9102
0	2568	17.253486936103	9095
0	2573	17.278985270599	9090
0	2578	17.290332239571	9088
0	2581	17.29803470436	9086
0	2586	17.305738864607	9085
0	2593	17.34618230479	9077
0	2598	17.388847281871	9069
0	2603	17.406497079535	9066
0	2608	17.428268371703	9062
0	2613	17.457436610126	9056
0	2619	17.521670829229	9030
0	2622	17.529422767213	9023
0	2627	17.537180719114	9017
0	2632	17.544943833232	9010
0	2637	17.552712978626	9003
0	2644	17.572000610468	8987
0	2647	17.579789639065	8980
0	2654	17.59204847095	8970
0	2659	17.636863323339	8932
0	2664	17.735585581534	8848
0	2667	17.743496973939	8841
0	2674	17.787402418914	8804
0	2679	17.835504424419	8763
0	2684	17.883838132767	8722
0	2687	17.89186381495	8715
0	2694	17.969156220133	8649
0	2699	17.977738153375	8642
0	2702	17.985838130232	8635
0	2708	18	8623
0	2740	18.4	8469
0	2741	18.408265438659	8472
0	2744	18.416527950463	8476
0	2747	18.424786563016	8479
0	2750	18.433042253546	8482
0	2753	18.441295024119	8486
0	2756	18.449543904628	8489
0	2759	18.457789869995	8493
0	2766	18.466031951709	8496
0	2769	18.474271123084	8500
0	2772	18.482506417202	8503
0	2775	18.490738805771	8506
0	2780	18.49896829084	8510
0	2783	18.507193907761	8513
0	2786	18.515416625957	8517
0	2789	18.523635482362	8520
0	2792	18.531851444803	8524
0	2795	18.540063551795	8527
0	2802	18.561060995286	8536
0	2807	18.614885000293	8558
0	2812	18.760343988638	8619
0	2817	18.771925834479	8623
0	2822	18.814475001047	8641
0	2827	18.84537582012	8654
0	2830	18.853464565209	8657
0	2835	18.861550507221	8661
0	2842	18.879843144126	8668
0	2847	18.90311141536	8678
0	2852	18.933511215961	8691
0	2857	19.066302048369	8746
0	2862	19.120517457139	8768
0	2867	19.193721937181	8799
0	2872	19.226363352115	8812
0	2877	19.24080889745	8818
0	2882	19.249433451227	8822
0	2887	19.363495685428	8870
0	2892	19.38475046053	8878
0	2897	19.393975659479	8882
0	2903	19.467856766582	9283
0	2909	19.572233790224	9707
0	2914	19.595956860296	9662
0	2919	19.695239267064	9476
0	2924	19.739242561909	9393
0	2929	19.795433618616	9288
0	2934	19.818738105648	9244
0	2939	19.853579333166	9178
0	2944	19.896730149372	9097
0	2949	19.969311800581	8961
0	2954	19.993442009406	8916
0	2955	20	8903
0	2978	20.40129306369	8366
0	2979	20.409660264264	8361
0	2982	20.418032468546	8357
0	2985	20.426408680105	8352
0	2988	20.434789906159	8347
0	2993	20.443176152715	8342
0	2998	20.451567425791	8338
0	3001	20.459962724424	8333
0	3004	20.468363060437	8328
0	3007	20.47676843988	8324
0	3010	20.485177858429	8319
0	3017	20.50161777496	8310
0	3022	20.641896012881	8231
0	3027	20.7889610928	8148
0	3033	20.811738999783	8135
0	3044	20.860762649177	8108
0	3051	20.884840670923	8094
0	3054	20.885177858429	8094
0	3064	20.920689190247	8074
0	3069	20.931679116679	8068
0	3074	20.947771812801	8059
0	3080	20.966268165792	8064
0	3083	20.974948721348	8074
0	3090	20.990986310548	8092
0	3096	21.051418478839	8161
0	3101	21.063794358973	8176
0	3104	21.072356002809	8185
0	3111	21.089108036552	8205
0	3116	21.114169622682	8233
0	3119	21.122671991199	8243
0	3124	21.131164045063	8253
0	3133	21.265727493594	8407
0	3136	21.269396097623	8412
0	3144	21.287569145062	8432
0	3154	21.356935307001	8512
0	3161	21.3864100776	8546
0	3171	21.512723012774	8691
0	3177	21.527457778206	8708
0	3184	21.640856482048	8838
0	3191	21.69529178466	8900
0	3198	21.778255349981	8995
0	3204	21.796804005256	9017
0	3210	21.848864046658	9078
0	3215	21.864444273537	9099
0	3220	21.878625674419	9117
0	3225	21.896475353604	9141
0	3228	21.904133159096	9152
0	3235	21.912010922495	9162
0	3241	21.930314790373	9186
0	3247	21.98255691612	9256
0	3252	21.991806382365	9268
0	3256	22	9279
0	3260	22.083036395446	9354
0	3263	22.090519824995	9357
0	3270	22.101783372734	9361
0	3274	22.109261206299	9364
0	3283	22.210625223038	9403
0	3288	22.255885398096	9420
0	3291	22.256574996206	9420
0	3294	22.263316395973	9423
0	3305	22.283464121494	9431
0	3314	22.334991267024	9451
0	3320	22.347704744686	9455
0	3323	22.355108234903	9458
0	3333	22.428320897232	9486
0	3336	22.435700193036	9489
0	3341	22.443077155835	9492
0	3346	22.450451787103	9495
0	3353	22.484202887667	9508
0	3358	22.523223947434	9523
0	3363	22.581427749758	9545
0	3368	22.591281090544	9549
0	3373	22.611087399501	9556
0	3378	22.630185419518	9564
0	3383	22.679005837712	9582
0	3388	22.707531479293	9593
0	3393	22.769468173105	9617
0	3398	22.838420187901	9643
0	3403	22.855096938292	9650
0	3408	22.900542535538	9667
0	3411	22.907783665154	9670
0	3418	22.915126829481	9673
0	3423	22.925483395045	9677
0	3426	22.932717041836	9679
0	3433	22.961788793176	9690
0	3436	22.969012735384	9693
0	3443	22.986433736454	9700
0	3448	22.998997382597	9705
0	3453	23.022422983117	9714
0	3458	23.03306198769	9718
0	3463	23.054532355826	9726
0	3468	23.075849611762	9734
0	3473	23.101875023474	9744
0	3478	23.142115972045	9759
0	3483	23.162535804031	9767
0	3488	23.204168172828	9783
0	3493	23.271187651845	9809
0	3498	23.282856768688	9813
0	3503	23.302742735619	9821
0	3509	23.319469865182	9825
0	3514	23.380849877758	9785
0	3517	23.388003684605	9781
0	3524	23.412765103882	9765
0	3529	23.467146196453	9730
0	3534	23.474340441057	9725
0	3537	23.481538384502	9720
0	3544	23.510118918256	9702
0	3549	23.551909386227	9675
0	3554	23.560009120245	9670
0	3559	23.612796653352	9636
0	3564	23.678565798549	9593
0	3569	23.731150246329	9559
0	3574	23.77117941805	9533
0	3579	23.78169079586	9527
0	3582	23.789038334435	9522
0	3589	23.804950687729	9512
0	3592	23.812309813044	9507
0	3599	23.838486979194	9490
0	3602	23.845863164652	9485
0	3607	23.853243238453	9481
0	3614	23.927891092827	9432
0	3619	23.944109743791	9422
0	3622	23.951539164296	9417
0	3627	23.958972529487	9412
0	3633	24	9386
0	3658	24.4	9128
0	3659	24.407668711656	9123
0	3664	24.415341626267	9118
0	3667	24.423018748443	9113
0	3670	24.430700082801	9108
0	3673	24.438385633965	9103
0	3678	24.446075406567	9098
0	3681	24.453769405248	9093
0	3686	24.461467634655	9088
0	3689	24.469170099444	9083
0	3692	24.476876804277	9078
0	3695	24.484587753825	9073
0	3698	24.492302952767	9068
0	3701	24.500022405789	9063
0	3704	24.507746117584	9058
0	3711	24.570388225133	9018
0	3714	24.578150478404	9013
0	3721	24.613387165033	8990
0	3726	24.635958962224	8975
0	3729	24.643758405121	8970
0	3736	24.690798755928	8940
0	3741	24.710497637992	8927
0	3746	24.738949080633	8909
0	3751	24.763917530531	8893
0	3754	24.771788890027	8888
0	3761	24.796903228109	8872
0	3764	24.804793219092	8866
0	3771	24.842371061871	8842
0	3777	24.879061180544	8840
0	3782	24.890442161011	8843
0	3787	24.917561644294	8850
0	3790	24.925471248814	8852
0	3797	24.93618202243	8855
0	3802	24.95363625408	8860
0	3805	24.961536931281	8862
0	3812	25.068850706802	8890
0	3815	25.07672472255	8893
0	3820	25.084596082046	8895
0	3825	25.092465671703	8897
0	3833	25.169063079564	8915
0	3838	25.199335913394	8918
0	3843	25.22680520908	8921
0	3846	25.234651863043	8922
0	3853	25.251560020186	8924
0	3858	25.336050595254	8933
0	3863	25.410860354419	8941
0	3866	25.418689456309	8941
0	3873	25.435368096566	8943
0	3878	25.491764716535	8949
0	3883	25.536843385663	8954
0	3888	25.610225655236	8962
0	3893	25.628047742276	8963
0	3896	25.635857627359	8964
0	3903	25.713517362996	8972
0	3908	25.732965424957	8974
0	3913	25.77395965428	8979
0	3918	25.796393728364	8981
0	3923	25.838488710798	8986
0	3928	25.868867660169	8989
0	3933	25.88276549342	8990
0	3938	25.926852934392	8995
0	3943	25.976335350926	9000
0	3946	25.984113128704	9001
0	3952	26	9003
0	3979	26.4	9045
0	3980	26.407739082366	9046
0	3983	26.415477309207	9047
0	3986	26.423214680711	9047
0	3989	26.430952052215	9048
0	3992	26.438688568572	9049
0	3995	26.446424229971	9050
0	3998	26.454159036601	9051
0	4001	26.46189298865	9051
0	4004	26.469626940699	9052
0	4007	26.477360038357	9053
0	4010	26.485092281812	9054
0	4013	26.492823671253	9055
0	4018	26.500554206869	9055
0	4025	26.568601092779	9063
0	4030	26.597161742518	9066
0	4035	26.618548757163	9068
0	4038	26.626268210185	9069
0	4045	26.728326063452	9080
0	4050	26.762346444639	9083
0	4055	26.79235667323	9086
0	4060	26.86193455415	9094
0	4065	26.922101980063	9100
0	4068	26.929794287755	9101
0	4075	27.01193712465	9109
0	4081	27.182859589312	9083
0	4086	27.242017812729	9064
0	4089	27.249740672394	9061
0	4096	27.257466089015	9059
0	4099	27.265193211214	9056
0	4106	27.289372461963	9048
0	4111	27.324514253049	9037
0	4116	27.342301933941	9031
0	4121	27.446664221947	8997
0	4124	27.454444593182	8995
0	4131	27.545552177144	8965
0	4136	27.564861803585	8959
0	4141	27.585619659491	8952
0	4146	27.596096152876	8949
0	4151	27.641625462837	8934
0	4156	27.707800983242	8913
0	4161	27.755251131227	8897
0	4164	27.763118951841	8895
0	4169	27.770988541498	8892
0	4177	27.881052992087	8850
0	4180	27.888962596607	8843
0	4187	27.900885761666	8833
0	4192	27.9214226699	8816
0	4197	27.936863088276	8803
0	4202	27.954265413298	8788
0	4205	27.962230820672	8781
0	4212	27.981405395336	8765
0	4215	27.98939170452	8758
0	4221	28	8749
0	4240	28.4	8408
0	4241	28.408325404377	8401
0	4244	28.416657745765	8394
0	4247	28.424997035734	8387
0	4250	28.433343285883	8379
0	4253	28.441697504764	8372
0	4260	28.450058708777	8365
0	4263	28.458426909614	8358
0	4266	28.466802118994	8351
0	4273	28.475184348667	8344
0	4276	28.483573610412	8337
0	4283	28.491969916038	8330
0	4288	28.500373277383	8322
0	4293	28.508784716941	8315
0	4296	28.517203237687	8308
0	4299	28.525628851553	8301
0	4302	28.534061570503	8294
0	4307	28.542501406529	8286
0	4315	28.604287581029	8443
0	4318	28.612578472892	8469
0	4325	28.631326968959	8526
0	4328	28.639537149583	8551
0	4335	28.65706505971	8605
0	4340	28.676665352777	8664
0	4345	28.713392328584	8777
0	4348	28.721367718808	8801
0	4355	28.743389464993	8868
0	4360	28.753549034522	8899
0	4363	28.761415086887	8923
0	4368	28.769259982102	8947
0	4375	28.793827618028	9022
0	4380	28.804045730539	9054
0	4385	28.855650508406	9211
0	4388	28.863250117569	9234
0	4395	28.877086041571	9277
0	4398	28.884631584311	9300
0	4405	28.901147320604	9350
0	4408	28.90863395162	9373
0	4415	29.045357067545	9791
0	4421	29.079082811915	9873
0	4426	29.088902969331	9866
0	4431	29.216987643477	9764
0	4436	29.233399889932	9751
0	4441	29.39580968979	9623
0	4444	29.403083928593	9617
0	4451	29.415856489203	9607
0	4456	29.428847149431	9597
0	4459	29.436141095456	9591
0	4466	29.497405549577	9543
0	4471	29.533043164835	9514
0	4476	29.590624584783	9469
0	4481	29.614212605331	9450
0	4486	29.64997274749	9422
0	4491	29.809146582305	9296
0	4496	29.825212559767	9283
0	4499	29.8327532255	9277
0	4506	29.840703423267	9271
0	4511	29.894216283742	9229
0	4516	29.950869421067	9184
0	4521	29.962777723753	9175
0	4524	29.970407151546	9169
0	4529	29.978041571875	9163
0	4535	30	9145
0	4558	30.4	8829
0	4559	30.407928417714	8823
0	4564	30.415862227076	8816
0	4567	30.423802335969	8810
0	4572	30.431747852428	8804
0	4575	30.439698783823	8798
0	4580	30.44765513754	8791
0	4583	30.455617826654	8785
0	4586	30.463585954144	8779
0	4589	30.471559527444	8772
0	4592	30.479539463605	8766
0	4595	30.487524861734	8760
0	4598	30.495515729314	8753
0	4603	30.503512987397	8747
0	4606	30.511515731195	8741
0	4613	30.544407218685	8715
0	4618	30.591316877354	8678
0	4623	30.610073335191	8663
0	4628	30.630816344819	8646
0	4633	30.64646624141	8634
0	4638	30.767938819229	8538
0	4643	30.829681877956	8489
0	4648	30.845475235903	8477
0	4653	30.936119150995	8405
0	4659	30.953854463481	8429
0	4662	30.962159125956	8479
0	4669	31.002473628909	8719
0	4674	31.011741008476	8774
0	4679	31.032607024675	8898
0	4684	31.047604790821	8987
0	4690	31.14452484772	9556
0	4695	31.203577487827	9588
0	4700	31.213985561304	9594
0	4706	31.362141114176	9594
0	4711	31.378971852027	9593
0	4716	31.500521801734	9587
0	4721	31.542328949757	9585
0	4726	31.62469566664	9581
0	4731	31.704275417474	9577
0	4736	31.716587275964	9577
0	4739	31.723896454204	9576
0	4746	31.890143832254	9568
0	4751	31.899820377333	9568
0	4756	31.909862195671	9567
0	4761	31.918931124627	9567
0	4764	31.926247942856	9566
0	4771	31.946382585138	9565
0	4775	32	9563
0	4796	32.4	9543
0	4797	32.407335219533	9543
0	4800	32.414670439066	9543
0	4803	32.422005658599	9542
0	4808	32.429341646861	9542
0	4811	32.436677635123	9542
0	4814	32.444013623385	9541
0	4817	32.451350380538	9541
0	4820	32.458687137691	9541
0	4825	32.466023894844	9540
0	4830	32.473361421049	9540
0	4835	32.480698947254	9539
0	4838	32.488037242673	9539
0	4843	32.495375538092	9539
0	4846	32.502713833511	9538
0	4853	32.51053752345	9538
0	4858	32.526948258897	9537
0	4863	32.540673904034	9537
0	4868	32.589024971829	9534
0	4873	32.628917811062	9532
0	4878	32.638422263771	9532
0	4883	32.69397976681	9529
0	4886	32.701325763242	9529
0	4893	32.725116124985	9528
0	4898	32.745995372076	9527
0	4903	32.75829161693	9526
0	4908	32.770999376336	9525
0	4913	32.846992282183	9522
0	4918	32.910955701557	9519
0	4923	32.926133971495	9518
0	4928	32.93563542032	9517
0	4933	32.982566980681	9515
0	4938	33.00699479489	9514
0	4943	33.035362055041	9512
0	4948	33.135371942215	9508
0	4953	33.1432484295	9507
0	4958	33.1784274772	9506
0	4963	33.206260254246	9504
0	4968	33.276945711859	9501
0	4973	33.302608598713	9499
0	4978	33.401200509262	9495
0	4983	33.416212423514	9494
0	4988	33.464839971257	9492
0	4991	33.472214602525	9491
0	4998	33.507801961672	9489
0	5001	33.515178924471	9489
0	5008	33.633874993596	9483
0	5011	33.641256623882	9483
0	5018	33.820303282348	9474
0	5023	33.863378442134	9472
0	5028	33.884418854757	9471
0	5033	33.927632650419	9469
0	5036	33.93502519451	9469
0	5043	33.963318934573	9467
0	5048	33.975444101035	9467
0	5052	34	9466
0	5079	34.4	9446
0	5080	34.407410544146	9446
0	5083	34.414821088292	9445
0	5086	34.422232417037	9445
0	5089	34.429643745782	9445
0	5092	34.437055074527	9444
0	5095	34.444467188038	9444
0	5098	34.451879301549	9444
0	5101	34.45929141506	9443
0	5104	34.466704313503	9443
0	5107	34.474117211946	9442
0	5110	34.481530895488	9442
0	5113	34.48894457903	9442
0	5120	34.496358262572	9441
0	5123	34.503772731378	9441
0	5130	34.519339452943	9440
0	5135	34.655521306107	9434
0	5140	34.666768216707	9433
0	5143	34.674188973624	9433
0	5150	34.703790623621	9431
0	5155	34.714267978724	9431
0	5161	34.793742832483	9483
0	5166	34.802238922791	9489
0	5171	34.820512818445	9502
0	5176	34.850868039104	9524
0	5181	34.878977826121	9544
0	5186	35.009157117002	9638
0	5191	35.020251325298	9646
0	5196	35.031410761992	9654
0	5201	35.052683228736	9669
0	5206	35.175500453021	9757
0	5211	35.193479449485	9770
0	5214	35.200644239659	9775
0	5219	35.207805364979	9780
0	5226	35.281015978268	9833
0	5231	35.305689204516	9851
0	5236	35.348847309969	9882
0	5241	35.361853861388	9891
0	5246	35.373243446489	9899
0	5251	35.389583698514	9911
0	5257	35.468420948966	9894
0	5262	35.494474188115	9869
0	5265	35.501567105331	9863
0	5272	35.544018714383	9823
0	5277	35.578407206378	9791
0	5282	35.592607628413	9777
0	5287	35.60660046295	9764
0	5292	35.696869422528	9679
0	5298	35.816391794113	9026
0	5304	35.885790234423	8571
0	5307	35.893957309443	8561
0	5312	35.902133924324	8550
0	5319	35.97511224825	8455
0	5324	35.985351519292	8442
0	5329	35.999364872893	8424
0	5330	36	8423
0	5357	36.407674464536	8666
0	5358	36.415752008962	8683
0	5361	36.423813738779	8700
0	5364	36.43185971579	8717
0	5369	36.439890001439	8735
0	5372	36.447903739275	8752
0	5375	36.455901911121	8769
0	5378	36.463884577332	8786
0	5381	36.47185179791	8803
0	5386	36.479803632512	8820
0	5389	36.487740140449	8837
0	5392	36.495661380689	8854
0	5395	36.503567411861	8871
0	5402	36.553704252732	8979
0	5407	36.561730353739	8996
0	5412	36.60129635568	9081
0	5417	36.615929563743	9112
0	5422	36.651592925081	9189
0	5427	36.691064540256	9274
0	5432	36.718885089518	9333
0	5438	36.792871828031	9241
0	5443	36.804015583593	9210
0	5450	36.831475067985	9132
0	5454	36.839140420591	9111
0	5463	36.848721133568	9084
0	5477	36.916622820914	9394
0	5480	36.924074385743	9446
0	5487	36.952977856886	9650
0	5495	36.996344134644	9748
0	5500	37.008809936999	9747
0	5504	37.015991633931	9746
0	5512	37.030667732225	9745
0	5517	37.04698812815	9743
0	5520	37.054172773536	9742
0	5528	37.074323109094	9740
0	5534	37.102903853204	9737
0	5541	37.192240530478	9740
0	5547	37.207923609371	9747
0	5550	37.211616017904	9748
0	5558	37.23565538315	9759
0	5565	37.25388264342	9767
0	5571	37.261049634308	9770
0	5574	37.268214424482	9773
0	5581	37.279981369065	9778
0	5586	37.294663145386	9784
0	5595	37.377483304621	9774
0	5601	37.411554843649	9768
0	5604	37.415991633931	9767
0	5613	37.423306387648	9766
0	5623	37.544735172005	9742
0	5628	37.552974377333	9741
0	5633	37.594066832121	9733
0	5636	37.599427388794	9732
0	5641	37.602035451532	9731
0	5651	37.632160466295	9725
0	5657	37.644136580502	9723
0	5665	37.685728101112	9715
0	5672	37.71283618869	9710
0	5677	37.751847573795	9702
0	5683	37.796923732164	9694
0	5691	37.900986024046	9674
0	5696	37.918221472219	9670
0	5699	37.925460355363	9669
0	5704	37.932699987176	9668
0	5713	37.96379623942	9662
0	5718	37.985031173744	9658
0	5723	38	9634
0	5728	38.017135686636	9606
0	5737	38.14238324704	9401
0	5743	38.173481751971	9350
0	5749	38.236295310961	9247
0	5758	38.35146802002	9058
0	5766	38.437660569449	8917
0	5769	38.445510743274	8904
0	5776	38.476772514847	8853
0	5781	38.518503566945	8785
0	5786	38.538838869886	8751
0	5791	38.597648753889	8655
0	5796	38.638090369395	8589
0	5801	38.663043846164	8548
0	5806	38.699647731412	8488
0	5811	38.713872181748	8464
0	5814	38.722142503109	8451
0	5821	38.769668774413	8373
0	5826	38.857864878698	8229
0	5829	38.866371380095	8215
0	5836	38.888811395842	8178
0	5842	38.909232501873	8197
0	5847	39.074656333763	8492
0	5852	39.100341782609	8538
0	5857	39.117248638458	8568
0	5862	39.15868960923	8642
0	5867	39.216206972462	8745
0	5870	39.224211546504	8759
0	5877	39.241173762563	8789
0	5882	39.250219836268	8806
0	5887	39.311590520408	8915
0	5892	39.330075560083	8948
0	5897	39.357187040855	8996
0	5902	39.391357261659	9057
0	5907	39.467752247784	9194
0	5912	39.544052963434	9330
0	5917	39.618293369424	9463
0	5922	39.652050861086	9523
0	5927	39.665979054899	9548
0	5930	39.673310433198	9561
0	5937	39.689130734215	9589
0	5943	39.827081788177	9047
0	5948	39.854615697218	8878
0	5953	39.926507534153	8434
0	5958	39.96052924805	8224
0	5964	39.984980372893	8079
0	5968	40	8107
0	5989	40.4	8331
0	5990	40.408402352659	8329
0	5993	40.416806722932	8328
0	5996	40.425212102375	8327
0	5999	40.433618491231	8326
0	6002	40.442025889742	8324
0	6005	40.450435308291	8323
0	6008	40.458845737223	8322
0	6011	40.467257176781	8320
0	6016	40.475670638319	8319
0	6021	40.484085111212	8318
0	6028	40.564559210551	8306
0	6033	40.572986853219	8304
0	6040	40.581416525666	8303
0	6043	40.589847213369	8302
0	6048	40.598278916573	8301
0	6051	40.606711635523	8299
0	6056	40.615146386698	8298
0	6061	40.623582154353	8297
0	6068	40.727684683805	8281
0	6073	40.756641091131	8277
0	6078	40.769126159975	8275
0	6083	40.85201442183	8262
0	6086	40.860486946642	8261
0	6093	40.888507710936	8257
0	6098	40.964605862686	8245
0	6103	40.996495965968	8240
0	6108	41.017191563463	8237
0	6113	41.026706867813	8236
0	6118	41.110168404826	8223
0	6123	41.140604942455	8218
0	6126	41.149122830019	8217
0	6131	41.157641754201	8216
0	6138	41.190109003138	8211
0	6143	41.204421116662	8209
0	6148	41.224731252241	8206
0	6153	41.259109588695	8201
0	6156	41.267645133141	8199
0	6163	41.277586069854	8198
0	6168	41.319314898327	8191
0	6173	41.403981697123	8179
0	6178	41.413929388146	8177
0	6183	41.48770170069	8166
0	6186	41.496273829027	8165
0	6193	41.509046719893	8163
0	6196	41.51762199859	8161
0	6203	41.536725520344	8158
0	6206	41.545306054789	8157
0	6213	41.561461709098	8155
0	6218	41.64486909866	8142
0	6221	41.653466494877	8141
0	6228	41.699133542136	8134
0	6233	41.719101251719	8131
0	6238	41.799020042924	8119
0	6242	41.807641794371	8122
0	6249	41.845367808016	8370
0	6254	41.889327653973	8659
0	6259	41.915674591794	8833
0	6264	41.941583418494	9003
0	6269	41.954290068898	9087
0	6274	41.96781736527	9176
0	6278	42	9388
0	6296	42.4	9590
0	6297	42.407299270073	9586
0	6300	42.41460158595	9583
0	6303	42.421906187849	9579
0	6306	42.429213840005	9576
0	6309	42.436523781525	9572
0	6312	42.443836777764	9569
0	6317	42.451152066718	9565
0	6320	42.458470414862	9561
0	6327	42.567179428412	9509
0	6330	42.574540875462	9506
0	6337	42.612056550506	9487
0	6342	42.625968318303	9481
0	6347	42.638110829213	9475
0	6352	42.678029185837	9456
0	6357	42.685855152879	9452
0	6360	42.693260992913	9448
0	6367	42.779128992314	9407
0	6372	42.811839306886	9391
0	6377	42.824788578177	9385
0	6382	42.847517953615	9374
0	6387	42.865585074538	9365
0	6392	42.877277702445	9360
0	6397	42.912367386736	9343
0	6403	42.921899679658	9327
0	6408	42.999362632762	9121
0	6413	43.024653711076	9054
0	6418	43.044488279671	9001
0	6423	43.060544575264	8959
0	6428	43.152739174122	8713
0	6433	43.174080850172	8657
0	6438	43.205464854452	8573
0	6443	43.219874374678	8535
0	6448	43.239658309524	8482
0	6454	43.362968606467	8279
0	6459	43.394412689292	8448
0	6462	43.40269867414	8493
0	6469	43.414746384758	8558
0	6472	43.422925865945	8602
0	6479	43.455762819364	8779
0	6484	43.470486187898	8858
0	6489	43.507461622694	9058
0	6495	43.538755328778	9181
0	6500	43.599109044769	9148
0	6505	43.636782710849	9128
0	6510	43.654823375099	9118
0	6515	43.672542613947	9108
0	6518	43.680228165111	9104
0	6525	43.927054117717	8970
0	6529	44	8930
0	6549	44.4	9102
0	6550	44.407690617447	9110
0	6553	44.415374481333	9119
0	6556	44.423050761627	9127
0	6559	44.430720313506	9136
0	6562	44.438382310003	9144
0	6565	44.446037603091	9152
0	6568	44.45368620449	9161
0	6571	44.461327291708	9169
0	6578	44.525990602324	9240
0	6583	44.555049724961	9272
0	6589	44.632238753094	9374
0	6594	44.742313667439	9653
0	6599	44.792934432464	9782
0	6602	44.800090433282	9800
0	6609	44.839085770411	9899
0	6615	44.850207697359	9906
0	6620	44.864512815257	9881
0	6623	44.871597118465	9869
0	6628	44.878690035681	9857
0	6635	44.923828800798	9779
0	6640	44.930986996933	9766
0	6645	44.938154721692	9754
0	6650	44.945331264649	9742
0	6653	44.952516647527	9729
0	6660	44.96153481341	9714
0	6665	44.972103238532	9695
0	6670	44.997938024521	9651
0	6675	45.069638435002	9527
0	6680	45.121549504283	9437
0	6683	45.128967115812	9425
0	6690	45.240046062191	9233
0	6695	45.25992213145	9198
0	6698	45.267532481526	9185
0	6705	45.278052494724	9167
0	6708	45.285688580685	9154
0	6715	45.312660919291	9107
0	6720	45.343840802357	9054
0	6725	45.440308260069	8887
0	6731	45.488190150817	8825
0	6736	45.587118489787	8849
0	6741	45.653088751284	8864
0	6744	45.660985863197	8866
0	6751	45.751095360217	8887
0	6756	45.782835568973	8895
0	6761	45.926333269216	8929
0	6765	46	8947
0	6796	46.4	9042
0	6797	46.407741650077	9043
0	6800	46.415482444061	9045
0	6805	46.423221526427	9047
0	6808	46.430958897931	9049
0	6811	46.43869455933	9051
0	6814	46.446428511379	9053
0	6817	46.454160754834	9055
0	6822	46.46189129045	9056
0	6825	46.469620972429	9058
0	6828	46.477348947699	9060
0	6831	46.485075217015	9062
0	6836	46.492799781129	9064
0	6840	46.500522640794	9065
0	6845	46.508244648516	9061
0	6850	46.515970065137	9056
0	6857	46.523699747116	9051
0	6860	46.531433699165	9046
0	6863	46.539171926006	9041
0	6866	46.546914432366	9036
0	6869	46.554661222981	9031
0	6872	46.562412302596	9026
0	6879	46.670173779051	8958
0	6884	46.738883094185	8915
0	6889	46.818297012217	8865
0	6892	46.826193233311	8860
0	6897	46.834093910512	8855
0	6904	46.853738208242	8842
0	6909	46.876170248054	8828
0	6912	46.884099563867	8823
0	6919	46.903349978066	8811
0	6924	46.924726374186	8797
0	6929	46.949578836284	8782
0	6934	47.086433763222	8695
0	6939	47.206103540816	8620
0	6944	47.225393369007	8607
0	6947	47.233526284076	8602
0	6954	47.297181834116	8562
0	6959	47.305357494009	8557
0	6962	47.313537931078	8552
0	6969	47.326103218876	8544
0	6974	47.337178177568	8537
0	6979	47.358632031972	8523
0	6984	47.376732874419	8512
0	6989	47.386120682684	8506
0	6994	47.403988622842	8495
0	6997	47.412228764102	8489
0	7004	47.445062456754	8469
0	7007	47.453327895413	8463
0	7014	47.46448400533	8456
0	7019	47.532496024801	8413
0	7025	47.576279227924	8415
0	7030	47.594138726846	8442
0	7035	47.629817558428	8495
0	7040	47.646627771911	8520
0	7045	47.664457769769	8547
0	7048	47.672647777959	8559
0	7055	47.68501782981	8578
0	7060	47.701454110934	8603
0	7065	47.734819118527	8652
0	7070	47.772743305117	8709
0	7073	47.780780967306	8721
0	7080	47.809647338847	8765
0	7085	47.870136416901	8855
0	7090	47.956002121354	8984
0	7095	47.993089694366	9039
0	7096	48	9050
0	7131	48.400833913859	9291
0	7132	48.408368086714	9288
0	7135	48.415904693088	9284
0	7138	48.423444546599	9280
0	7141	48.430987650047	9276
0	7146	48.438534006235	9272
0	7149	48.446083617969	9268
0	7154	48.45363648806	9264
0	7159	48.461192619321	9261
0	7162	48.468751198308	9257
0	7165	48.476313043398	9253
0	7170	48.483878157415	9249
0	7173	48.491446543186	9245
0	7176	48.499018203543	9241
0	7179	48.50659314132	9237
0	7184	48.514171359356	9234
0	7189	48.521752039451	9230
0	7192	48.529336004781	9226
0	7195	48.536923258195	9222
0	7198	48.544513802545	9218
0	7201	48.552107640688	9214
0	7206	48.559704775483	9210
0	7213	48.597544380405	9191
0	7218	48.632798924499	9173
0	7221	48.640430015745	9169
0	7228	48.745769878852	9115
0	7235	48.822798469455	9076
0	7239	48.830511118199	9072
0	7251	48.866727315909	9054
0	7266	48.937380547506	9018
0	7276	49.015055890768	8978
0	7281	49.02285272748	8974
0	7284	49.030653039492	8970
0	7292	49.042928915544	8964
0	7298	49.139812417563	8914
0	7304	49.15793973814	8905
0	7311	49.269149809891	8848
0	7317	49.29514514113	8835
0	7323	49.350837220347	8807
0	7328	49.366737285544	8798
0	7337	49.536052846261	8712
0	7340	49.54408774066	8708
0	7348	49.558812483581	8700
0	7351	49.565800490526	8697
0	7359	49.625502296002	8666
0	7364	49.651056566711	8653
0	7370	49.7025980169	8627
0	7377	49.767351139595	8594
0	7384	49.811970940434	8580
0	7389	49.82832130336	8581
0	7394	49.863444656936	8583
0	7399	49.872269545611	8584
0	7404	49.885123931473	8585
0	7407	49.893277688025	8586
0	7414	49.915034620002	8587
0	7417	49.923186477461	8588
0	7422	49.931337385705	8588
0	7429	49.939488293949	8589
0	7436	49.94408774066	8589
0	7437	49.947638253199	8590
0	7440	49.952126325869	8590
0	7445	49.953805029122	8590
0	7450	49.959258700636	8590
0	7455	49.961654061274	8591
0	7468	49.986890895429	8592
0	7471	49.995038009023	8593
0	7476	50	8593
0	7480	50.033579840428	8596
0	7486	50.065976630211	8598
0	7491	50.082119532427	8600
0	7494	50.090259067311	8600
0	7499	50.098398602195	8601
0	7507	50.119003357723	8602
0	7513	50.203750140349	8608
0	7520	50.255718632941	8612
0	7531	50.331402805936	8618
0	7539	50.352737377266	8620
0	7551	50.432387576674	8625
0	7554	50.440503518703	8626
0	7562	50.45234608521	8627
0	7565	50.460460145718	8627
0	7576	50.503819083126	8630
0	7582	50.523676967314	8623
0	7588	50.543163945714	8617
0	7593	50.569458478792	8609
0	7598	50.582026827691	8605
0	7603	50.597074104787	8600
0	7606	50.605213639671	8597
0	7614	50.652860200588	8582
0	7620	50.672037135908	8576
0	7625	50.720700762361	8561
0	7630	50.737904849917	8555
0	7637	50.829611905108	8526
0	7642	50.837822085732	8523
0	7645	50.840503518703	8522
0	7654	50.851847537217	8519
0	7662	50.930961552875	8494
0	7666	50.939202664248	8491
0	7674	50.951927317823	8487
0	7683	51.023633147598	8464
0	7690	51.097370872004	8440
0	7696	51.135919734745	8428
0	7702	51.176999855221	8415
0	7705	51.185318334128	8412
0	7716	51.337442723334	8364
0	7724	51.425018252723	8336
0	7730	51.47486283827	8320
0	7735	51.505198775743	8310
0	7741	51.521068245385	8305
0	7746	51.542369922777	8298
0	7752	51.566704575112	8291
0	7760	51.602691761252	8313
0	7765	51.619219767455	8350
0	7770	51.629476989878	8373
0	7775	51.645366690514	8408
0	7780	51.673398494414	8471
0	7785	51.683979979246	8494
0	7788	51.692221090619	8512
0	7795	51.712910005649	8559
0	7798	51.721088531178	8577
0	7806	51.760813638405	8665
0	7811	51.786071694574	8721
0	7816	51.797440282737	8747
0	7819	51.805443026535	8765
0	7826	51.827040304734	8813
0	7833	51.893874730382	8961
0	7836	51.901686358548	8979
0	7844	51.915864774447	9010
0	7847	51.923633919841	9028
0	7853	51.931387575136	9045
0	7858	51.939126657502	9062
0	7866	51.963744593034	9117
0	7871	52	9198
0	7879	52.087338042051	9374
0	7888	52.135418216315	9384
0	7891	52.142877721856	9386
0	7898	52.16841924125	9391
0	7902	52.175873186517	9392
0	7911	52.205584682414	9398
0	7918	52.238799204551	9405
0	7921	52.246242054099	9407
0	7926	52.25368332124	9408
0	7933	52.288878499944	9415
0	7944	52.363645287365	9430
0	7951	52.495374115139	9457
0	7956	52.53988046522	9466
0	7961	52.572710749266	9473
0	7966	52.691463324278	9497
0	7971	52.705395459453	9500
0	7976	52.730194222093	9505
0	7981	52.78699887269	9517
0	7986	52.799502685524	9519
0	7991	52.862856570925	9532
0	7996	52.890765517579	9538
0	8001	52.909547290483	9541
0	8006	53.003033164556	9560
0	8011	53.021834595354	9564
0	8017	53.047579081777	9567
0	8022	53.144128728079	9573
0	8027	53.155009950288	9574
0	8032	53.199837821595	9577
0	8037	53.273296466595	9582
0	8040	53.28060183082	9582
0	8047	53.290745384195	9583
0	8052	53.310171494581	9584
0	8057	53.317475334314	9584
0	8062	53.324779174047	9585
0	8065	53.332082251773	9585
0	8072	53.45809900509	9594
0	8077	53.471506387438	9594
0	8082	53.501472202947	9596
0	8087	53.569981846675	9601
0	8092	53.606099071277	9603
0	8097	53.627568703591	9605
0	8102	53.643433660069	9606
0	8107	53.664015193478	9607
0	8112	53.702576860584	9610
0	8117	53.716913811187	9610
0	8122	53.746603149531	9612
0	8127	53.821010719479	9617
0	8132	53.873169437513	9621
0	8137	53.974701253954	9627
0	8141	54	9629
0	8152	54.4	9655
0	8153	54.407250129467	9656
0	8156	54.414499508092	9656
0	8159	54.421748886717	9656
0	8162	54.428998265342	9657
0	8169	54.45601969725	9659
0	8172	54.463266824282	9659
0	8179	54.513312433513	9662
0	8184	54.553796908652	9665
0	8189	54.593208756571	9668
0	8194	54.602405195919	9668
0	8200	54.612236386361	9667
0	8205	54.639328907855	9663
0	8210	54.6478664463	9661
0	8215	54.699770024053	9652
0	8218	54.707022406979	9650
0	8225	54.754170636875	9642
0	8230	54.843798423892	9626
0	8235	54.888531444178	9618
0	8240	54.900720146374	9616
0	8245	54.923802744376	9611
0	8250	54.944924502111	9608
0	8255	54.952473996556	9606
0	8260	54.976313731289	9602
0	8265	54.984368133174	9600
0	8270	55.037072923182	9591
0	8275	55.063908311556	9586
0	8280	55.128987541591	9574
0	8285	55.149144845641	9571
0	8288	55.156458605959	9570
0	8295	55.283482447072	9547
0	8300	55.302967040315	9543
0	8305	55.315491883846	9541
0	8310	55.380262381477	9529
0	8313	55.387608377909	9528
0	8320	55.442779177423	9518
0	8325	55.488203457343	9510
0	8328	55.495564130319	9509
0	8335	55.62169474199	9486
0	8338	55.629074037794	9485
0	8345	55.68097519991	9475
0	8350	55.693669389677	9473
0	8355	55.703600643266	9471
0	8360	55.710991626267	9470
0	8363	55.718383389731	9469
0	8370	55.726994476208	9467
0	8375	55.745279499725	9464
0	8378	55.752675949429	9462
0	8385	55.822823898174	9450
0	8390	55.852218070722	9444
0	8395	55.872014872958	9441
0	8400	55.881923436973	9439
0	8405	55.893620276497	9437
0	8410	55.925379728695	9431
0	8414	56	9418
0	8431	56.4	9346
0	8432	56.407489835224	9345
0	8435	56.414980471928	9343
0	8438	56.422472712108	9342
0	8441	56.429965754283	9341
0	8444	56.437459598625	9339
0	8447	56.444955047817	9338
0	8452	56.452451299691	9337
0	8457	56.459948354419	9335
0	8460	56.467447015372	9334
0	8467	56.495416444024	9329
0	8472	56.505503904901	9327
0	8477	56.514401068096	9325
0	8482	56.537517654396	9321
0	8489	56.545027578224	9320
0	8492	56.552538307838	9319
0	8495	56.56004984341	9317
0	8502	56.575814929195	9314
0	8507	56.667613822461	9298
0	8512	56.685980438004	9295
0	8517	56.727329626955	9287
0	8522	56.74391478222	9284
0	8527	56.786659588412	9276
0	8532	56.844668396635	9266
0	8537	56.876395941338	9260
0	8542	56.91960532678	9253
0	8547	56.946574133007	9248
0	8552	57.054598032868	9228
0	8557	57.07587913977	9224
0	8562	57.091060956403	9222
0	8567	57.123148041912	9216
0	8572	57.20288888291	9202
0	8577	57.24004324898	9195
0	8582	57.291476915035	9186
0	8587	57.307817441246	9183
0	8592	57.323296932861	9180
0	8597	57.361913318456	9173
0	8602	57.395932492214	9167
0	8607	57.41729766622	9163
0	8612	57.429214402924	9161
0	8615	57.436855490142	9160
0	8622	57.504938884179	9147
0	8627	57.514231210672	9146
0	8632	57.52188482974	9144
0	8635	57.529540122828	9143
0	8640	57.537196253201	9142
0	8645	57.544853221042	9140
0	8650	57.552511864368	9139
0	8657	57.583487658293	9133
0	8662	57.601543518581	9130
0	8667	57.617583128288	9127
0	8672	57.665442328453	9118
0	8677	57.71078331169	9110
0	8682	57.736979559912	9106
0	8687	57.776648149022	9098
0	8692	57.800056102968	9094
0	8697	57.807753485858	9093
0	8702	57.815451715265	9091
0	8705	57.823151638266	9090
0	8712	57.831377492752	9089
0	8717	57.839079110092	9087
0	8722	57.846782422516	9086
0	8725	57.854486582763	9084
0	8730	57.862192439214	9083
0	8737	57.869913103144	9082
0	8742	57.964205122118	9065
0	8745	57.97192712984	9063
0	8750	57.979650841635	9062
0	8756	58	9058
0	8781	58.4	8986
0	8782	58.407789895393	8985
0	8785	58.415580657775	8984
0	8788	58.423372287339	8982
0	8791	58.431165651846	8981
0	8796	58.438959884114	8979
0	8799	58.446755852485	8978
0	8802	58.454552689197	8977
0	8805	58.462350394444	8975
0	8808	58.470149837341	8974
0	8813	58.477950149353	8972
0	8816	58.485752200178	8971
0	8819	58.4935551207	8970
0	8824	58.501358911112	8968
0	8827	58.509164441888	8967
0	8834	58.559766754855	8958
0	8837	58.567580999106	8956
0	8844	58.583526070348	8953
0	8847	58.591344678636	8952
0	8854	58.671814399219	8938
0	8859	58.679646128912	8936
0	8862	58.687479611455	8935
0	8869	58.701987168065	8932
0	8874	58.714117013385	8930
0	8879	58.76335958247	8921
0	8884	58.807300355972	8913
0	8887	58.815154052819	8912
0	8894	58.827400087665	8910
0	8899	58.84875256536	8906
0	8902	58.856612435111	8904
0	8909	58.916362267622	8894
0	8912	58.924232742099	8892
0	8919	58.958987071073	8886
0	8924	59.018491408597	8875
0	8929	59.046123089416	8870
0	8934	59.068552001918	8866
0	8939	59.099656642884	8861
0	8944	59.174538356188	8847
0	8949	59.253918019867	8833
0	8954	59.300173673583	8825
0	8960	59.330128396334	8797
0	8965	59.348579303973	8781
0	8970	59.367754708262	8763
0	8975	59.384121550966	8748
0	8980	59.426606670673	8710
0	8985	59.451978990944	8687
0	8990	59.467446652555	8673
0	8995	59.544403437693	8603
0	9000	59.670706363286	8488
0	9005	59.717489499642	8445
0	9010	59.78952269086	8380
0	9015	59.797875912817	8372
0	9018	59.80623711683	8364
0	9025	59.837130733701	8336
0	9030	59.877465119379	8300
0	9035	59.965650774942	8219
0	9038	59.97416762614	8212
0	9044	60	8188
0	9071	60.4	8916
0	9072	60.407851054284	8979
0	9075	60.415647022655	9042
0	9078	60.423388672732	9105
0	9081	60.431076756203	9167
0	9084	60.438712842164	9229
0	9087	60.446297629248	9290
0	9090	60.453832613102	9351
0	9093	60.461318443494	9412
0	9098	60.468755757561	9472
0	9102	60.476145960264	9493
0	9105	60.483519814683	9482
0	9108	60.490902223458	9470
0	9113	60.498293986922	9459
0	9120	60.508580295274	9442
0	9125	60.549997178592	9378
0	9130	60.564520658987	9355
0	9133	60.572003288597	9343
0	9140	60.600541179115	9298
0	9145	60.623223641704	9263
0	9151	60.73880008004	9311
0	9156	60.769631846645	9330
0	9159	60.777134526173	9335
0	9166	60.785468075332	9340
0	9171	60.795861222389	9346
0	9176	60.803715474513	9351
0	9181	60.876094155544	9394
0	9186	60.911644099101	9416
0	9191	60.935341259033	9430
0	9196	60.985398936222	9460
0	9201	61.065627673127	9509
0	9206	61.081199119541	9518
0	9209	61.088553605778	9523
0	9216	61.131574019119	9549
0	9221	61.158199100183	9565
0	9226	61.189181689746	9584
0	9231	61.203004074969	9592
0	9236	61.261054843511	9627
0	9241	61.274375524987	9635
0	9246	61.282364156799	9640
0	9251	61.303090274938	9652
0	9256	61.358795648896	9686
0	9261	61.37865928933	9698
0	9266	61.38950236404	9705
0	9271	61.404977620058	9714
0	9276	61.417374571551	9721
0	9281	61.503641176326	9774
0	9286	61.637501114301	9854
0	9291	61.683554612413	9882
0	9294	61.690638198732	9887
0	9301	61.730713436696	9911
0	9306	61.738078028309	9915
0	9311	61.750060922759	9922
0	9316	61.775813689204	9938
0	9321	61.805985846159	9956
0	9326	61.822491696375	9966
0	9332	61.875355865029	9964
0	9337	61.885057985377	9961
0	9342	61.940625010442	9942
0	9347	61.98100674216	9928
0	9352	61.995790862889	9923
0	9353	62	9921
0	9369	62.40284518114	9783
0	9370	62.410000450485	9781
0	9373	62.417157182925	9778
0	9376	62.424316111131	9776
0	9379	62.43147650393	9773
0	9382	62.438639094741	9771
0	9389	62.536743229374	9737
0	9394	62.607076030959	9713
0	9399	62.622854374331	9708
0	9404	62.643230711191	9701
0	9407	62.650446462145	9698
0	9414	62.668172424559	9692
0	9419	62.681944308453	9688
0	9424	62.702764977409	9680
0	9429	62.726809824666	9672
0	9434	62.756173889569	9662
0	9437	62.763418766406	9660
0	9444	62.796761438829	9648
0	9447	62.804016828547	9646
0	9456	62.824006393778	9639
0	9464	62.845104775558	9632
0	9470	62.91565838681	9607
0	9476	63.010091293313	9575
0	9483	63.044676496174	9563
0	9492	63.095090202349	9546
0	9498	63.113052495692	9540
0	9503	63.126115186184	9535
0	9509	63.144981568983	9529
0	9518	63.22179841569	9502
0	9525	63.280078831148	9482
0	9530	63.321901315816	9468
0	9536	63.336881496082	9463
0	9541	63.358665426934	9455
0	9546	63.366980220937	9453
0	9551	63.377738075483	9449
0	9554	63.385146266826	9446
0	9561	63.409873064159	9438
0	9568	63.482942223369	9413
0	9573	63.49052987427	9410
0	9582	63.578300156004	9380
0	9587	63.625613929016	9364
0	9591	63.633089366863	9361
0	9599	63.726814552507	9329
0	9605	63.741065753826	9324
0	9614	63.778748806536	9322
0	9618	63.786257924751	9322
0	9627	63.83068130584	9325
0	9630	63.838188008253	9325
0	9635	63.845694710666	9325
0	9644	63.921826478755	9329
0	9649	63.970099016031	9332
0	9652	63.977600087613	9332
0	9660	63.996224192724	9333
0	9661	64	9333
0	9668	64.134005407268	9341
0	9674	64.14149925161	9341
0	9677	64.148573261334	9341
0	9685	64.157852752392	9342
0	9692	64.227545299809	9345
0	9700	64.273300498284	9348
0	9705	64.302556213148	9349
0	9711	64.332769912197	9351
0	9716	64.348825649144	9352
0	9721	64.361629868514	9352
0	9726	64.376297346639	9353
0	9734	64.533352791032	9361
0	9743	64.582919562849	9364
0	9748	64.612788236867	9366
0	9753	64.626008216561	9366
0	9761	64.72749066944	9372
0	9768	64.764974096063	9374
0	9775	64.79369046094	9375
0	9780	64.819184950079	9376
0	9785	64.848292453424	9378
0	9790	64.871515712397	9379
0	9793	64.878979194645	9380
0	9801	64.954353747011	9384
0	9804	64.961813252552	9384
0	9811	64.986511273245	9385
0	9817	65.019868143161	9387
0	9824	65.081246383768	9390
0	9829	65.127285471008	9393
0	9836	65.172542988834	9395
0	9841	65.182334476918	9395
0	9844	65.189785248605	9396
0	9856	65.30003536009	9402
0	9861	65.351950517031	9404
0	9869	65.399265157022	9407
0	9874	65.407821148263	9407
0	9879	65.417334971428	9408
0	9886	65.4990455592	9412
0	9892	65.535235762996	9414
0	9895	65.542671497009	9414
0	9902	65.551301430531	9415
0	9907	65.565478993552	9416
0	9915	65.610980603873	9418
0	9918	65.618413179791	9418
0	9925	65.645405180192	9420
0	9930	65.667996972178	9421
0	9936	65.717461415713	9423
0	9942	65.777483724357	9427
0	9947	65.787620973784	9427
0	9952	65.800014081787	9428
0	9960	65.894255077155	9433
0	9963	65.901675834072	9433
0	9974	66	9438
0	9979	66.073652902699	9442
0	9985	66.087683570177	9443
0	9988	66.09509646862	9443
0	9996	66.152823067097	9446
0	10001	66.177998454127	9448
0	10004	66.184909204361	9448
0	10014	66.252986861901	9452
0	10019	66.262014944926	9452
0	10024	66.276968611497	9453
0	10027	66.284373668093	9453
0	10032	66.291778724689	9454
0	10041	66.332004004279	9456
0	10046	66.377969026716	9458
0	10051	66.3955709613	9459
0	10057	66.52839709298	9466
0	10062	66.54142695539	9467
0	10067	66.565950441866	9468
0	10072	66.610332959201	9470
0	10077	66.627773067803	9471
0	10082	66.642103443746	9472
0	10087	66.659514892956	9473
0	10092	66.705053835281	9475
0	10097	66.760435758041	9478
0	10102	66.819532482022	9481
0	10107	66.862385888281	9483
0	10112	66.870977320156	9484
0	10117	66.884419825165	9485
0	10122	67.011914664246	9491
0	10128	67.140454249729	9434
0	10131	67.147874220049	9424
0	10138	67.224416156198	9328
0	10143	67.236444794673	9313
0	10148	67.278692285305	9259
0	10151	67.286252496991	9250
0	10158	67.305971587133	9225
0	10163	67.320807819044	9206
0	10168	67.328938506789	9196
0	10173	67.351830031477	9167
0	10178	67.390103209677	9118
0	10183	67.415951148473	9086
0	10188	67.465020341618	9024
0	10193	67.532271229377	8939
0	10198	67.564700021246	8898
0	10203	67.641779416836	8800
0	10208	67.665734079791	8770
0	10213	67.674434888141	8759
0	10216	67.682426668025	8749
0	10223	67.712964266853	8710
0	10228	67.766719537155	8643
0	10231	67.77481857684	8632
0	10238	67.794533549776	8607
0	10244	67.816033359528	8595
0	10249	67.883406113846	8591
0	10254	67.89702461589	8591
0	10257	67.905172677815	8590
0	10264	67.91541172045	8590
0	10268	68	8585
0	10293	68.4	8565
0	10294	68.408172796264	8564
0	10297	68.416346546848	8564
0	10300	68.424520297432	8563
0	10303	68.432695002559	8563
0	10306	68.440869707686	8562
0	10309	68.449045367579	8562
0	10312	68.457221027472	8562
0	10315	68.465396687365	8561
0	10318	68.473573302246	8561
0	10321	68.481749917127	8560
0	10326	68.48992748722	8560
0	10330	68.498105057313	8561
0	10337	68.585750757516	8680
0	10342	68.606302945511	8707
0	10347	68.63100776534	8741
0	10352	68.647015292241	8763
0	10358	68.946650931317	8955
0	10363	69.001235226177	8972
0	10366	69.009037277002	8975
0	10373	69.030956583817	8981
0	10378	69.057749800402	8990
0	10381	69.065536229768	8992
0	10386	69.073320927277	8995
0	10393	69.134279951035	9014
0	10398	69.146972876491	9018
0	10403	69.201672680895	9035
0	10408	69.232969680553	9044
0	10413	69.258295392436	9052
0	10418	69.347456186217	9080
0	10421	69.355165437318	9082
0	10428	69.405060594846	9098
0	10431	69.412754593527	9100
0	10438	69.455241421288	9114
0	10443	69.498808094046	9127
0	10448	69.527476753065	9136
0	10453	69.558755969276	9146
0	10458	69.648176796917	9174
0	10463	69.690321037521	9187
0	10468	69.714050530781	9194
0	10473	69.729721720398	9199
0	10478	69.802176702234	9222
0	10483	69.836916621359	9232
0	10488	69.899764614218	9252
0	10493	69.919736410748	9258
0	10498	69.928157026719	9261
0	10503	69.946850386298	9267
0	10508	69.998476027308	9283
0	10509	70	9283
0	10549	70.406016693041	9410
0	10550	70.413455587834	9412
0	10553	70.420892901901	9414
0	10558	70.428328635914	9417
0	10561	70.435762001105	9419
0	10564	70.443193787919	9421
0	10567	70.450623997026	9424
0	10570	70.458051840829	9426
0	10573	70.465478108599	9428
0	10578	70.472902801005	9430
0	10581	70.480325918714	9433
0	10584	70.487746675631	9435
0	10587	70.495165859521	9437
0	10590	70.50258347105	9440
0	10593	70.509998725287	9442
0	10596	70.517412408829	9444
0	10599	70.52482452234	9447
0	10602	70.532234282052	9449
0	10605	70.539642473395	9451
0	10608	70.547049097033	9454
0	10613	70.554453370356	9456
0	10620	70.578503524774	9463
0	10625	70.667023125173	9491
0	10628	70.674398533455	9493
0	10635	70.68334035062	9496
0	10640	70.705947968995	9503
0	10645	70.79944433246	9532
0	10654	70.842621847176	9546
0	10663	70.870242872978	9554
0	10666	70.872902801005	9555
0	10677	70.901690489818	9564
0	10692	70.975760424499	9571
0	10695	70.983074184817	9569
0	10703	71.008342879385	9563
0	10708	71.015662758084	9561
0	10711	71.022984167978	9560
0	10716	71.03030634371	9558
0	10723	71.037630051599	9557
0	10726	71.044954525806	9555
0	10737	71.144613191935	9532
0	10742	71.153457355127	9530
0	10747	71.184013721937	9523
0	10753	71.211178033154	9517
0	10756	71.218533292164	9515
0	10766	71.286098507647	9500
0	10771	71.297964831615	9497
0	10777	71.353428831354	9485
0	10782	71.374782341931	9480
0	10787	71.382166308176	9478
0	10790	71.383074184817	9478
0	10800	71.418645727851	9470
0	10807	71.437208841122	9466
0	10811	71.444603728086	9464
0	10820	71.462416034628	9460
0	10830	71.680376160507	9411
0	10835	71.690151237077	9409
0	10842	71.743806461279	9396
0	10848	71.774896404855	9389
0	10854	71.784107036236	9387
0	10862	71.833083920921	9376
0	10869	71.856658548587	9371
0	10874	71.866072517079	9369
0	10880	71.913776583688	9358
0	10885	71.947688097789	9350
0	10889	72	9338
0	10896	72.087814264853	9318
0	10897	72.095326606557	9317
0	10900	72.097590922485	9316
0	10909	72.160446578827	9302
0	10912	72.167971842211	9300
0	10921	72.218201269424	9289
0	10929	72.311817848209	9268
0	10936	72.37783305715	9253
0	10942	72.416717124273	9244
0	10947	72.440313012304	9238
0	10952	72.513455098373	9222
0	10955	72.521045642723	9220
0	10962	72.529886182132	9218
0	10967	72.721557341931	9175
0	10970	72.729186769724	9173
0	10975	72.73681786097	9171
0	10982	72.746322299554	9169
0	10987	72.768639409728	9164
0	10992	72.778834506647	9162
0	10997	72.786474759867	9160
0	11000	72.794116681264	9158
0	11007	72.884737597887	9138
0	11012	72.920933591244	9129
0	11017	73.038192869944	9103
0	11022	73.04831834643	9101
0	11027	73.092795860608	9090
0	11032	73.113734443145	9086
0	11037	73.128811460103	9082
0	11042	73.140714945513	9080
0	11047	73.15098892963	9077
0	11052	73.239914949931	9057
0	11057	73.250705364225	9055
0	11062	73.271642972342	9050
0	11065	73.279377778972	9048
0	11072	73.350575900758	9032
0	11077	73.376690975653	9026
0	11082	73.384446349019	9024
0	11085	73.392203441218	9023
0	11092	73.410479858074	9018
0	11097	73.423810173477	9015
0	11102	73.44490866013	9011
0	11107	73.479397318689	9003
0	11112	73.493211811662	9000
0	11117	73.538721497193	8989
0	11122	73.551214594463	8986
0	11125	73.559004489856	8985
0	11130	73.566795252238	8983
0	11137	73.582617125954	8979
0	11140	73.590413094325	8978
0	11147	73.627363454724	8969
0	11152	73.651111638921	8964
0	11157	73.718276548785	8949
0	11162	73.733093112997	8945
0	11167	73.755667267316	8940
0	11172	73.769715366949	8937
0	11177	73.891530466662	8909
0	11180	73.899387689695	8908
0	11189	73.907245794769	8906
0	11192	73.91510566452	8904
0	11195	73.92296729974	8902
0	11202	73.99062718652	8887
0	11206	74	8885
0	11233	74.4	8794
0	11234	74.407959972709	8792
0	11239	74.415921756148	8790
0	11242	74.423885351142	8789
0	11245	74.431849852223	8787
0	11248	74.439816166096	8785
0	11255	74.447784293586	8783
0	11258	74.455754235519	8781
0	11261	74.463725992722	8780
0	11264	74.47169865787	8778
0	11267	74.479673139529	8776
0	11270	74.487649438526	8774
0	11275	74.49562755569	8772
0	11280	74.503607491851	8771
0	11283	74.511588337821	8769
0	11288	74.519571004032	8767
0	11291	74.527555491314	8765
0	11294	74.535541800498	8763
0	11297	74.543529932416	8761
0	11304	74.556726147087	8758
0	11307	74.564718839483	8757
0	11314	74.583072147674	8752
0	11317	74.59107031952	8751
0	11324	74.611423859768	8746
0	11329	74.636478485424	8740
0	11334	74.698960979539	8726
0	11341	74.706982982748	8724
0	11344	74.715006825022	8723
0	11347	74.723031587145	8721
0	11354	74.788356252425	8706
0	11359	74.906210993352	8679
0	11364	74.943077739826	8671
0	11369	75.011643234043	8655
0	11374	75.047489351308	8647
0	11381	75.055584644473	8645
0	11384	75.063681810465	8644
0	11387	75.071779913195	8642
0	11394	75.138664274607	8627
0	11399	75.238120308062	8604
0	11402	75.246256058876	8602
0	11407	75.254393701285	8600
0	11412	75.262533236169	8598
0	11417	75.270674664408	8597
0	11424	75.344095360657	8580
0	11429	75.38525745111	8571
0	11432	75.39342452613	8569
0	11437	75.401593507341	8567
0	11444	75.411797559652	8565
0	11449	75.422556844908	8562
0	11454	75.472513092671	8551
0	11459	75.601756672913	8521
0	11464	75.630726236675	8515
0	11469	75.666431838823	8507
0	11474	75.712320530051	8496
0	11479	75.738058908534	8491
0	11482	75.746302931617	8489
0	11489	75.76331503376	8485
0	11494	75.781904146929	8481
0	11499	75.834034524883	8469
0	11504	75.858182024896	8463
0	11507	75.86645332349	8461
0	11512	75.874726577243	8460
0	11520	75.993026162403	8417
0	11521	76	8413
0	11534	76.40134266472	8200
0	11535	76.409879250086	8198
0	11538	76.418417918054	8197
0	11543	76.426957627704	8195
0	11548	76.435499421481	8194
0	11551	76.444042257703	8193
0	11556	76.452586136624	8191
0	11563	76.487365110106	8186
0	11568	76.577949788429	8172
0	11573	76.663529017888	8158
0	11578	76.673673888134	8156
0	11583	76.69969815519	8152
0	11586	76.708285005043	8151
0	11593	76.721018097569	8149
0	11599	76.775121314881	8175
0	11602	76.783684006012	8182
0	11617	76.906045224399	8292
0	11622	76.955258497496	8336
0	11625	76.963655810356	8343
0	11633	77.033205482595	8406
0	11638	77.041532867796	8413
0	11641	77.049853324232	8421
0	11646	77.058165876185	8428
0	11655	77.103782069216	8469
0	11663	77.129907625754	8492
0	11666	77.138150678039	8499
0	11673	77.17315084218	8531
0	11680	77.292602806374	8638
0	11688	77.40157190019	8735
0	11693	77.434985093577	8765
0	11696	77.441532867796	8771
0	11707	77.467510643641	8794
0	11712	77.482929745947	8808
0	11717	77.495211444457	8819
0	11722	77.506048607359	8829
0	11732	77.598770324694	8897
0	11737	77.6564235848	8906
0	11742	77.667242703957	8907
0	11745	77.67510169127	8908
0	11753	77.735132644491	8917
0	11758	77.808432005155	8927
0	11771	77.955676186865	9058
0	11775	78	9128
0	11778	78.007684075788	9140
0	11783	78.061223136001	9224
0	11791	78.136564234688	9343
0	11797	78.162179581071	9384
0	11803	78.283951377998	9575
0	11806	78.291262082959	9587
0	11813	78.316164322131	9626
0	11818	78.3385448269	9661
0	11823	78.360008595153	9695
0	11829	78.380193408581	9727
0	11835	78.403421077214	9764
0	11840	78.411353642359	9776
0	11846	78.490407863205	9764
0	11851	78.509690482314	9745
0	11856	78.517882478934	9737
0	11861	78.533380126206	9722
0	11866	78.549849882873	9706
0	11869	78.557061916667	9699
0	11876	78.591974213315	9664
0	11881	78.612353849905	9644
0	11886	78.656415210085	9601
0	11891	78.667086569886	9591
0	11894	78.674385078905	9584
0	11901	78.694957019489	9563
0	11906	78.828787414567	9432
0	11909	78.836208958248	9425
0	11916	78.844132815376	9417
0	11921	78.926975206936	9336
0	11926	78.93505152123	9328
0	11931	78.994369571089	9270
0	11936	79.007213691815	9257
0	11941	79.035362809239	9229
0	11946	79.181825570105	9086
0	11951	79.248649337253	9020
0	11956	79.287301945644	8982
0	11961	79.402123651912	8870
0	11966	79.411972852615	8860
0	11969	79.419873529816	8852
0	11974	79.427781347258	8844
0	11981	79.458807692821	8814
0	11984	79.466749603418	8806
0	11991	79.678938883192	8598
0	11996	79.694735138687	8583
0	12001	79.849213067334	8431
0	12006	79.909968509663	8371
0	12011	79.942330661855	8340
0	12016	79.953606624694	8329
0	12019	79.962010994967	8320
0	12026	79.97448877338	8308
0	12030	80	8283
0	12056	80.4	8403
0	12057	80.408330358205	8408
0	12062	80.416655762582	8414
0	12067	80.424975230136	8420
0	12070	80.433288769328	8425
0	12073	80.441597374669	8431
0	12076	80.449900067114	8437
0	12079	80.458196855072	8443
0	12082	80.466487746935	8448
0	12085	80.474773731783	8454
0	12088	80.483053835876	8460
0	12091	80.491328067554	8465
0	12094	80.499597411913	8471
0	12097	80.507860899105	8477
0	12104	80.522453908637	8487
0	12109	80.53191168212	8493
0	12114	80.577552014375	8525
0	12119	80.598373730243	8539
0	12124	80.612372226657	8549
0	12129	80.630435192056	8561
0	12135	80.685352671711	8637
0	12140	80.693457337683	8659
0	12143	80.701541412056	8682
0	12150	80.792209366157	8935
0	12155	80.809643044716	8984
0	12160	80.863761719241	9135
0	12165	80.872512569236	9159
0	12170	80.896531919749	9226
0	12175	80.936822091494	9339
0	12180	80.950677381283	9378
0	12183	80.958141659381	9399
0	12188	80.96558926019	9419
0	12195	80.979174948037	9457
0	12198	80.986576872537	9478
0	12205	80.996875527767	9507
0	12210	81.006503408749	9534
0	12215	81.031210404834	9603
0	12220	81.039930266165	9627
0	12225	81.055002158878	9669
0	12230	81.098291638086	9790
0	12236	81.141186693154	9775
0	12241	81.192569665103	9733
0	12244	81.199761692227	9727
0	12251	81.209251585176	9719
0	12256	81.244429602975	9690
0	12259	81.251653545183	9684
0	12266	81.259680462457	9677
0	12271	81.29590159251	9648
0	12276	81.30685462739	9639
0	12281	81.321019542675	9627
0	12286	81.377394627832	9581
0	12291	81.471611791933	9503
0	12296	81.580594937598	9414
0	12301	81.634995144278	9369
0	12306	81.648316217008	9358
0	12311	81.80241822069	9232
0	12316	81.863785075334	9181
0	12321	81.940210571909	9118
0	12326	81.947887694085	9112
0	12329	81.955569871434	9106
0	12336	81.979417771353	9086
0	12339	81.9871219316	9080
0	12345	82	9069
0	12376	82.4	8741
0	12377	82.408008237044	8734
0	12380	82.416022892414	8728
0	12383	82.4240430574	8721
0	12386	82.432069659854	8714
0	12389	82.440102710118	8708
0	12394	82.448141295327	8701
0	12397	82.45618634762	8695
0	12400	82.464236951415	8688
0	12403	82.472294041654	8681
0	12406	82.480357628798	8675
0	12409	82.488426793063	8668
0	12412	82.496502473728	8662
0	12417	82.50458374826	8655
0	12422	82.512671558774	8648
0	12425	82.520765915851	8642
0	12428	82.528865892708	8635
0	12431	82.536972435846	8628
0	12439	82.602463829198	8574
0	12444	82.612382403954	8569
0	12449	82.624823734958	8563
0	12454	82.648638079797	8550
0	12459	82.665847003878	8541
0	12462	82.674042765498	8536
0	12469	82.694941455678	8525
0	12474	82.728526229926	8507
0	12479	82.759574716244	8491
0	12484	82.806656094827	8465
0	12489	82.951068622134	8388
0	12494	82.993673404963	8365
0	12499	83.035502359779	8343
0	12504	83.129632038374	8293
0	12509	83.146906513727	8284
0	12514	83.179126947535	8266
0	12519	83.189844282389	8261
0	12524	83.221496735162	8244
0	12530	83.322774134166	8240
0	12535	83.369518213866	8241
0	12538	83.378012328658	8242
0	12545	83.419900647534	8243
0	12550	83.46448769415	8244
0	12555	83.475945096959	8244
0	12560	83.56678928067	8247
0	12565	83.622642314167	8249
0	12570	83.660884259026	8250
0	12575	83.743064203118	8252
0	12580	83.762314460861	8253
0	12585	83.815214992386	8254
0	12588	83.823695728999	8254
0	12595	83.889236417189	8256
0	12600	83.905267678741	8257
0	12605	83.971369832216	8259
0	12609	84	8259
0	12628	84.4	9022
0	12631	84.407758811793	9020
0	12634	84.415519343944	9017
0	12637	84.423282458062	9015
0	12640	84.431047294446	9012
0	12643	84.438814715662	9010
0	12648	84.446583861056	9007
0	12651	84.454355594152	9005
0	12654	84.462129053341	9002
0	12657	84.469905103108	8999
0	12664	84.526566955085	8981
0	12669	84.565710183222	8968
0	12674	84.577030221862	8964
0	12679	84.633775252956	8946
0	12684	84.649920034157	8940
0	12687	84.657750011786	8938
0	12694	84.666647418299	8935
0	12699	84.70311328476	8923
0	12704	84.731883464684	8913
0	12709	84.770994431743	8900
0	12714	84.809609156078	8888
0	12719	84.839756770656	8878
0	12724	84.851582450848	8874
0	12729	84.904162230124	8857
0	12734	84.912065583404	8854
0	12737	84.919971614576	8851
0	12744	84.928106398981	8849
0	12749	84.940655529442	8845
0	12754	84.953568168858	8840
0	12759	85.002919719034	8824
0	12764	85.102687296378	8791
0	12769	85.117385571273	8786
0	12774	85.19409246899	8761
0	12779	85.226483434459	8751
0	12784	85.295375139865	8728
0	12789	85.329369081104	8717
0	12794	85.366414124398	8705
0	12799	85.37882849929	8700
0	12804	85.39359973784	8696
0	12809	85.415225244495	8688
0	12814	85.44308362641	8679
0	12819	85.483492709995	8666
0	12824	85.542594291814	8647
0	12829	85.594594238682	8629
0	12832	85.602706418541	8627
0	12839	85.634694528405	8616
0	12844	85.691213466212	8598
0	12849	85.708270207692	8592
0	12854	85.716417321286	8589
0	12857	85.724567280536	8587
0	12864	85.770193813436	8572
0	12869	85.851138850525	8545
0	12874	85.908818522787	8526
0	12881	85.917028703411	8523
0	12884	85.925241773926	8521
0	12887	85.933456772166	8518
0	12894	85.949292556012	8513
0	12898	86	8496
0	12921	86.4	8365
0	12922	86.408368200837	8362
0	12925	86.416739403898	8359
0	12928	86.425113611339	8356
0	12931	86.433490825317	8354
0	12934	86.441870044853	8351
0	12937	86.450252274526	8348
0	12940	86.4586375165	8345
0	12943	86.467025772941	8343
0	12946	86.475416040231	8340
0	12949	86.483809325603	8337
0	12956	86.528895449817	8322
0	12961	86.55418290322	8314
0	12966	86.695276469724	8267
0	12969	86.703743870232	8265
0	12976	86.867338614721	8211
0	12981	86.89327374138	8202
0	12984	86.90180824516	8199
0	12991	86.914457766922	8195
0	12996	87.01192438858	8163
0	13001	87.159763937724	8115
0	13006	87.169580305035	8111
0	13011	87.180146817208	8108
0	13016	87.201597651353	8101
0	13021	87.222302880083	8094
0	13026	87.271875771531	8078
0	13029	87.280541282796	8075
0	13034	87.289210013446	8072
0	13041	87.356571653744	8050
0	13046	87.385811668655	8040
0	13052	87.394518136317	8038
0	13055	87.403226770306	8038
0	13062	87.445973650301	8042
0	13065	87.454677952713	8042
0	13070	87.463382255125	8043
0	13077	87.472085475316	8044
0	13080	87.480787613556	8044
0	13085	87.489489751796	8045
0	13092	87.528642253853	8048
0	13095	87.537340066974	8049
0	13102	87.563087706233	8051
0	13107	87.582447298972	8053
0	13110	87.591139711737	8053
0	13117	87.621908440253	8056
0	13122	87.639103916287	8057
0	13127	87.657081429544	8059
0	13132	87.685473712847	8061
0	13135	87.694157498978	8062
0	13142	87.704039107841	8062
0	13145	87.712721816846	8063
0	13152	87.741266779603	8065
0	13157	87.752672983225	8066
0	13162	87.774407299373	8068
0	13165	87.783083551232	8069
0	13172	87.817278467667	8072
0	13177	87.93470782387	8081
0	13182	87.967622570693	8084
0	13185	87.976281650357	8084
0	13190	87.984940730021	8085
0	13196	88	8086
0	13213	88.4	8119
0	13214	88.408621751447	8119
0	13217	88.417243502894	8120
0	13222	88.425864192549	8121
0	13227	88.434483820674	8121
0	13230	88.443103448799	8122
0	13237	88.451722015654	8123
0	13240	88.460339521502	8123
0	13243	88.46895702735	8124
0	13246	88.477573472451	8125
0	13249	88.486188857066	8126
0	13252	88.494803181457	8126
0	13259	88.50468188226	8127
0	13264	88.608459310002	8135
0	13269	88.63682128471	8138
0	13274	88.659440721406	8139
0	13279	88.677065837638	8141
0	13284	88.835013323695	8154
0	13289	88.943915851964	8162
0	13294	88.992394381938	8166
0	13300	89.024317514551	8211
0	13305	89.032842663741	8224
0	13308	89.041354336893	8237
0	13315	89.085527568669	8304
0	13320	89.10444483739	8333
0	13325	89.188233815447	8460
0	13330	89.241480833223	8540
0	13335	89.288059608042	8611
0	13340	89.329476641221	8673
0	13345	89.340296945514	8690
0	13350	89.427131885174	8821
0	13353	89.435067493382	8833
0	13360	89.443141847734	8846
0	13363	89.451055028833	8858
0	13370	89.500379515724	8932
0	13375	89.673482085021	9194
0	13380	89.695040512184	9227
0	13385	89.719302161889	9264
0	13390	89.749136170827	9309
0	13396	89.947471915306	9404
0	13400	90	9419
0	13411	90.4	9532
0	13412	90.407343684431	9534
0	13415	90.414685828337	9536
0	13418	90.422026432364	9538
0	13423	90.429365497157	9540
0	13426	90.436703023362	9542
0	13431	90.444039011624	9544
0	13438	90.453429959248	9547
0	13443	90.529960569386	9569
0	13448	90.543203474133	9572
0	13453	90.578826309174	9582
0	13458	90.660475230278	9605
0	13463	90.680149194445	9611
0	13468	90.769477974902	9636
0	13471	90.776742399975	9638
0	13478	90.806300322778	9647
0	13483	90.857758484601	9661
0	13486	90.865004111348	9663
0	13493	90.885772229399	9669
0	13498	90.896354024276	9672
0	13503	90.950347141883	9687
0	13506	90.957573321299	9689
0	13513	91.005449252088	9703
0	13518	91.039319628422	9713
0	13523	91.094541969168	9728
0	13526	91.101737692852	9730
0	13533	91.112927544669	9733
0	13538	91.133274200699	9739
0	13543	91.189744562413	9755
0	13548	91.217882653501	9763
0	13553	91.245740807915	9771
0	13558	91.254791922356	9774
0	13563	91.277233008714	9780
0	13568	91.286251767567	9782
0	13573	91.325602883413	9794
0	13578	91.336471631081	9797
0	13581	91.343616675482	9799
0	13588	91.416802742268	9819
0	13591	91.423931777811	9821
0	13598	91.44968491686	9829
0	13603	91.461779577645	9832
0	13607	91.468899187084	9739
0	13615	91.609074253506	8451
0	13618	91.617357296933	8455
0	13623	91.625636421711	8459
0	13630	91.719048214021	8503
0	13635	91.733096092726	8509
0	13640	91.749440309999	8517
0	13643	91.757659166404	8521
0	13650	91.766372641767	8525
0	13655	91.780455704162	8532
0	13660	91.802676027695	8542
0	13665	91.816191012585	8549
0	13670	91.833730940175	8557
0	13675	91.936415049598	8606
0	13680	91.950867070245	8612
0	13684	92	8636
0	13707	92.4	8824
0	13708	92.407932910245	8828
0	13711	92.415862226058	8832
0	13714	92.423787950696	8836
0	13717	92.431710087409	8839
0	13720	92.43962953531	8843
0	13725	92.447545400966	8847
0	13728	92.455457687617	8851
0	13731	92.463366398497	8854
0	13734	92.471272429669	8858
0	13737	92.479174890721	8862
0	13740	92.487073784876	8866
0	13747	92.634024172356	8935
0	13752	92.722891346212	8977
0	13755	92.730689051459	8981
0	13760	92.738483283727	8984
0	13767	92.806864769036	9017
0	13772	92.847683062228	9036
0	13777	92.859881161132	9042
0	13782	92.991549919536	9104
0	13787	93.011554356907	9113
0	13790	93.019235691265	9117
0	13797	93.071855654854	9142
0	13802	93.119915338189	9164
0	13807	93.15952407056	9183
0	13812	93.169246125354	9188
0	13817	93.266491378061	9234
0	13822	93.291460067202	9245
0	13827	93.325430696196	9261
0	13832	93.335615175426	9266
0	13835	93.34316967575	9270
0	13842	93.375864803531	9285
0	13847	93.451369479937	9321
0	13852	93.492089760668	9340
0	13857	93.543400148939	9364
0	13860	93.550875586786	9368
0	13867	93.58847649911	9386
0	13872	93.616364994919	9399
0	13875	93.623812595728	9402
0	13882	93.654368258512	9417
0	13887	93.672027505994	9425
0	13892	93.701600939496	9439
0	13895	93.709016979331	9443
0	13902	93.719206155625	9447
0	13907	93.77959627649	9476
0	13912	93.788329430559	9480
0	13917	93.830530206482	9500
0	13920	93.837898627535	9503
0	13927	93.911484763347	9538
0	13932	93.961415354946	9562
0	13936	94	9580
0	13947	94.4	9769
0	13948	94.407165523595	9772
0	13951	94.414328847377	9776
0	13954	94.421489240176	9779
0	13959	94.428647436311	9782
0	13962	94.435803437129	9786
0	13969	94.456015722957	9795
0	13974	94.471696334657	9803
0	13981	94.47883700588	9806
0	13984	94.485975492521	9810
0	13987	94.493111068464	9813
0	13995	94.621081020962	9498
0	14000	94.635735808783	9456
0	14005	94.707102657926	9255
0	14010	94.767802254415	9083
0	14015	94.775853696111	9060
0	14020	94.846235940634	8861
0	14025	94.865595455261	8807
0	14031	94.978974389446	8531
0	14036	95.015970506091	8533
0	14039	95.024173951538	8533
0	14046	95.046481526642	8534
0	14049	95.054684010823	8534
0	14054	95.062886495004	8534
0	14061	95.143781199169	8537
0	14066	95.157488585209	8538
0	14071	95.17022545723	8538
0	14076	95.224543559008	8540
0	14081	95.253118150313	8542
0	14084	95.261312952467	8542
0	14091	95.400807123829	8547
0	14094	95.408997132019	8547
0	14101	95.421690753633	8548
0	14106	95.446886222035	8549
0	14111	95.485254248314	8550
0	14116	95.494010115341	8551
0	14121	95.511940357989	8551
0	14126	95.52119357879	8552
0	14131	95.572358584871	8554
0	14136	95.598481608794	8555
0	14141	95.624737631854	8556
0	14146	95.648895281796	8557
0	14151	95.65838669063	8557
0	14156	95.750454576855	8561
0	14161	95.761532130248	8561
0	14166	95.786034567848	8562
0	14171	95.796481572441	8562
0	14174	95.804657232334	8563
0	14181	95.830732333047	8564
0	14184	95.838906083631	8564
0	14191	95.874206231053	8565
0	14194	95.882379027317	8566
0	14201	95.981634055894	8569
0	14205	96	8570
0	14238	96.4	8585
0	14239	96.408153756552	8586
0	14244	96.416306563447	8586
0	14247	96.424459370342	8586
0	14252	96.432612177237	8587
0	14255	96.440764034696	8587
0	14258	96.448915892155	8587
0	14261	96.457067749614	8587
0	14264	96.465219607073	8588
0	14267	96.473370515317	8588
0	14272	96.481521423561	8588
0	14275	96.489672331805	8589
0	14278	96.497822291055	8589
0	14281	96.505972250305	8589
0	14284	96.514122209555	8590
0	14287	96.522271220032	8590
0	14290	96.530420230509	8590
0	14295	96.538569240986	8591
0	14298	96.546717302911	8591
0	14303	96.554865364836	8591
0	14306	96.563013426761	8591
0	14313	96.584520590834	8592
0	14318	96.616672559546	8594
0	14321	96.62481777714	8594
0	14328	96.641577667889	8594
0	14331	96.649722885483	8595
0	14338	96.689654080335	8596
0	14344	96.705896891696	8599
0	14347	96.714037373147	8600
0	14354	96.760417327456	8610
0	14357	96.768547408757	8612
0	14364	96.805634944475	8619
0	14369	96.864359442079	8631
0	14374	96.907442378737	8640
0	14377	96.915544230589	8641
0	14384	96.962356211706	8651
0	14389	97.079204668905	8675
0	14394	97.091051751036	8677
0	14399	97.134697368216	8686
0	14404	97.162509777376	8691
0	14409	97.188491181227	8697
0	14414	97.215925715229	8702
0	14419	97.29196645461	8718
0	14424	97.339064596173	8727
0	14429	97.408721136994	8741
0	14434	97.518745372419	8764
0	14439	97.571019755777	8774
0	14444	97.582419823034	8777
0	14449	97.638279578815	8788
0	14454	97.693453513563	8799
0	14459	97.746685918886	8810
0	14464	97.784441225486	8818
0	14469	97.813956259312	8824
0	14474	97.844338607403	8830
0	14479	97.889759435412	8839
0	14484	97.941948660479	8850
0	14489	97.96333091437	8854
0	14493	98	8861
0	14514	98.4	8943
0	14515	98.407827351001	8944
0	14518	98.415653826851	8946
0	14523	98.423478552986	8947
0	14526	98.431302404556	8949
0	14531	98.439124507584	8950
0	14534	98.446945736634	8952
0	14539	98.454765218314	8954
0	14542	98.462582953404	8955
0	14545	98.470399815492	8957
0	14548	98.478214932161	8958
0	14551	98.486029176412	8960
0	14554	98.493841676412	8962
0	14561	98.534880201235	8970
0	14566	98.546101644243	8972
0	14569	98.553903695068	8974
0	14576	98.594974870604	8982
0	14582	98.602768235111	8984
0	14585	98.610559864675	8986
0	14590	98.618349760068	8988
0	14597	98.689444460165	9006
0	14602	98.709195665383	9011
0	14607	98.729770372675	9016
0	14612	98.756285274712	9023
0	14617	98.78071335874	9029
0	14622	98.802976874283	9035
0	14627	98.830159031192	9042
0	14632	98.872064804192	9053
0	14637	98.908365820091	9062
0	14642	98.935683263719	9069
0	14647	98.950484802773	9073
0	14652	98.97784184324	9080
0	14655	98.985551094341	9082
0	14662	99.020081425596	9091
0	14667	99.033496274784	9094
0	14672	99.059359911168	9101
0	14675	99.067051373645	9103
0	14680	99.074741146247	9105
0	14687	99.096476332537	9110
0	14692	99.154834598997	9125
0	14697	99.168231465336	9128
0	14702	99.180044235891	9131
0	14707	99.291053259552	9160
0	14713	99.372226210155	9063
0	14718	99.490302553364	8823
0	14723	99.526278188856	8749
0	14728	99.560155225821	8680
0	14733	99.610673083958	8577
0	14738	99.644308765756	8509
0	14743	99.65742359582	8482
0	14748	99.805307937373	8181
0	14751	99.81386434857	8164
0	14759	99.887648783747	8291
0	14764	99.924539572547	8443
0	14769	99.97523593432	8651
0	14774	99.989624523865	8710
0	14778	100	8752
0	14799	100.4	9164
0	14800	100.40763858577	9164
0	14803	100.41527717154	9165
0	14806	100.422914923859	9165
0	14809	100.430552676178	9165
0	14812	100.438190428497	9166
0	14817	100.445827347546	9166
0	14820	100.453464266595	9167
0	14823	100.461100352556	9167
0	14826	100.468736438517	9168
0	14833	100.52997794469	9171
0	14838	100.554678368644	9173
0	14841	100.56230945989	9173
0	14848	100.569940551136	9173
0	14851	100.577571642382	9174
0	14856	100.585201901811	9174
0	14863	100.663206008569	9179
0	14866	100.67083211163	9179
0	14873	100.695815836226	9181
0	14876	100.703440278008	9181
0	14881	100.71106471979	9182
0	14888	100.824481456807	9188
0	14893	100.863674277405	9190
0	14898	100.876329383143	9191
0	14903	100.912500190709	9193
0	14908	100.923356258242	9194
0	14911	100.930969919325	9194
0	14918	100.979518688061	9197
0	14923	100.990038463485	9198
0	14928	101.016339370238	9199
0	14931	101.023948893012	9200
0	14938	101.090730202547	9203
0	14943	101.098974303095	9204
0	14948	101.408051123778	9222
0	14951	101.415641668128	9222
0	14956	101.423232212478	9223
0	14963	101.430821933827	9223
0	14966	101.438411655176	9223
0	14973	101.469350373276	9225
0	14979	101.569678349182	8973
0	14982	101.577479530504	8947
0	14991	101.585303382074	8922
0	14996	101.593149156564	8896
0	14999	101.6010178616	8870
0	15002	101.608909631611	8844
0	15009	101.659079028841	8679
0	15014	101.672399636714	8635
0	15017	101.680506179852	8608
0	15022	101.688638150112	8582
0	15030	101.801805582621	8365
0	15035	101.812111566295	8395
0	15040	101.862101365621	8538
0	15045	101.910696880105	8677
0	15050	101.928834700777	8729
0	15054	102	8933
0	15074	102.4	9292
0	15075	102.407533362032	9213
0	15081	102.415131321437	9176
0	15084	102.422759917775	9174
0	15089	102.430390177204	9172
0	15092	102.438022100449	9169
0	15095	102.445656520778	9167
0	15098	102.453292606739	9165
0	15101	102.460930359058	9162
0	15106	102.468570612278	9160
0	15109	102.476212533675	9158
0	15114	102.483856123979	9156
0	15117	102.491501383918	9153
0	15124	102.581757291509	9126
0	15129	102.605558946366	9119
0	15134	102.626985429354	9113
0	15139	102.664440755641	9101
0	15144	102.689586195715	9094
0	15149	102.711220846254	9087
0	15154	102.794935075705	9062
0	15159	102.89068949364	9034
0	15164	102.900590875969	9031
0	15169	102.976218183335	9008
0	15174	102.98691550195	9005
0	15179	103.02928603286	8992
0	15184	103.122415562693	8964
0	15189	103.14596100501	8957
0	15194	103.162324377777	8952
0	15197	103.170143859457	8950
0	15204	103.218954406853	8935
0	15209	103.2366595331	8930
0	15214	103.251194250738	8926
0	15219	103.293850616101	8913
0	15224	103.302462865094	8910
0	15229	103.314198807596	8907
0	15234	103.32712618737	8903
0	15237	103.334988705622	8901
0	15244	103.355720422043	8894
0	15249	103.439190649557	8869
0	15254	103.447966807492	8867
0	15259	103.491178039407	8854
0	15264	103.537005030482	8840
0	15269	103.570438087448	8830
0	15272	103.578365607267	8828
0	15279	103.628205421906	8813
0	15284	103.656411998004	8804
0	15289	103.719612647672	8785
0	15294	103.749697664341	8776
0	15299	103.772818685691	8769
0	15304	103.786094758538	8765
0	15309	103.860652284083	8743
0	15312	103.868658689207	8741
0	15319	103.949112196451	8716
0	15324	103.974244836886	8709
0	15329	103.985334159887	8706
0	15332	103.993374591773	8703
0	15335	104	8701
0	15359	104.401417795266	8581
0	15360	104.40957535266	8578
0	15363	104.417735763012	8576
0	15366	104.425898076445	8574
0	15369	104.434062293846	8571
0	15372	104.442229368866	8569
0	15375	104.450398350077	8566
0	15378	104.458570192244	8564
0	15381	104.466743942828	8561
0	15384	104.474920557709	8559
0	15391	104.523667881674	8544
0	15394	104.531860765569	8542
0	15402	104.612675956551	8522
0	15405	104.620889990815	8524
0	15412	104.634472828673	8526
0	15417	104.712144000162	8539
0	15422	104.771670216776	8550
0	15430	104.826129158871	8559
0	15441	104.87742309556	8568
0	15447	104.890050924502	8570
0	15452	104.929701640267	8577
0	15459	104.965931896509	8583
0	15464	104.979421534198	8585
0	15472	105.102633042752	8607
0	15475	105.110765957821	8608
0	15483	105.164177716198	8617
0	15489	105.203143312809	8624
0	15495	105.251520133096	8632
0	15502	105.316317012644	8644
0	15508	105.349060737682	8649
0	15511	105.357154158887	8651
0	15518	105.365802205167	8652
0	15525	105.401833616134	8658
0	15530	105.432584937083	8664
0	15535	105.45305861102	8667
0	15538	105.461135223458	8669
0	15547	105.538975400221	8682
0	15550	105.547038058595	8683
0	15555	105.555099788412	8685
0	15562	105.571355490248	8688
0	15568	105.593853682215	8691
0	15571	105.60190799127	8693
0	15579	105.625021732837	8697
0	15582	105.63307048528	8698
0	15587	105.641118312367	8700
0	15594	105.658995689677	8703
0	15600	105.702672115603	8710
0	15603	105.710708854983	8712
0	15613	105.771604038919	8722
0	15617	105.779629721102	8723
0	15622	105.787654483225	8725
0	15630	105.811456411333	8729
0	15635	105.823512102044	8731
0	15641	105.844888760675	8735
0	15644	105.852902498511	8736
0	15653	105.890565780027	8743
0	15661	106	8761
0	15664	106.00190799127	8762
0	15670	106.022090848112	8765
0	15678	106.060595044393	8772
0	15684	106.073445915674	8774
0	15693	106.189989586678	8794
0	15700	106.225347925757	8800
0	15706	106.25188516972	8805
0	15713	106.274949913978	8809
0	15719	106.331644117069	8819
0	15725	106.464571889794	8842
0	15730	106.480989215526	8844
0	15735	106.490954051816	8846
0	15740	106.506237700425	8849
0	15745	106.545581486503	8856
0	15750	106.562215091353	8858
0	15755	106.715225159569	8885
0	15760	106.752764111957	8891
0	15765	106.843890132628	8907
0	15770	106.859480288388	8910
0	15775	106.869669162065	8911
0	15780	106.95038848361	8925
0	15785	106.994875984748	8933
0	15790	107.138055483513	8958
0	15795	107.155157803056	8961
0	15798	107.162969431222	8962
0	15805	107.206114059336	8969
0	15808	107.213918719833	8971
0	15813	107.221721640355	8972
0	15818	107.22952369118	8973
0	15825	107.349056943582	8994
0	15830	107.356839910004	8995
0	15833	107.364622011171	8997
0	15838	107.372402382406	8998
0	15845	107.407369710586	9004
0	15850	107.428090536662	9008
0	15855	107.442927225352	9010
0	15860	107.506415335197	9021
0	15863	107.514175007074	9023
0	15870	107.522436568825	9024
0	15875	107.539785995537	9027
0	15880	107.563624860191	9031
0	15885	107.687977887857	9053
0	15890	107.780861878722	9069
0	15893	107.788580480552	9070
0	15900	107.823637568283	9076
0	15903	107.831350217027	9077
0	15910	107.880811206673	9086
0	15915	107.936468540055	9095
0	15920	107.964493703282	9100
0	15924	108	9106
0	15941	108.4	9175
0	15944	108.407629427793	9177
0	15947	108.415257192858	9178
0	15950	108.422884126831	9179
0	15955	108.430510229892	9181
0	15958	108.438134671674	9182
0	15961	108.445758283088	9183
0	15964	108.453381064314	9184
0	15967	108.461003015534	9186
0	15970	108.468623307282	9187
0	15977	108.486130158229	9190
0	15982	108.51831226552	9196
0	15985	108.52592427074	9197
0	15992	108.570085080924	9205
0	15997	108.57775102048	9206
0	16002	108.596401722339	9209
0	16007	108.608248257467	9211
0	16012	108.651580897691	9219
0	16017	108.67229814506	9222
0	16022	108.726899074416	9232
[...]
6	56869	381.463180267226	0.007390983001
6	56872	381.470570469929	0.014331392029
6	56877	381.532824060746	0.007380851961
6	56882	381.567972262467	0.007375408282
6	56887	381.588367451607	0.007372301211
6	56894	381.626710677255	0.007366870133
6	56897	381.634076772172	0.014205322837
6	56902	381.651636600865	0.007362995687
6	56908	381.683889272537	0.007358351729
6	56913	381.785315735222	0.007346767422
6	56918	381.84206624534	0.007339834329
6	56923	381.852511028254	0.007338295419
6	56928	381.864194681587	0.007336757153
6	56933	381.931036123207	0.007329075489
6	56940	381.973918001117	0.007323707889
6	56943	381.981240942847	0.007946642261
6	56949	382.002406519298	0.007320644217
6	56979	382.409679246571	0.403962096233
6	56982	382.416951218314	0.395938907585
6	56985	382.424221679469	0.395184364014
6	56988	382.431491385565	0.400283821819
6	56991	382.438760336759	0.331756589846
6	56994	382.446028533208	0.323641087959
6	56999	382.453295975068	0.275693257668
6	57002	382.460562662497	0.225060699581
6	57005	382.46782859565	0.211371538419
6	57008	382.475093020723	0.163035639744
6	57011	382.48235669199	0.153679481223
6	57014	382.489619609608	0.096295596212
6	57019	382.496881773733	0.103103277245
6	57022	382.504143184521	0.054225534494
6	57025	382.511403842129	0.019120124541
6	57030	382.550480653657	0.007256141806
6	57035	382.667739569682	0.007242628039
6	57040	382.730497523518	0.007235142119
6	57045	382.783251242718	0.007229164515
6	57055	382.843190121247	0.007221706386
6	57061	382.852477269867	0.007220961419
6	57068	382.861216798856	0.007220216606
6	57074	382.871967572248	0.007218727441
6	57085	382.914958537701	0.007213520198
6	57090	382.934191307622	0.007211290821
6	57098	383.131592778576	0.00718907261
6	57105	383.149923407069	0.007186858316
6	57108	383.157109527591	0.008885764248
6	57113	383.164662595108	0.007184645386
6	57119	383.211195574777	0.007179487179
6	57127	383.266083034384	0.007173601148
6	57135	383.355436293307	0.007163323782
6	57140	383.409405995124	0.00715673244
6	57145	383.446320760934	0.007153075823
6	57150	383.489217887652	0.007147962831
6	57157	383.503866095432	0.007146503318
6	57160	383.511011869217	0.014118223949
6	57166	383.543064029168	0.007142128354
6	57175	383.63032574272	0.007131940907
6	57181	383.722293232706	0.00712178248
6	57186	383.73670556893	0.007120333638
6	57195	383.832545421514	0.007109486086
6	57198	383.839654185605	0.013194774295
6	57206	383.903982360175	0.007101552196
6	57212	383.939485801511	0.007097232079
6	57218	383.967941294409	0.00709435492
6	57227	384.037412197468	0.029739369732
6	57230	384.044497934891	0.007136572981
6	57235	384.08334806432	0.00708143652
6	57243	384.195590653083	0.007118161481
6	57248	384.212967602099	0.007142128354
6	57255	384.251019951856	0.007194984068
6	57263	384.320224826307	0.00729318608
6	57266	384.32752866604	0.013881935221
6	57271	384.336393175891	0.007316818229
6	57277	384.347762443334	0.00733291431
6	57283	384.374848063454	0.007372301211
6	57288	384.392203248646	0.007398013105
6	57294	384.481515339044	0.007532551383
6	57299	384.504898859382	0.007568385771
6	57304	384.550525621944	0.00764025322
6	57311	384.563213181752	0.007660319545
6	57316	384.570885255404	0.011851506339
6	57319	384.578569962836	0.011089319669
6	57324	384.627786807155	0.007763975155
6	57329	384.671254918308	0.007835236176
6	57337	384.752560708101	0.007953641632
6	57340	384.760507126537	0.009413518333
6	57347	384.820073280767	0.007898002934
6	57350	384.827965050778	0.012446856988
6	57355	384.84606524739	0.007876673793
6	57360	384.864520034123	0.00786163522
6	57365	384.92550526731	0.007813372028
6	57372	384.983681851545	0.007767421216
6	57375	384.991443244161	0.012776348361
6	57380	385.036381855915	0.007726269316
6	57385	385.046640009955	0.007717750827
6	57390	385.056072762624	0.007710949548
6	57395	385.126592150017	0.007656130373
6	57402	385.137450133369	0.00764776576
6	57405	385.145092054766	0.013810283573
6	57410	385.291212175336	0.007532551383
6	57417	385.308964793614	0.007519604684
6	57420	385.316478748101	0.012331571406
6	57427	385.380545462206	0.007466666667
6	57430	385.388007353262	0.01206159695
6	57439	385.404057231792	0.007449978714
6	57442	385.41150166442	0.011568184923
6	57447	385.418940559213	0.015912490428
6	57450	385.426374713843	0.009653584494
6	57455	385.445650139889	0.00741997032
6	57460	385.496127289207	0.007383966245
6	57465	385.54220982175	0.007351396765
6	57470	385.619630846648	0.007296987387
6	57475	385.632934700374	0.007287870901
6	57480	385.727172822588	0.007223196781
6	57485	385.810070978637	0.007166990888
6	57490	385.820245756969	0.007160392799
6	57495	385.919117489931	0.007095073991
6	57502	385.940681303153	0.00708072021
6	57509	385.947757728547	0.007729706185
6	57513	385.954829149903	0.011365071506
6	57516	385.961900571259	0.01500512855
6	57521	385.982402844835	0.007071421356
6	57528	385.994854323164	0.007071421356
6	57532	386.001926458949	0.013913902776
6	57558	386.409005746975	0.398835615849
6	57561	386.416085035001	0.384372127614
6	57564	386.423164323027	0.385473240176
6	57567	386.430244327073	0.254906803551
6	57570	386.437324331119	0.252309218445
6	57573	386.444404335165	0.254093142497
6	57578	386.451484339211	0.166409538072
6	57581	386.458564343257	0.165205735636
6	57584	386.465645063467	0.128366872975
6	57587	386.472725783677	0.124064264052
6	57590	386.479806503887	0.099254074663
6	57593	386.486887224097	0.035781145143
6	57598	386.501266542896	0.00708072021
6	57605	386.578520410595	0.007082152975
6	57608	386.585603280169	0.014069486933
6	57615	386.680311811257	0.007084303208
6	57618	386.687396114465	0.008664374047
6	57623	386.695810638279	0.007084303208
6	57628	386.737000925856	0.007085020243
6	57633	386.758148970511	0.007085737423
6	57638	386.802080132478	0.007086454748
6	57645	386.818925576456	0.007087172218
6	57659	386.88602614112	0.007087889834
6	57666	386.917736454929	0.007088607595
6	57671	386.948565295121	0.007089325501
6	57676	386.960847397412	0.007089325501
6	57683	386.989364368974	0.007090043553
6	57688	387.05118225302	0.007091480093
6	57693	387.068923621622	0.007091480093
6	57702	387.151733169733	0.007092917216
6	57709	387.211089226667	0.00709435492
6	57716	387.29167056622	0.007095793208
6	57723	387.358545743185	0.007096512571
6	57729	387.369236002	0.007097232079
6	57735	387.390261814272	0.007097232079
6	57740	387.413453426818	0.007097951734
6	57745	387.429936769689	0.007097951734
6	57753	387.456952863742	0.007098671534
6	57756	387.464051535276	0.012387150343
6	57763	387.581408439562	0.007100831812
6	57769	387.636379650233	0.007101552196
6	57774	387.6565442669	0.007102272727
6	57782	387.695673923135	0.007102993404
6	57785	387.698773559624	0.007669228241
6	57790	387.718451851422	0.007103714228
6	57795	387.754541709287	0.007103714228
6	57804	387.779132104327	0.007104435197
6	57807	387.786236539524	0.007498573036
6	57817	387.865079186205	0.007105877576
6	57822	387.880985050363	0.007106598985
6	57828	387.954556443156	0.007140671223
6	57835	387.980125032561	0.007160392799
6	57839	387.987290556156	0.007419230018
6	57849	388.102305136883	0.007256141806
6	57858	388.168527015121	0.00730917824
6	57861	388.175842304075	0.008536379292
6	57868	388.199588979566	0.007334450964
6	57878	388.26648273991	0.007389422569
6	57881	388.272473292046	0.00945362389
6	57884	388.273878408161	0.010195067128
6	57892	388.284150185592	0.007404273323
6	57895	388.28839245777	0.009928348634
6	57900	388.326551260127	0.007438894793
6	57905	388.349422435064	0.007458710709
6	57914	388.427853634538	0.007525263384
6	57921	388.457611029275	0.00755042606
6	57926	388.465167976268	0.011093527501
6	57929	388.472731455468	0.011324596726
6	57936	388.501920947106	0.007588898526
6	57939	388.509516433217	0.008022741592
6	57944	388.548800097931	0.007630259429
6	57949	388.593358230792	0.007669551879
6	57955	388.604680621889	0.00767964893
6	57960	388.61760346618	0.007694844454
6	57965	388.667127410238	0.007756232687
6	57972	388.710539318071	0.007811628166
6	57975	388.718361421099	0.011816438837
6	57980	388.739901026313	0.007849293564
6	57985	388.749503780738	0.00786163522
6	57994	388.76552658867	0.007882882883
6	57997	388.773419248496	0.01575835467
6	58000	388.781322601776	0.022021862162
6	58005	388.7916698324	0.007916760914
6	58010	388.917616314342	0.008085942012
6	58015	388.928332854883	0.008100914246
6	58022	388.945087349546	0.008123476848
6	58025	388.953222154892	0.013413368957
6	58030	389.002574205881	0.008203445447
6	58035	389.077148602237	0.008310578179
6	58043	389.09152655687	0.008320456436
6	58046	389.099831219345	0.008873453029
6	58051	389.178931417085	0.00814995925
6	58058	389.208197288172	0.008094357077
6	58063	389.216275764802	0.013552724794
6	58066	389.224339351946	0.010531104752
6	58071	389.23341906592	0.008045977011
6	58076	389.265212378571	0.007987220447
6	58081	389.291308587465	0.007939208348
6	58086	389.328417720411	0.007872244714
6	58091	389.361583508971	0.007813372028
6	58096	389.40676472571	0.00773480663
6	58101	389.442798084107	0.007672914611
6	58106	389.455047691855	0.00765194578
6	58113	389.472428062104	0.007622781226
6	58116	389.48003841218	0.013538847444
6	58121	389.508642053957	0.007562662057
6	58126	389.576669379484	0.007451564829
6	58131	389.646963997983	0.007340604027
6	58136	389.768694549772	0.007156000818
6	58142	389.832396539718	0.007136303395
6	58147	389.908500043753	0.007166257166
6	58156	389.918680358748	0.00717066175
6	58159	389.925853959896	0.011326469901
6	58162	389.933030502853	0.017015970265
6	58167	389.977029319948	0.007193505292
6	58172	389.986622783765	0.007197943445
6	58205	390.407370748657	0.404652052045
6	58210	390.414744603076	0.352104000049
6	58213	390.422121565875	0.324480888957
6	58218	390.429501639676	0.294213948965
6	58221	390.436884827103	0.268486564785
6	58224	390.444271130786	0.27121925484
6	58227	390.451660553355	0.251806196352
6	58230	390.459053097446	0.25291774786
6	58233	390.466448765697	0.220967468046
6	58236	390.47384756075	0.217583243482
6	58239	390.48124948525	0.191456913426
6	58242	390.488654541846	0.131447379525
6	58247	390.496062733189	0.108755333682
6	58250	390.503474061934	0.098406252417
6	58255	390.51088853074	0.100426779014
6	58258	390.518306142269	0.093319694347
6	58261	390.525726899186	0.030669846344
6	58264	390.53315080416	0.029143011411
6	58269	390.560456641701	0.007435734013
6	58274	390.599694911438	0.007452358139
6	58279	390.716454300568	0.007502679528
6	58284	390.837020993852	0.007556131261
6	58291	390.89195910691	0.007579859231
6	58294	390.89954307224	0.012270197593
6	58299	390.925441619888	0.007595486111
6	58304	390.949903878951	0.007606215365
6	58309	391.037125662217	0.007645259939
6	58314	391.118655408628	0.007682177349
6	58319	391.155845816523	0.007699923001
6	58324	391.166749027278	0.007704160247
6	58329	391.179749624535	0.007710949548
6	58336	391.194247553665	0.007716900011
6	58339	391.201968709632	0.008683676145
6	58344	391.224821592985	0.007731389441
6	58351	391.257286145094	0.007746790615
6	58354	391.265036366529	0.010213167061
6	58359	391.309230379039	0.007770870337
6	58364	391.366256203812	0.007797705247
6	58369	391.427121727691	0.00782647585
6	58374	391.437279589152	0.007830853563
6	58381	391.449041369768	0.007836990596
6	58384	391.45688187156	0.01355573011
6	58389	391.532500438396	0.007876673793
6	58394	391.570769877406	0.007895330476
6	58399	391.600978017684	0.00790960452
6	58404	391.628575398844	0.00792303339
6	58409	391.673539561215	0.007944614686
6	58414	391.766479433796	0.00799086758
6	58419	391.824291131516	0.008019246191
6	58424	391.87773502814	0.008045977011
6	58431	391.971503507915	0.008093421205
6	58436	391.979600673907	0.014906635924
6	58439	391.987702525759	0.011021802852
6	58466	392.408321445554	0.405229905721
6	58475	392.416646849931	0.396113124912
6	58478	392.424977208136	0.333615184872
6	58483	392.433311533651	0.261370471267
6	58486	392.44165082362	0.269062057442
6	58493	392.449994089413	0.214452925827
6	58498	392.458342330319	0.206436907215
6	58501	392.46669455559	0.196960585387
6	58504	392.475051766669	0.142656910118
6	58507	392.483412970682	0.128972709627
6	58510	392.491779171232	0.127301028595
6	58513	392.500149373313	0.091472174762
6	58516	392.508524582693	0.099418400329
6	58519	392.516903802229	0.105585420237
6	58522	392.525288039862	0.099396251592
6	58525	392.533677301607	0.09176292181
6	58530	392.542070586979	0.098924139967
6	58533	392.550468907315	0.099238797973
6	58536	392.558871259974	0.021077109622
6	58541	392.571804748533	0.008409418549
6	58546	392.638895970574	0.008446965126
6	58551	392.690684673008	0.008475602373
6	58558	392.709876544696	0.008485877076
6	58561	392.718367568471	0.012105750859
6	58566	392.733099076764	0.008499271491
6	58571	392.884475029924	0.008584743684
6	58576	393.020482921812	0.008662294271
6	58581	393.042526325231	0.008675176602
6	58586	393.066056718392	0.00868917577
6	58591	393.117987781966	0.008719481814
6	58597	393.13808708709	0.008731445678
6	58602	393.153225691345	0.008662294271
6	58607	393.171034483613	0.008564786492
6	58612	393.194349975025	0.008440853732
6	58617	393.207660200121	0.008371203061
6	58622	393.324297638097	0.007809885083
6	58627	393.33894678954	0.007744219493
6	58633	393.379791971406	0.007568385771
6	58640	393.400328903204	0.007536606374
6	58643	393.407863076059	0.01416119931
6	58648	393.491187956515	0.007509118215
6	58653	393.500423520411	0.007506702413
6	58658	393.573988187598	0.007484229659
6	58663	393.584488719463	0.007481030245
6	58668	393.634828777496	0.007465870307
6	58673	393.746512527196	0.007432575918
6	58678	393.800098538149	0.007416825599
6	58683	393.85145672091	0.0074019245
6	58688	393.870754175386	0.007396449704
6	58693	393.91047321406	0.007384745226
6	58700	393.941062313904	0.007375408282
6	58703	393.948435391637	0.012221653522
6	58738	394.40724187875	0.391499123458
6	58743	394.414481510563	0.341734437994
6	58746	394.421719645192	0.334909980042
6	58751	394.428955535206	0.335128594652
6	58754	394.436189181997	0.324633641804
6	58757	394.443420586956	0.326227063991
6	58760	394.450650498131	0.322677090373
6	58763	394.457878169788	0.258805312719
6	58766	394.465103603314	0.264421451926
6	58769	394.472327545522	0.271468648448
6	58774	394.479549251908	0.278117514558
6	58777	394.486768723855	0.283049010551
6	58780	394.493985962746	0.279134297283
6	58783	394.5012017137	0.198208466286
6	58786	394.508415233898	0.106261268385
6	58789	394.515626524719	0.103331024487
6	58792	394.522836330054	0.096823827619
6	58795	394.530043908308	0.051926269483
6	58800	394.562119565757	0.007198683669
6	58807	394.599577762691	0.00718833436
6	58812	394.606763883213	0.009974875458
6	58815	394.613947791259	0.012992200302
6	58820	394.647432636655	0.007175071751
6	58825	394.702871175292	0.007159660428
6	58830	394.716809979162	0.007156000818
6	58835	394.724942667826	0.007153806847
6	58840	394.802975088702	0.007131940907
6	58845	394.844573714676	0.007121057986
6	58850	394.886437965446	0.007109486086
6	58857	394.903537358817	0.007429420505
6	58862	394.918741294268	0.007977207977
6	58867	394.94629204191	0.007985398129
6	58872	394.969697545048	0.007992692396
6	58877	395.072020680443	0.008024762123
6	58882	395.081383729943	0.008028443629
6	58889	395.091886404246	0.008031206976
6	58896	395.099920376471	0.014995121974
6	58899	395.107957115851	0.010493221977
6	58904	395.11599570106	0.016189489563
6	58907	395.124037056603	0.012118970092
6	58912	395.178430966914	0.008058945429
6	58917	395.19460811241	0.008063587144
6	58922	395.241713518923	0.008079409049
6	58927	395.271805119452	0.008088745089
6	58932	395.310194190889	0.008100914246
6	58937	395.366587297162	0.008119707691
6	58942	395.452134247336	0.008147113594
6	58948	395.530351376549	0.008104665972
6	58957	395.540525637899	0.00809810273
6	58960	395.548618123448	0.013980654093
6	58963	395.556705933962	0.021430631106
6	58968	395.580100687391	0.00807195572
6	58973	395.666195941565	0.008015573113
6	58978	395.697587608489	0.007995431182
6	58983	395.848353967045	0.007899785577
6	58990	395.880485955158	0.007879333633
6	58993	395.888359970906	0.009352018613
6	58998	395.942031133219	0.007840501792
6	59003	395.979958824711	0.00781773509
6	59037	396.408371203061	0.338989425628
6	59040	396.416754436594	0.343636260403
6	59044	396.42515074222	0.303755552362
6	59047	396.433546040853	0.310159877127
6	59050	396.441932287409	0.311956009885
6	59053	396.450309501387	0.304567599562
6	59058	396.458677702224	0.204667819587
6	59061	396.467036909294	0.209316212091
6	59066	396.475388138118	0.147527168084
6	59069	396.483730409599	0.151744085504
6	59072	396.492063742932	0.147611020292
6	59075	396.50038815725	0.132094615608
6	59078	396.508703671624	0.135846265597
6	59081	396.517011290898	0.117737280114
6	59084	396.525310046085	0.068641330926
6	59087	396.53359995608	0.059416831775
6	59092	396.613447799	0.008208255159
6	59099	396.651690766991	0.008168981211
6	59102	396.659852128773	0.011557118392
6	59107	396.80747338916	0.008015573113
6	59112	396.844317725872	0.007979936161
6	59119	396.908803092114	0.007918552036
6	59122	396.916713590475	0.015483054911
6	59129	396.959662930888	0.007870474477
6	59132	396.96752544914	0.014468159453
6	59137	396.97975245411	0.007851934941
6	59142	397.033531348088	0.007802050825
6	59147	397.047527173017	0.007789028597
6	59152	397.106642514475	0.00773480663
6	59157	397.136261235862	0.007708402158
6	59162	397.151289891471	0.007694844454
6	59167	397.164177088914	0.007683863886
6	59174	397.184953318096	0.007665352606
6	59177	397.192611961422	0.008805121358
6	59182	397.244331069154	0.007612833061
6	59188	397.315329102397	0.007676280294
6	59195	397.383660703618	0.007763114118
6	59198	397.391434162807	0.011034340897
6	59203	397.399492259617	0.007783831869
6	59208	397.545175370997	0.007977207977
6	59213	397.598932134767	0.008050603795
6	59220	397.60945708914	0.008065445328
6	59223	397.617533701578	0.008293597566
6	59228	397.664162238826	0.008142375247
6	59235	397.684947278528	0.008171842167
6	59238	397.693130584584	0.014148303168
6	59243	397.731637678166	0.008239171375
6	59248	397.788604761296	0.008322434907
6	59253	397.829184774977	0.008382229673
6	59258	397.854604747425	0.008420546133
6	59263	397.879063146775	0.008458192363
6	59268	397.999204549558	0.008646245059
6	59302	398.40849823965	0.379150167311
6	59305	398.416992354442	0.363916509126
6	59308	398.425482348378	0.370591599597
6	59311	398.433967196863	0.326451536159
6	59316	398.442447933476	0.323030424697
6	59319	398.4509245622	0.322245403455
6	59322	398.459397087012	0.322188621027
6	59325	398.46786448752	0.315674250195
6	59328	398.476327793045	0.321150918002
6	59333	398.484787007547	0.275212203329
6	59336	398.493242134978	0.275519279946
6	59339	398.501692159121	0.211807953559
6	59344	398.510138105067	0.151432413189
6	59347	398.518579976751	0.155936709395
6	59350	398.527017778101	0.085062600664
6	59353	398.535450497051	0.052367052904
6	59356	398.543879154486	0.034137836271
6	59361	398.655800124594	0.008372204282
6	59366	398.678972635953	0.008360205422
6	59371	398.781644640886	0.008309591643
6	59376	398.803406238049	0.008298755187
6	59381	398.819256120293	0.008290891863
6	59386	398.931036331046	0.00823626309
6	59391	398.943454019593	0.008229485069
6	59398	399.042357107999	0.008182349503
6	59403	399.050535633528	0.011304534587
6	59406	399.058709384112	0.01093937721
6	59413	399.209087660192	0.008102789675
6	59416	399.217186699877	0.012708436699
6	59423	399.263818308876	0.008076612438
6	59426	399.27189119551	0.014192374878
6	59431	399.300163023006	0.008059873345
6	59436	399.315648101486	0.008052455999
6	59441	399.3413973768	0.008040431886
6	59446	399.360306561595	0.008032128514
6	59451	399.417747197924	0.008005489478
6	59456	399.427703197807	0.00800091439
6	59461	399.464595883973	0.007983576642
6	59466	399.553055129632	0.007943713118
6	59471	399.57644858429	0.007932910245
6	59476	399.63994318102	0.007904245709
6	59481	399.660331423233	0.007895330476
6	59486	399.708063701104	0.007874015748
6	59491	399.724707970957	0.00786693639
6	59496	399.747848046598	0.00785634119
6	59501	399.870361014451	0.007802050825
6	59506	399.9464851378	0.007769145394

