file 2194125 1613479552                                         
version 2
run Exponential-capacity-20-20210216-13:45:52-10588
attr configname Exponential-capacity
attr datetime 20210216-13:45:52
attr experiment Exponential-capacity
attr inifile aerocom.ini
attr iterationvars "$0=0.5, $1=50, $2=4, $3=0.5"
attr iterationvarsf 0.5,50,4,0.5-
attr measurement "$0=0.5, $1=50, $2=4, $3=0.5"
attr network Aerocom
attr processid 10588
attr repetition 2
attr replication #2
attr resultdir results
attr runnumber 20
attr seedset 2
param **.t 0.5s
param **.k 50ms
param **.X 4s
param **.m 0.5s
param **.tDistribution "\"exponential\""
param **.operationMode 0
param **.s "70 byte"
param **.dimPoolMax 10000
param **.dimPoolMin 8000
param **.nDL 10
param **.nA 1
param **.DLMaxCapacity 0
param **.trasmitting false

vector 0 Aerocom.aircraft[0].dataLink[0] actualCapacity:vector ETV
attr "" ""
attr source computeActualCapacity
vector 1 Aerocom.aircraft[0].dataLink[1] actualCapacity:vector ETV
attr "" ""
attr source computeActualCapacity
vector 2 Aerocom.aircraft[0].dataLink[2] actualCapacity:vector ETV
attr "" ""
attr source computeActualCapacity
vector 3 Aerocom.aircraft[0].dataLink[3] actualCapacity:vector ETV
attr "" ""
attr source computeActualCapacity
vector 4 Aerocom.aircraft[0].dataLink[4] actualCapacity:vector ETV
attr "" ""
attr source computeActualCapacity
vector 5 Aerocom.aircraft[0].dataLink[5] actualCapacity:vector ETV
attr "" ""
attr source computeActualCapacity
vector 6 Aerocom.aircraft[0].dataLink[6] actualCapacity:vector ETV
attr "" ""
attr source computeActualCapacity
vector 7 Aerocom.aircraft[0].dataLink[7] actualCapacity:vector ETV
attr "" ""
attr source computeActualCapacity
vector 8 Aerocom.aircraft[0].dataLink[8] actualCapacity:vector ETV
attr "" ""
attr source computeActualCapacity
vector 9 Aerocom.aircraft[0].dataLink[9] actualCapacity:vector ETV
attr "" ""
attr source computeActualCapacity
vector 10 Aerocom.aircraft[0].packetGenerator arrivalTime:vector ETV
attr "" ""
attr source computeArrivalTime
vector 11 Aerocom.aircraft[0].linkSelector waitingTime:vector ETV
attr "" ""
attr source computeWaitingTime
vector 12 Aerocom.aircraft[0].linkSelector queueLength:vector ETV
attr "" ""
attr source computeQueueLength
vector 13 Aerocom.aircraft[0].linkSelector serviceTime:vector ETV
attr "" ""
attr source computeServiceTime
vector 14 Aerocom.aircraft[0].linkSelector responseTime:vector ETV
attr "" ""
attr source computeResponseTime
vector 15 Aerocom.aircraft[0].dataLink[4] tDistribution:vector ETV
attr "" ""
attr source computeTDistribution
vector 16 Aerocom.aircraft[0].dataLink[9] tDistribution:vector ETV
attr "" ""
attr source computeTDistribution
vector 17 Aerocom.aircraft[0].dataLink[2] tDistribution:vector ETV
attr "" ""
attr source computeTDistribution
vector 18 Aerocom.aircraft[0].dataLink[1] tDistribution:vector ETV
attr "" ""
attr source computeTDistribution
vector 19 Aerocom.aircraft[0].dataLink[7] tDistribution:vector ETV
attr "" ""
attr source computeTDistribution
vector 20 Aerocom.aircraft[0].dataLink[5] tDistribution:vector ETV
attr "" ""
attr source computeTDistribution
vector 21 Aerocom.aircraft[0].dataLink[0] tDistribution:vector ETV
attr "" ""
attr source computeTDistribution
vector 22 Aerocom.aircraft[0].dataLink[8] tDistribution:vector ETV
attr "" ""
attr source computeTDistribution
vector 23 Aerocom.aircraft[0].dataLink[3] tDistribution:vector ETV
attr "" ""
attr source computeTDistribution
vector 24 Aerocom.aircraft[0].dataLink[6] tDistribution:vector ETV
attr "" ""
attr source computeTDistribution
0	3622 32862 1221 49254 10 400 1392 8011 9982 12708649 116375944221
1	36484 45041 1221 49254 10 400 1795 8032 9988 16638923 154701800937
2	81525 32335 1221 49254 10 400 1380 8025 9987 12778976 118664086590
3	113860 41425 1221 49254 10 400 1679 8056 9971 15530949 144029895643
4	155285 36575 1221 49254 10 400 1517 8012 9959 14051721 130584946241
5	191860 37997 1221 49254 10 400 1566 8022 9978 14582050 136205944150
6	229857 40458 1221 49254 10 400 1641 8028 9981 15239830 141894512756
7	270315 37634 1221 49254 10 400 1548 8043 9978 14343184 133240518482
8	307949 33383 1221 49254 10 400 1408 8036 9981 13013005 120609455731
9	341332 36969 1221 49254 10 400 1527 8009 9995 14138654 131322829876
10	378301 316095 1223 49245 10.009046581726 399.97097773048 7643 1.717179e-006 0.55693822094 390.06880740153 39.713779780724
11	694396 283245 1224 49247 10.009046581726 399.972761109512 7643 0 4.173020758462 4456.5391669542 6952.3688820273
12	977641 217310 1224 49247 10.009046581726 399.972761109512 7643 0 84 85922 2691254
13	1194951 343179 1224 49247 10.009046581726 399.972761109512 7643 0.0070035017508754 0.00871839581517 56.349414937514 0.4162159075512
14	1538130 316150 1225 49250 10.01614525326 399.980071814473 7643 0.007003501751 4.180154152939 4512.8885818915 7018.1810639983
15	1854280 33822 1248 49175 10.162350335492 399.557132409877 779 0.00058957674707913 3.6283714383534 391.59541878135 415.01298547421
16	1888102 32700 1251 49168 10.206470056365 399.518541338397 754 0.00059160080491825 3.5116036912708 390.07744971619 404.55139725648
17	1920802 35049 1257 49203 10.220926336418 399.74303304599 807 0.00033187725437789 2.6876159157321 390.28746093496 359.33867690759
18	1955851 35753 1261 49063 10.231070570013 398.833424272917 823 0.00083131507087317 3.1229545787128 389.85701768492 366.53037532545
19	1991604 34122 1296 49230 10.563737682349 399.840620911304 785 0.00037208571592645 3.6611044395179 389.68089320656 404.0064416672
20	2025726 34394 1299 49116 10.587818711263 399.288274335633 792 0.00020412202666193 2.9057882684976 389.82506612159 373.81622392629
21	2060120 33629 1303 49242 10.60670321773 399.962513772338 773 0.00090236662441967 4.4561266191636 393.81193717377 446.9900336573
22	2093749 33604 1375 49229 11.094711622537 399.839199635025 774 0.00024187057767713 3.0758182532393 389.40609766046 382.99501037556
23	2127353 33872 1431 49118 11.765387951768 399.32225448279 780 0.00050532535334727 5.0995094750189 389.22719569684 410.62137295466
24	2161225 32898 1449 49241 11.840123531286 399.895811930559 756 5.4463101410255e-005 3.8535725813892 388.21719007396 420.92893785527

