file 33353634 1608738150                                        
version 2
run Exponential-selection-capacity-exponential-interarrival-time-5-20201223-16:41:56-12313
attr configname Exponential-selection-capacity-exponential-interarrival-time
attr datetime 20201223-16:41:56
attr experiment Exponential-selection-capacity-exponential-interarrival-time
attr inifile ../simulations/aerocom.ini
attr iterationvars "$0=0.5s, $1=0.5s, $2=0.5, $3=1, $4=4s"
attr iterationvarsf 0.5s,0.5s,0.5,1,4s-
attr measurement "$0=0.5s, $1=0.5s, $2=0.5, $3=1, $4=4s"
attr network Aerocom
attr processid 12313
attr repetition 5
attr replication #5
attr resultdir results
attr runnumber 5
attr seedset 5
param **.t 0.5s
param **.k 0.5s
param **.dataLink[*].s "1500 byte"
param **.dataLink[*].X 0.5
param **.nDL 1
param **.dataLink[*].dimPoolMax 400
param **.dataLink[*].dimPoolMin 100
param **.setCapacityDistribution "\"exponential\""
param **.aircraft[*].distribution "\"exponential\""
param **.aircraft[*].m 4s
param **.aircraft[*].linkSelector.DLMaxCapacity 0
param **.aircraft[*].linkSelector.trasmitting false
param **.operationMode 0

vector 0 Aerocom.aircraft[0].dataLink[0] waitingTime:vector ETV
attr "" ""
attr source computeWaitingTime
vector 1 Aerocom.aircraft[0].dataLink[0] responseTime:vector ETV
attr "" ""
attr source computeResponseTime
vector 2 Aerocom.aircraft[0].dataLink[0] queueLength:vector ETV
attr "" ""
attr source computeQueueLength
2	1376 997887 127739 336622 10001.16620628837 26341.962483006142 32768 0 102 538667 17568471
0	999263 1392705 127729 336625 10000.65442216699 26342.391631077975 32768 -3e-12 48.449384874452 268917.02922528 4219364.2271862
1	2391968 1411211 127729 336625 10000.65442216699 26342.391631077975 32768 2.999999999998 56.449384874452 470243.02922528 8903782.6818037
0	3803179 1398387 336627 545271 26342.505373645466 42657.293305052833 32768 -6e-12 47.151977100401 295395.87341587 4746777.1166163
1	5201566 1416809 336627 545271 26342.505373645466 42657.293305052833 32768 2.999999999995 55.798370815606 496754.87341587 9770725.4214203
2	6618375 999556 336640 545318 26342.802791219994 42661.871026270702 32768 0 95 592768 19574018
0	7617931 1399593 545273 754025 42657.367709171715 59002.777694866089 32768 -4e-12 45.912781488554 315411.0480933 5355260.2999044
1	9017524 1417996 545273 754025 42657.367709171715 59002.777694866089 32768 2.999999999996 54.713227242976 515354.0480933 10563335.381823
2	10435520 1000279 545321 754129 42661.965632704261 59011.259366808928 32768 0 90 630605 21807651
2	11435799 999250 754132 962684 59011.608166388717 75319.495930797302 32768 0 123 648031 26565383
0	12435049 1396841 754027 962733 59002.880140285785 75322.305993000394 32768 -1.2e-11 54.515217429567 321660.01129052 6261603.0339807
1	13831890 1415721 754027 962733 59002.880140285785 75322.305993000394 32768 2.999999999994 65.298397461918 522379.01129052 11597878.523351
2	15247611 1026073 962697 1171283 75319.769905286562 91669.874150822763 32768 0 89 539291 15622253
0	16273684 1422158 962746 1171361 75323.123345586521 91675.891278480015 32768 -8e-12 39.047879316226 270866.18407716 3836687.844856
1	17695842 1442799 962746 1171361 75323.123345586521 91675.891278480015 32768 2.999999999992 50.961516682614 471328.18407716 8541492.2550362
0	19138641 1175621 1171363 1341436 91675.892448379945 105036.635179993459 26718 -8e-12 42.20156856307 220695.77057748 3101803.5585789
1	20314262 1192664 1171363 1341436 91675.892448379945 105036.635179993459 26718 2.999999999992 50.202071348566 384996.77057748 6963538.2958425
2	21506926 851629 1171286 1341435 91669.905296000352 105036.561593996515 26707 0 91 443567 13079647
2	22358555 1064232 1341441 1550050 105036.970106438616 121379.64723983309 32768 0 93 555194 17640936
0	23422787 1461958 1341442 1550126 105036.978383535042 121385.021025192997 32768 -8e-12 38.61818331628 275766.76080208 4205936.6978994
1	24884745 1482495 1341442 1550126 105036.978383535042 121385.021025192997 32768 2.999999999992 48.709601018476 477399.76080208 9014323.9463707
2	26367240 1065653 1550055 1759269 121379.743176864456 137802.022014778725 32768 0 121 628651 22841531
0	27432893 1464323 1550138 1759281 121385.413433478547 137803.388902561697 32768 -2.4e-11 56.34472797408 314716.71086762 5568167.5310838
1	28897216 1483370 1550138 1759281 121385.413433478547 137803.388902561697 32768 2.999999999979 69.609758093699 515843.71086762 10831345.458939
0	30380586 1084139 1759296 1914314 137804.950124909985 149997.818890685415 24278 -2.4e-11 48.053622153011 219661.03386291 3439138.8342759
1	31464725 1098246 1759296 1914314 137804.950124909985 149997.818890685415 24278 2.999999999987 57.370969982908 368092.03386291 7150728.7078683
2	32562971 790662 1759294 1914327 137804.444930158433 149999.626022949907 24308 0 94 435164 13694840

