file 55245370 1608672384                                        
version 2
run Exponential-selection-capacity-exponential-interarrival-time-0-20201222-22:26:01-10884
attr configname Exponential-selection-capacity-exponential-interarrival-time
attr datetime 20201222-22:26:01
attr experiment Exponential-selection-capacity-exponential-interarrival-time
attr inifile aerocom.ini
attr iterationvars "$0=0.5s, $1=0.5s, $2=0.5, $3=1, $4=4s"
attr iterationvarsf 0.5s,0.5s,0.5,1,4s-
attr measurement "$0=0.5s, $1=0.5s, $2=0.5, $3=1, $4=4s"
attr network Aerocom
attr processid 10884
attr repetition 0
attr replication #0
attr resultdir results
attr runnumber 0
attr seedset 0
param **.t 0.5s
param **.k 0.5s
param **.dataLink[*].s "1500 byte"
param **.dataLink[*].X 0.5
param **.nDL 1
param **.dataLink[*].dimPoolMax 400
param **.dataLink[*].dimPoolMin 100
param **.setCapacityDistribution "\"exponential\""
param **.aircraft[*].distribution "\"exponential\""
param **.aircraft[*].m 4s
param **.aircraft[*].linkSelector.DLMaxCapacity 0
param **.aircraft[*].linkSelector.trasmitting false
param **.operationMode 0

vector 0 Aerocom.aircraft[0].dataLink[0] actualCapacity:vector ETV
attr "" ""
attr source computeActualCapacity
vector 1 Aerocom.aircraft[0].dataLink[0] meanMalus:vector ETV
attr "" ""
attr source computeMeanMalus
vector 2 Aerocom.aircraft[0].dataLink[0] capacity:vector ETV
attr "" ""
attr source computeCapacity
vector 3 Aerocom.aircraft[0].dataLink[0] queueLength:vector ETV
attr "" ""
attr source computeQueueLength
vector 4 Aerocom.aircraft[0].dataLink[0] waitingTime:vector ETV
attr "" ""
attr source computeWaitingTime
vector 5 Aerocom.aircraft[0].dataLink[0] responseTime:vector ETV
attr "" ""
attr source computeResponseTime
0	1723 1025489 128334 313989 10000 24531.801164959346 32768 100 398 8180261 2206953755
3	1027212 1033038 128340 336995 10000.370125876242 26319.699837177406 32768 0 102 610729 20852805
4	2060250 1429629 128340 337041 10000.370125876242 26324.550713262751 32768 -3e-012 50.613953399632 305192.88028989 5134056.5120788
5	3489879 1446353 128340 337041 10000.370125876242 26324.550713262751 32768 2.999999999999 57.769787875227 505936.88028989 10254224.198788
2	4936232 1077797 128337 337772 10000.33654955662 26381.930974226323 32768 100 399 8177063 2286024795
0	6014029 1023513 313991 499234 24532 38974.77108327381 32768 100 398 8091726 2161589780
3	7037542 1032133 336998 545403 26319.964179132675 42626.38119005554 32768 0 103 567097 18264763
4	8069675 1427183 337043 545513 26324.920694488519 42633.860048145938 32768 -6e-012 51.179675806472 282336.55010929 4424890.4571239
5	9496858 1445482 337043 545513 26324.920694488519 42633.860048145938 32768 2.999999999996 62.466145479622 484676.5501093 9332768.1541737
2	10942340 1077617 337793 548364 26383.275492005092 42850.98715956921 32768 100 399 8152481 2275425333
0	12019957 1025743 499236 684803 38974.92294322353 53553.388801166681 32768 100 398 8136316 2186497498
3	13045700 1032310 545411 753859 42627.305892038358 58847.666971434518 32768 0 110 615231 22719901
4	14078010 1432873 545518 753884 42634.537462155288 58849.855229944596 32768 -4e-012 53.07234477278 303910.21658619 5355677.6481662
5	15510883 1451213 545518 753884 42634.537462155288 58849.855229944596 32768 2.999999999996 63.576903970927 505821.21658619 10520032.100106
2	16962096 1077770 548367 758636 42851.582359286796 59233.664401050703 32768 100 399 8164593 2279801313
0	18039866 1027222 684805 870267 53553.51281829997 67992 32768 100 398 8137260 2183893918
3	19067088 1032778 753867 962895 58848.023085822318 75301.826618963281 32768 0 77 603500 19517786
4	20099866 1434194 753886 962969 58850.133060047201 75310.180353180878 32768 -1.2e-011 43.07517583876 303712.76371169 4821555.7059998
5	21534060 1451451 753886 962969 58850.133060047201 75310.180353180878 32768 2.99999999999 55.07517583876 503983.76371168 9936354.2140585
2	22985511 1077619 758637 967111 59233.709481773444 75631.960325363251 32768 100 399 8171359 2283403707
0	24063130 1034278 870293 1056105 67993.919447419711 82610.263442064062 32768 100 398 8150479 2191225895
3	25097408 1059362 962902 1172032 75302.423510937212 91769.472951827426 32768 0 97 598976 20301346
4	26156770 1457810 962971 1172037 75310.383597551252 91769.716712542361 32768 -8e-012 45.260096945159 301138.36188957 4976143.5893145
5	27614580 1475947 962971 1172037 75310.383597551252 91769.716712542361 32768 2.999999999993 53.511014161447 502724.36188957 10087305.46812
2	29090527 1105277 967114 1174740 75632.076776382774 91999.006812368368 32768 100 399 8148759 2274275935
0	30195804 1058487 1056107 1241978 82610.351275642301 97272.69806595432 32768 100 398 8174838 2205458736
3	31254291 1083264 1172041 1381106 91769.885324265298 108287.048121642427 32768 0 116 661155 25389211
4	32337555 1482249 1172059 1381328 91772.583601775046 108301.702514782098 32768 -8e-012 64.776874948177 331535.80612704 6277707.4602652
5	33819804 1500229 1172059 1381328 91772.583601775046 108301.702514782098 32768 2.999999999992 70.128056483559 531611.80612704 11706429.852534
2	35320033 1127147 1174751 1382407 91999.374386632308 108382.519549741931 32768 100 399 8206084 2299786630
0	36447180 1084467 1241983 1427650 97273.108570458022 111919.85275747985 32768 100 399 8183315 2206418749
3	37531647 1098437 1381111 1590102 108287.539274660405 124656.668882387934 32768 0 104 627254 21905142
4	38630084 1497990 1381330 1590189 108301.709174353767 124664.13513390698 32768 -8e-012 53.400326807501 313596.52986152 5476283.1893205
5	40128074 1516053 1381330 1590189 108301.709174353767 124664.13513390698 32768 2.999999999993 63.602428139944 513294.52986152 10670513.754764
2	41644127 1143215 1382419 1590950 108383.199881740104 124722.156695576691 32768 100 399 8199599 2298674785
0	42787342 1090149 1427652 1613481 111920 126515.549096073737 32768 100 398 8208877 2220809785
2	43877491 1143281 1590956 1796671 124723.508769457807 141015.100749319168 32768 100 399 8180864 2288205090
0	45020772 1090597 1613483 1799555 126515.558603103945 141246.136008814199 32768 100 399 8157141 2193656623
4	46111369 1497218 1590195 1799791 124664.421872285553 141263.931392054564 32768 -2.4e-011 50.665986332383 311203.58537134 5609075.4691873
5	47608587 1515695 1590195 1799791 124664.421872285553 141263.931392054564 32768 2.99999999998 62.836656173584 511793.58537134 10814761.416733
3	49124282 1098108 1590106 1799810 124657.125134461921 141264.816215311099 32768 0 113 613507 22295607
1	50222390 1460198 128336 1816226 10000.292836101505 142558.335749083596 32768 10000.792836102 142558.83574908 2499103580.898 2.385602725427e+014
0	51682588 655732 1799563 1911441 141246.469470847819 150000 19712 100 398 4893122 1312459540
1	52338320 84001 1816255 1911379 142560.590960423738 149996.355907634989 1841 142561.09096042 149996.85590763 269283430.65677 39396613308330
2	52422321 630750 1796675 1911440 141015.875345334597 149999.77689386553 18079 100 399 4508441 1259419407
3	53053071 587066 1799813 1911439 141265.039999955219 149999.52123063144 17533 0 88 294217 8970377
4	53640137 797682 1799796 1911423 141264.025427809048 149999.017684075894 17479 -2.4e-011 41.312679131467 146147.33049037 2157882.8516141
5	54437819 807549 1799796 1911423 141264.025427809048 149999.017684075894 17479 2.999999999976 51.39314197087 253626.33049037 4728242.3175908

