file 30823242 1609663425                                        
version 2
run Exponential-selection-capacity-exponential-interarrival-time-4-20210103-09:43:34-6176
attr configname Exponential-selection-capacity-exponential-interarrival-time
attr datetime 20210103-09:43:34
attr experiment Exponential-selection-capacity-exponential-interarrival-time
attr inifile aerocom.ini
attr iterationvars $0=10
attr iterationvarsf 10-
attr measurement $0=10
attr network Aerocom
attr processid 6176
attr repetition 0
attr replication #0
attr resultdir results
attr runnumber 4
attr seedset 0
param **.t 0.5s
param **.k 0.5s
param **.dataLink[*].s "70 byte"
param **.dataLink[*].X 10
param **.nDL 1
param **.dataLink[*].dimPoolMax 100
param **.dataLink[*].dimPoolMin 10
param **.tDistribution "\"exponential\""
param **.aircraft[*].m 1s
param **.aircraft[*].linkSelector.DLMaxCapacity 0
param **.aircraft[*].linkSelector.trasmitting false
param **.operationMode 0

vector 0 Aerocom.aircraft[0].dataLink[0] queueLength:vector ETV
attr "" ""
attr source computeQueueLength
vector 1 Aerocom.aircraft[0].dataLink[0] waitingTime:vector ETV
attr "" ""
attr source computeWaitingTime
vector 2 Aerocom.aircraft[0].dataLink[0] responseTime:vector ETV
attr "" ""
attr source computeResponseTime
0	1247 1012599 148816 390771 10000.335380543637 26319.464179132675 32768 0 25 53495 269967
1	1013846 1222337 148816 390786 10000.335380543637 26321 32768 -3e-012 7.975403336071 26573.452946419 54754.955720073
2	2236183 1249006 148816 390786 10000.335380543637 26321 32768 -3e-012 10.788390425816 54417.452946419 162227.08653342
0	3485189 1012567 390785 632572 26320.654348163831 42626.805892038358 32768 0 19 54737 278009
1	4497756 1232326 390787 632595 26321 42627.69951896045 32768 -6e-012 7.154505593787 27049.633697083 56011.823613137
2	5730082 1264097 390787 632595 26321 42627.69951896045 32768 -6e-012 11.03724300572 55218.633697085 164516.80468962
0	6994179 1012564 632577 874090 42626.988541140419 58847.523085822318 32768 0 22 53679 268609
1	8006743 1231659 632597 874130 42627.69951896045 58850.901434789813 32768 -4e-012 7.910268197264 26652.968771584 55081.381162796
2	9238402 1265739 632597 874130 42627.69951896045 58850.901434789813 32768 -4e-012 13.3246525554 54678.968771586 164022.70991614
0	10504141 1028527 874097 1116734 58848.041532348462 75301.923510937212 32768 0 19 52515 260185
1	11532668 1252676 874132 1116735 58850.901434789813 75301.923510937212 32768 -1.2e-011 7.10138709407 26139.261811506 52628.742730129
2	12785344 1288198 874132 1116735 58850.901434789813 75301.923510937212 32768 -1.2e-011 11.767649123711 54145.261811505 160952.72902719
0	14073542 1045295 1116745 1359531 75302.243373671363 91769.385324265298 32768 0 20 53194 264374
1	15118837 1268733 1116745 1359532 75302.243373671363 91770 32768 -8e-012 10.205915591937 26753.456331924 55808.574221488
2	16387570 1304513 1116745 1359532 75302.243373671363 91770 32768 -8e-012 11.205915591937 54992.456331923 166172.55932066
0	17692083 1061863 1359538 1602417 91770.205778160665 108287.039274660405 32768 0 16 52518 252254
1	18753946 1291165 1359548 1602417 91771 108287.039274660405 32768 -8e-012 6.68036154005 26265.135433631 52637.106752
2	20045111 1328005 1359548 1602417 91771 108287.039274660405 32768 -8e-012 10.620123492736 53724.13543363 157287.88118764
0	21373116 1078068 1602423 1844755 108287.34256221346 124656.625134461921 32768 0 17 52213 244475
1	22451184 1305577 1602442 1844766 108288 124657.390967877016 32768 -8e-012 7.000000000001 26187.33943579 51633.56446504
2	23756761 1340931 1602442 1844766 108288 124657.390967877016 32768 -8e-012 11.068515897913 53860.339435789 158459.64637679
0	25097692 1078137 1844766 2088395 124657.390967877016 141264.539999955219 32768 0 20 52136 254590
1	26175829 1307642 1844774 2088395 124657.905353546983 141264.539999955219 32768 -2.4e-011 7.657929239577 26351.619600985 53827.481848942
2	27483471 1342927 1844774 2088395 124657.905353546983 141264.539999955219 32768 -2.4e-011 12.399258793023 54232.619600984 161407.86918139
0	28826398 576936 2088404 2217928 141265.128028657286 149999.848571743832 17535 0 19 28724 137966
1	29403334 701179 2088404 2217912 141265.128028657286 149999 17527 -2.4e-011 6.965780859866 14304.75088939 28372.867685509
2	30104513 718727 2088404 2217912 141265.128028657286 149999 17527 -2.4e-011 10.075937826048 29376.75088939 86959.95998541

