version 2
run Exponential-capacity-12-20210216-13:45:44-8516
attr configname Exponential-capacity
attr datetime 20210216-13:45:44
attr experiment Exponential-capacity
attr inifile aerocom.ini
attr iterationvars "$0=0.5, $1=50, $2=0.5, $3=0.5"
attr iterationvarsf 0.5,50,0.5,0.5-
attr measurement "$0=0.5, $1=50, $2=0.5, $3=0.5"
attr network Aerocom
attr processid 8516
attr repetition 0
attr replication #0
attr resultdir results
attr runnumber 12
attr seedset 0
param **.t 0.5s
param **.k 50ms
param **.X 0.5s
param **.m 0.5s
param **.tDistribution "\"exponential\""
param **.operationMode 0
param **.s "70 byte"
param **.dimPoolMax 10000
param **.dimPoolMin 8000
param **.nDL 10
param **.nA 1
param **.DLMaxCapacity 0
param **.trasmitting false

vector 0 Aerocom.aircraft[0].dataLink[0] actualCapacity:vector ETV
attr "" ""
attr source computeActualCapacity
vector 1 Aerocom.aircraft[0].dataLink[1] actualCapacity:vector ETV
attr "" ""
attr source computeActualCapacity
vector 2 Aerocom.aircraft[0].dataLink[2] actualCapacity:vector ETV
attr "" ""
attr source computeActualCapacity
vector 3 Aerocom.aircraft[0].dataLink[3] actualCapacity:vector ETV
attr "" ""
attr source computeActualCapacity
vector 4 Aerocom.aircraft[0].dataLink[4] actualCapacity:vector ETV
attr "" ""
attr source computeActualCapacity
vector 5 Aerocom.aircraft[0].dataLink[5] actualCapacity:vector ETV
attr "" ""
attr source computeActualCapacity
vector 6 Aerocom.aircraft[0].dataLink[6] actualCapacity:vector ETV
attr "" ""
attr source computeActualCapacity
vector 7 Aerocom.aircraft[0].dataLink[7] actualCapacity:vector ETV
attr "" ""
attr source computeActualCapacity
vector 8 Aerocom.aircraft[0].dataLink[8] actualCapacity:vector ETV
attr "" ""
attr source computeActualCapacity
vector 9 Aerocom.aircraft[0].dataLink[9] actualCapacity:vector ETV
attr "" ""
attr source computeActualCapacity
vector 10 Aerocom.aircraft[0].packetGenerator arrivalTime:vector ETV
attr "" ""
attr source computeArrivalTime
vector 11 Aerocom.aircraft[0].linkSelector waitingTime:vector ETV
attr "" ""
attr source computeWaitingTime
vector 12 Aerocom.aircraft[0].linkSelector queueLength:vector ETV
attr "" ""
attr source computeQueueLength
vector 13 Aerocom.aircraft[0].linkSelector serviceTime:vector ETV
attr "" ""
attr source computeServiceTime
vector 14 Aerocom.aircraft[0].linkSelector responseTime:vector ETV
attr "" ""
attr source computeResponseTime
vector 15 Aerocom.aircraft[0].dataLink[0] tDistribution:vector ETV
attr "" ""
attr source computeTDistribution
vector 16 Aerocom.aircraft[0].dataLink[3] tDistribution:vector ETV
attr "" ""
attr source computeTDistribution
vector 17 Aerocom.aircraft[0].dataLink[7] tDistribution:vector ETV
attr "" ""
attr source computeTDistribution
vector 18 Aerocom.aircraft[0].dataLink[2] tDistribution:vector ETV
attr "" ""
attr source computeTDistribution
vector 19 Aerocom.aircraft[0].dataLink[9] tDistribution:vector ETV
attr "" ""
attr source computeTDistribution
vector 20 Aerocom.aircraft[0].dataLink[5] tDistribution:vector ETV
attr "" ""
attr source computeTDistribution
vector 21 Aerocom.aircraft[0].dataLink[6] tDistribution:vector ETV
attr "" ""
attr source computeTDistribution
vector 22 Aerocom.aircraft[0].dataLink[1] tDistribution:vector ETV
attr "" ""
attr source computeTDistribution
vector 23 Aerocom.aircraft[0].dataLink[8] tDistribution:vector ETV
attr "" ""
attr source computeTDistribution
vector 24 Aerocom.aircraft[0].dataLink[4] tDistribution:vector ETV
attr "" ""
attr source computeTDistribution
0	1262	10	9639
0	1265	10.005245567619	9642
0	1271	10.047399719226	9663
0	1277	10.063135802269	9667
0	1283	10.123961234941	9679
0	1289	10.190399128629	9692
0	1296	10.207416465541	9695
0	1304	10.371173624427	9728
0	1310	10.399568832101	9733
0	1315	10.413869880726	9736
0	1321	10.484421101191	9750
0	1326	10.5	9753
0	1377	11	9853
0	1382	11.080278566735	9789
0	1387	11.137258964912	9587
0	1392	11.166890166285	9482
0	1397	11.196709136001	9377
0	1403	11.290382129994	9046
0	1413	11.482532459156	8536
0	1417	11.5	8558
0	1476	12	8981
0	1519	12.5	8289
0	1605	13	8466
0	1691	13.5	8643
0	1775	14	8513
0	1842	14.5	8134
0	1910	15	8088
0	1945	15.5	8791
0	2009	16	8659
0	2070	16.5	8614
0	2130	17	9859
0	2134	17.046940025056	9859
0	2142	17.060056490514	9859
0	2145	17.067156602087	9858
0	2153	17.133035356209	9858
0	2161	17.155347997235	9858
0	2169	17.29957858484	9857
0	2175	17.365043503041	9856
0	2181	17.434358070642	9855
0	2186	17.443772819403	9855
0	2193	17.464503446536	9855
0	2197	17.5	9855
0	2200	17.501310001535	9855
0	2206	17.534933027377	9855
0	2209	17.542036020781	9855
0	2217	17.558425476155	9854
0	2222	17.56958243656	9854
0	2227	17.579473911933	9854
0	2231	17.586577626161	9854
0	2237	17.593681340389	9854
0	2244	17.668705269119	9853
0	2249	17.699835136318	9853
0	2254	17.712510421575	9853
0	2261	17.816311974597	9852
0	2266	17.837494829665	9852
0	2276	17.981722044085	9851
0	2280	18	9851
0	2285	18.113332987212	9850
0	2291	18.160189923098	9849
0	2297	18.221129763265	9849
0	2303	18.266527964631	9849
0	2307	18.273635285171	9844
0	2314	18.344687366176	9602
0	2320	18.353685233254	9572
0	2327	18.388345221731	9454
0	2333	18.436919329636	9289
0	2337	18.444455124662	9272
0	2347	18.48254965676	9198
0	2351	18.5	9165
0	2387	19	8420
0	2432	19.5	8765
0	2514	20	8713
0	2582	20.5	8674
0	2646	21	9158
0	2700	21.5	9314
0	2771	22	8627
0	2821	22.5	9329
0	2890	23	9219
0	2946	23.5	9418
0	3010	24	9482
0	3089	24.5	9547
0	3172	25	8751
0	3252	25.5	9235
0	3315	26	8702
0	3390	26.5	8154
0	3444	27	8068
0	3493	27.5	8076
0	3534	28	8083
0	3583	28.5	8984
0	3654	29	8225
0	3700	29.5	8283
0	3761	30	8340
0	3826	30.5	8318
0	3862	31	8321
0	3934	31.5	8375
0	4020	32	8429
0	4097	32.5	9513
0	4101	32.527811675855	9532
0	4108	32.626314554135	9396
0	4113	32.650138483265	9357
0	4118	32.715060765045	9250
0	4121	32.722628332613	9238
0	4128	32.735895470678	9216
0	4133	32.75069056434	9191
0	4136	32.75830671057	9179
0	4143	32.802555418812	9106
0	4146	32.810242657995	9094
0	4154	32.837762480637	9048
0	4159	32.855710546556	9019
0	4164	32.889175690155	8964
0	4169	32.904374268116	8939
0	4174	32.935046222596	8888
0	4179	32.965499445362	8838
0	4183	33	8782
0	4251	33.5	8937
0	4323	34	9215
0	4399	34.5	8724
0	4464	35	9420
0	4472	35.100554607329	9701
0	4478	35.110119409624	9697
0	4485	35.161981664329	9674
0	4490	35.194227088887	9660
0	4493	35.201473465699	9657
0	4501	35.272569651321	9626
0	4506	35.300710911412	9613
0	4511	35.341355829471	9595
0	4517	35.377025043611	9580
0	4522	35.38573480163	9576
0	4529	35.424147468723	9559
0	4534	35.431911747998	9556
0	4541	35.489101516954	9530
0	4545	35.5	9526
0	4549	35.541515972202	9507
0	4554	35.557774515726	9500
0	4559	35.596516634701	9483
0	4562	35.603898264987	9480
0	4569	35.623117174894	9471
0	4574	35.648051791538	9460
0	4579	35.656002392378	9457
0	4586	35.812643866855	9388
0	4592	35.821353802684	9382
0	4597	35.831713061797	9343
0	4601	35.839205301977	9315
0	4609	35.955804399373	8874
0	4616	35.999051304844	8710
0	4617	36	8706
0	4678	36.5	8935
0	4754	37	9276
0	4820	37.5	9535
0	4823	37.580398532264	9563
0	4828	37.593653187334	9567
0	4833	37.624290459577	9578
0	4838	37.659291741383	9590
0	4845	37.703991811517	9606
0	4858	37.857645572656	9861
0	4866	37.955144418248	9623
0	4872	37.995945346446	9480
0	4873	38	9466
0	4880	38.02649822451	9374
0	4883	38.033965687706	9347
0	4893	38.18332294778	8825
0	4902	38.231923492333	8808
0	4907	38.274795247464	9002
0	4912	38.374192220206	9452
0	4921	38.460145685795	9548
0	4926	38.468722617164	9550
0	4931	38.5	9558
0	4988	39	9681
0	4991	39.035020361487	9689
0	4996	39.06043133419	9696
0	5005	39.209520317056	9732
0	5009	39.216713083188	9734
0	5018	39.350788824479	9767
0	5025	39.378374005109	9774
0	5030	39.408028084975	9781
0	5036	39.422994504096	9785
0	5043	39.488036375469	9801
0	5047	39.5	9804
0	5055	39.582572833191	9836
0	5061	39.650358758884	9891
0	5065	39.657435899719	9896
0	5072	39.670387609336	9907
0	5079	39.83007570297	8974
0	5082	39.837876014982	8886
0	5089	39.858408230939	8657
0	5094	39.887746671273	8329
0	5100	39.909804411809	8198
0	5106	39.934664876126	8281
0	5109	39.943117961502	8309
0	5118	39.973436279037	8410
0	5123	39.983678892394	8444
0	5127	40	8499
0	5169	40.5	9345
0	5262	41	8569
0	5345	41.5	8712
0	5379	42	9824
0	5380	42.000561483943	9824
0	5389	42.022652127421	9814
0	5394	42.041210213461	9805
0	5400	42.050104051354	9801
0	5406	42.139150785099	9759
0	5411	42.190061664039	9735
0	5421	42.272320835393	9696
0	5426	42.306018007604	9681
0	5431	42.357103924974	9657
0	5438	42.5	9589
0	5521	43	9698
0	5525	43.021608950262	9692
0	5530	43.076418578312	9679
0	5539	43.207200624933	9648
0	5544	43.243619503585	9640
0	5551	43.339806432118	9617
0	5557	43.3673965382	9610
0	5563	43.401822232602	9602
0	5569	43.442271217359	9592
0	5576	43.470187556822	9586
0	5583	43.487104862757	9582
0	5588	43.5	9579
0	5635	44	9765
0	5693	44.5	9089
0	5725	45	8459
0	5766	45.5	8509
0	5831	46	8559
0	5911	46.5	8609
0	5985	47	9895
0	5989	47.01565100221	9894
0	5995	47.037334244979	9893
0	6000	47.0509077433	9892
0	6006	47.11795282953	9888
0	6011	47.152849706972	9885
0	6016	47.193374364331	9883
0	6025	47.336245631722	9874
0	6030	47.347497756415	9873
0	6036	47.397753538844	9870
0	6041	47.437514648909	9867
0	6048	47.5	9863
0	6052	47.53849387407	9031
0	6059	47.575155141004	8711
0	6067	47.716000727502	8701
0	6072	47.737446319291	8700
0	6078	47.806914244638	8695
0	6081	47.814964848433	8695
0	6088	47.868288516659	8691
0	6093	47.8763456456	8690
0	6099	48	8682
0	6147	48.5	8648
0	6223	49	8667
0	6258	49.5	8762
0	6317	50	8857
0	6384	50.5	8952
0	6453	51	9251
0	6522	51.5	9560
0	6596	52	8478
0	6657	52.5	8426
0	6743	53	8274
0	6830	53.5	9323
0	6899	54	9234
0	6955	54.5	8752
0	7008	55	8340
0	7066	55.5	8722
0	7118	56	8811
0	7178	56.5	9743
0	7184	56.597561956302	8353
0	7189	56.64578694439	8434
0	7194	56.665684364122	8467
0	7197	56.67395175517	8481
0	7205	56.698758191716	8522
0	7212	56.895831125947	8851
0	7217	56.93516528172	8916
0	7222	57	9024
0	7273	57.5	9397
0	7337	58	9331
0	7394	58.5	8906
0	7474	59	8555
0	7535	59.5	8204
0	7606	60	9829
0	7620	60.263820313444	9722
0	7623	60.271020478019	9719
0	7631	60.286461199681	9713
0	7636	60.331939734925	9695
0	7642	60.363744907643	9682
0	7648	60.416104520418	9661
0	7654	60.439864992357	9651
0	7657	60.441937484676	9650
0	7668	60.5	9627
0	7724	61	9306
0	7795	61.5	8449
0	7853	62	8918
0	7928	62.5	9585
0	7966	63	9748
0	7970	63.013114908429	9752
0	7975	63.077015014887	9773
0	7986	63.215752745966	9819
0	7996	63.266500693884	9835
0	8004	63.322244036588	9851
0	8010	63.406090773238	9417
0	8015	63.421600579401	9314
0	8023	63.5	9069
0	8061	64	8652
0	8157	64.5	8429
0	8225	65	8734
0	8264	65.5	8561
0	8314	66	8389
0	8398	66.5	8578
0	8469	67	9180
0	8519	67.5	8937
0	8614	68	9086
0	8677	68.5	8299
0	8753	69	8922
0	8839	69.5	9252
0	8893	70	9583
0	8941	70.5	8273
0	8994	71	8483
0	9112	71.5	8914
0	9167	72	9238
0	9251	72.5	8690
0	9307	73	8542
0	9349	73.5	8395
0	9447	74	8624
0	9523	74.5	8914
0	9585	75	9391
0	9629	75.5	9868
0	9632	75.518366529876	9886
0	9637	75.558236453668	9924
0	9643	75.585067557817	9949
0	9650	75.718618806492	9521
0	9656	75.745477993346	9449
0	9662	75.782255831093	9414
0	9676	75.920183897239	9282
0	9682	75.935728500394	9267
0	9688	75.999768316547	9206
0	9689	76	9206
0	9752	76.5	9099
0	9827	77	9235
0	9862	77.5	8450
0	9913	78	9706
0	9916	78.003435994157	9704
0	9921	78.017480551932	9696
0	9926	78.056184154066	9672
0	9931	78.068380637559	9665
0	9938	78.142528605778	9619
0	9943	78.151607566661	9614
0	9949	78.220243766953	9572
0	9959	78.348283462691	8732
0	9968	78.412187777385	8614
0	9973	78.429600209094	8650
0	9978	78.462575349097	8719
0	9984	78.492749288718	8783
0	9985	78.5	8798
0	10048	79	9248
0	10117	79.5	8444
0	10197	80	9105
0	10240	80.5	9766
0	10314	81	9335
0	10364	81.5	9366
0	10427	82	8678
0	10527	82.5	8499
0	10639	83	8750
0	10715	83.5	8694
0	10785	84	8113
0	10862	84.5	8013
0	10927	85	8022
0	10982	85.5	9655
0	10985	85.539235884826	9506
0	10992	85.665215392774	9029
0	10995	85.672968189318	8999
0	11002	85.728920985841	8787
0	11008	85.837152344625	8377
0	11013	85.846892649451	8340
0	11020	85.940061948641	8143
0	11025	85.973097703312	8279
0	11030	86	8390
0	11094	86.5	9100
0	11162	87	8775
0	11233	87.5	8551
0	11294	88	8796
0	11361	88.5	8184
0	11410	89	8844
0	11454	89.5	8794
0	11523	90	8868
0	11596	90.5	8246
0	11656	91	8667
0	11720	91.5	8642
0	11790	92	9120
0	11831	92.5	9534
0	11897	93	9489
0	11951	93.5	9380
0	11955	93.570065084569	9364
0	11961	93.621765375706	9353
0	11964	93.629249605365	9351
0	11972	93.644716329328	9348
0	11978	93.664969990787	9343
0	11985	93.729972291246	9329
0	11988	93.737475775006	9328
0	11996	93.779150257416	9318
0	12002	93.811424245967	9311
0	12009	93.882087736731	9296
0	12014	93.967833891936	9277
0	12019	93.982315676832	9274
0	12025	94	9270
0	12073	94.5	9160
0	12138	95	9197
0	12200	95.5	9451
0	12203	95.517694126112	9460
0	12208	95.529967600219	9467
0	12213	95.549171178804	9476
0	12220	95.731306663205	9569
0	12228	95.914934642467	9662
0	12233	95.923792863013	9667
0	12238	96	9706
0	12241	96.034880223138	9724
0	12246	96.052063992388	9732
0	12252	96.112417550433	9763
0	12257	96.122327616461	9768
0	12263	96.151387981617	9770
0	12268	96.172582598633	9747
0	12273	96.18419786684	9735
0	12278	96.216900044966	9701
0	12283	96.271576013823	9643
0	12288	96.308501640674	9604
0	12294	96.378600488024	9530
0	12302	96.474673184823	9429
0	12306	96.5	9402
0	12374	97	8283
0	12444	97.5	8792
0	12494	98	9371
0	12519	98.5	8944
0	12589	99	8903
0	12656	99.5	9380
0	12718	100	8266
0	12817	100.5	9240
0	12891	101	9657
0	12894	101.008497098566	9652
0	12902	101.142063332087	9566
0	12908	101.203745495967	9527
0	12913	101.243204104255	9502
0	12916	101.250570974388	9497
0	12923	101.288129271169	9473
0	12929	101.393943463571	9406
0	12935	101.403782886877	9422
0	12942	101.440489827694	9620
0	12945	101.447766334971	9590
0	12950	101.455065605044	9559
0	12955	101.462388546774	9529
0	12963	101.47492131926	9476
0	12966	101.482308402417	9446
0	12973	101.5	9372
0	13038	102	8553
0	13094	102.5	9634
0	13098	102.535566292651	9310
0	13103	102.548724337481	9190
0	13109	102.618691315602	8551
0	13114	102.652369355125	8244
0	13120	102.665817881542	8146
0	13128	102.733966548127	8244
0	13133	102.782411568272	8314
0	13141	102.873980217277	8446
0	13146	102.92501034151	8520
0	13152	102.938004439114	8539
0	13158	103	8628
0	13207	103.5	9158
0	13275	104	9243
0	13331	104.5	9200
0	13410	105	9214
0	13479	105.5	9229
0	13564	106	9384
0	13630	106.5	9725
0	13713	107	8675
0	13770	107.5	9169
0	13826	108	9447
0	13893	108.5	9522
0	13896	108.561465946286	9531
0	13904	108.870175799934	9577
0	13909	108.96888413445	9592
0	13913	109	9596
0	13959	109.5	9671
0	14017	110	9746
0	14080	110.5	9821
0	14084	110.573674143135	9832
0	14089	110.621407276546	9839
0	14092	110.628521820707	9840
0	14101	110.667872348066	9842
0	14106	110.689899637074	9819
0	14111	110.707444920659	9801
0	14117	110.722926581948	9785
0	14122	110.855386178141	9648
0	14127	110.937747978293	9563
0	14134	110.953203862803	9549
0	14139	110.962133814956	9541
0	14143	111	9506
0	14176	111.5	8778
0	14227	112	9282
0	14304	112.5	8207
0	14358	113	8220
0	14404	113.5	8342
0	14433	114	8691
0	14507	114.5	9678
0	14513	114.618309174031	9674
0	14518	114.62728460883	9674
0	14523	114.647341376308	9673
0	14530	114.759450109163	9670
0	14535	114.8103095738	9668
0	14542	114.853100139813	9666
0	14547	114.86958506581	9666
0	14552	114.8844224051	9665
0	14559	115	9662
0	14623	115.5	9649
0	14727	116	9645
0	14786	116.5	9628
0	14829	117	9487
0	14895	117.5	9347
0	14966	118	9206
0	15036	118.5	9868
0	15090	119	8537
0	15137	119.5	9129
0	15189	120	9172
0	15238	120.5	9214
0	15299	121	9256
0	15371	121.5	9350
0	15421	122	9478
0	15424	122.021750349297	9483
0	15429	122.061548037747	9494
0	15435	122.119275300012	9508
0	15440	122.203706131183	9530
0	15445	122.277991769565	9549
0	15449	122.2853223801	9551
0	15459	122.33527789774	9541
0	15464	122.416019237464	9408
0	15469	122.440386011007	9368
0	15475	122.447858256951	9356
0	15478	122.455340086793	9343
0	15485	122.5	9270
0	15550	123	8610
0	15592	123.5	9091
0	15619	124	9572
0	15661	124.5	9385
0	15763	125	9472
0	15855	125.5	9206
0	15915	126	8941
0	15965	126.5	8675
0	15998	127	8418
0	16059	127.5	9843
0	16064	127.554370868649	9794
0	16069	127.613538058905	9741
0	16076	127.628995636466	9727
0	16082	127.753045550266	9624
0	16087	127.760903721384	9621
0	16092	127.775916925352	9615
0	16097	127.786704105773	9610
0	16103	127.857685022482	9582
0	16111	128	8202
0	16145	128.5	8232
0	16173	129	8261
0	16226	129.5	8596
0	16289	130	8481
0	16373	130.5	8941
0	16417	131	9840
0	16423	131.027211734332	9853
0	16428	131.047280132482	9845
0	16434	131.070629014301	9836
0	16437	131.077745728412	9834
0	16445	131.094818059684	9827
0	16451	131.114936720248	9819
0	16457	131.146680039581	9807
0	16463	131.165987160853	9799
0	16468	131.191044200267	9789
0	16477	131.337735785157	9732
0	16485	131.358381528938	9721
0	16491	131.451647766665	9235
0	16497	131.474470947366	9117
0	16503	131.498596156593	8991
0	16504	131.5	8984
0	16560	132	8691
0	16607	132.5	9101
0	16657	133	9407
0	16710	133.5	9499
0	16788	134	9591
0	16829	134.5	9684
0	16888	135	9776
0	16929	135.5	9868
0	16936	135.522279221816	9816
0	16944	135.684249127794	8960
0	16953	135.737100723002	8681
0	16956	135.745164310146	8638
0	16963	135.780687895218	8450
0	16966	135.788971918887	8407
0	16974	135.797431817598	8362
0	16981	135.919687427402	8348
0	16987	135.939269407459	8361
0	16992	135.957464938917	8373
0	16996	136	8401
0	17077	136.5	9080
0	17165	137	9147
0	17230	137.5	9920
0	17233	137.51235129502	9926
0	17236	137.519403481198	9929
0	17244	137.57036585364	9949
0	17247	137.577401736643	9902
0	17254	137.588651590919	9827
0	17261	137.669811614742	9283
0	17266	137.687881053874	9162
0	17272	137.735438379555	8843
0	17278	137.757432601496	8790
0	17284	137.827908289439	8805
0	17291	137.911024408792	8821
0	17296	137.934797603904	8826
0	17302	137.977886558353	8835
0	17306	138	8839
0	17382	138.5	9280
0	17436	139	9268
0	17474	139.5	8895
0	17523	140	8135
0	17575	140.5	8377
0	17659	141	9460
0	17737	141.5	9692
0	17797	142	9185
0	17841	142.5	9515
0	17900	143	9271
0	17942	143.5	8991
0	18007	144	8650
0	18094	144.5	8514
0	18133	145	9279
0	18204	145.5	9095
0	18251	146	8610
0	18314	146.5	9872
0	18317	146.545367559311	9872
0	18322	146.579369923392	9871
0	18328	146.609979184804	9871
0	18335	146.663486793786	9870
0	18341	146.699408851034	9870
0	18348	146.730315494662	9870
0	18353	146.84990725102	9869
0	18362	146.986699276642	9867
0	18367	147	9867
0	18434	147.5	8439
0	18505	148	9224
0	18559	148.5	8525
0	18627	149	8845
0	18695	149.5	9859
0	18746	150	9241
0	18801	150.5	8775
0	18891	151	8538
0	18979	151.5	8914
0	19027	152	9453
0	19075	152.5	9053
0	19121	153	9729
0	19124	153.054364976458	9668
0	19131	153.078796861519	9641
0	19135	153.086057519127	9633
0	19142	153.151591513347	9560
0	19147	153.162351726591	9548
0	19150	153.16968310489	9540
0	19155	153.177020631095	9531
0	19163	153.355795633698	9332
0	19166	153.36329670528	9323
0	19171	153.370805018055	9315
0	19178	153.378978234092	9306
0	19184	153.439099586561	9239
0	19189	153.46870076667	9206
0	19196	153.489896036227	9182
0	19200	153.5	9171
0	19254	154	8612
0	19303	154.5	8945
0	19360	155	8181
0	19435	155.5	8192
0	19482	156	8216
0	19532	156.5	9346
0	19587	157	9486
0	19595	157.088894552683	9600
0	19603	157.22248796413	9086
0	19610	157.326640896218	9146
0	19616	157.385913807446	9180
0	19619	157.393539079777	9184
0	19626	157.465056847999	9225
0	19633	157.498818908755	9245
0	19634	157.5	9245
0	19680	158	9532
0	19684	158.073205582601	9574
0	19695	158.153643848313	9422
0	19700	158.185348922485	9293
0	19705	158.203969571203	9217
0	19711	158.216134305276	9202
0	19718	158.250635387382	9166
0	19724	158.286777049967	9112
0	19733	158.347274207095	9017
0	19742	158.398915005414	8937
0	19745	158.406747611434	8925
0	19752	158.425605822245	8895
0	19757	158.436388828255	8878
0	19760	158.444273486962	8866
0	19769	158.474833080753	8818
0	19773	158.5	8779
0	19835	159	8174
0	19869	159.5	8310
0	19918	160	8332
0	19967	160.5	8481
0	20050	161	9131
0	20142	161.5	9402
0	20216	162	9263
0	20267	162.5	9732
0	20324	163	9418
0	20390	163.5	9712
0	20393	163.526886578615	9656
0	20396	163.53413595724	9642
0	20404	163.580803671336	9546
0	20410	163.649840365773	9404
0	20416	163.665548560739	9372
0	20421	163.695682224579	9310
0	20427	163.710816603906	9279
0	20432	163.773355459851	9150
0	20435	163.781005733075	9134
0	20446	163.899225737189	8892
0	20456	163.985724301223	8714
0	20459	163.993757351487	8697
0	20464	164	8685
0	20519	164.5	9191
0	20581	165	8360
0	20650	165.5	8656
0	20742	166	9701
0	20809	166.5	9165
0	20856	167	9032
0	20907	167.5	8996
0	20993	168	9030
0	21053	168.5	9819
0	21088	169	8949
0	21143	169.5	8923
0	21207	170	9518
0	21214	170.143453560561	9446
0	21219	170.157308026529	9446
0	21224	170.171049104324	9446
0	21229	170.185453069333	9446
0	21236	170.257467418676	9446
0	21241	170.352388519173	9446
0	21248	170.454469677389	9446
0	21254	170.5	9446
0	21318	171	9446
0	21387	171.5	9400
0	21391	171.529288820923	9385
0	21403	171.679739926145	9307
0	21410	171.753458480402	9270
0	21419	171.799498848385	9246
0	21424	171.81602510707	9238
0	21431	171.900283077324	9194
0	21437	171.923965103308	9182
0	21444	172	9143
0	21485	172.5	8887
0	21588	173	9612
0	21591	173.008624904741	9649
0	21596	173.022513605441	9708
0	21601	173.032971459521	9752
0	21609	173.073498840773	9876
0	21617	173.154720168137	9871
0	21626	173.283528309348	9865
0	21632	173.3564642012	9861
0	21635	173.363562872734	9860
0	21643	173.394825354119	9858
0	21648	173.423395390501	9857
0	21654	173.5	9852
0	21659	173.626906715478	9845
0	21666	173.681984404963	9842
0	21671	173.689762070063	9841
0	21674	173.696875168325	9841
0	21681	173.809115753417	9834
0	21686	173.856449353979	9832
0	21689	173.863568963418	9831
0	21696	173.885670785335	9830
0	21701	173.894578201558	9829
0	21706	173.96704424499	9825
0	21711	174	9823
0	21785	174.5	9794
0	21853	175	9765
0	21856	175.002984859095	9765
0	21863	175.142212877005	9757
0	21873	175.28762731529	9740
0	21880	175.375291749569	9704
0	21886	175.39271156357	9696
0	21891	175.411801952701	9688
0	21896	175.433642320341	9679
0	21902	175.479231431242	9661
0	21905	175.486477057989	9658
0	21911	175.5	9652
0	21989	176	9052
0	22037	176.5	9718
0	22112	177	8560
0	22220	177.5	9039
0	22283	178	8851
0	22363	178.5	8664
0	22446	179	8476
0	22516	179.5	8850
0	22573	180	9805
0	22576	180.020187651386	9844
0	22589	180.158889633319	9746
0	22594	180.20070234302	9731
0	22599	180.215526206393	9726
0	22605	180.247915910507	9715
0	22614	180.322239941224	9690
0	22620	180.370867441303	9673
0	22627	180.424246155919	9655
0	22633	180.461863582377	9642
0	22638	180.487370321251	9633
0	22642	180.5	9629
0	22645	180.51905618838	9623
0	22651	180.580320701294	9602
0	22657	180.651562120122	9577
0	22662	180.667964655386	9572
0	22667	180.677777624732	9568
0	22672	180.695567031474	9562
0	22677	180.704954165581	9559
0	22683	180.730536461874	9550
0	22689	180.758804305701	9541
0	22694	180.786360763552	9531
0	22701	180.805698911639	9525
0	22706	180.845879100777	9511
0	22709	180.853238999841	9508
0	22717	180.873905107047	9501
0	22726	180.96695109657	9469
0	22730	181	9458
0	22770	181.5	9700
0	22774	181.543426524506	9738
0	22780	181.566233528757	9757
0	22783	181.573407865131	9764
0	22794	181.778894005095	8342
0	22801	181.851658930448	8446
0	22808	181.913778927782	8534
0	22813	181.929266477791	8556
0	22817	182	8658
0	22883	182.5	9018
0	22937	183	9185
0	22984	183.5	9122
0	23038	184	9440
0	23125	184.5	9759
0	23129	184.590271882339	9549
0	23136	184.647791816102	9208
0	23141	184.708785440887	8846
0	23152	184.912688600168	9513
0	23158	184.961459902841	9516
0	23163	185	9518
0	23200	185.5	9235
0	23235	186	9568
0	23285	186.5	8854
0	23352	187	8982
0	23418	187.5	9109
0	23492	188	9743
0	23497	188.062970515499	9333
0	23504	188.098211126676	9104
0	23510	188.11716191322	8981
0	23516	188.170827442698	8631
0	23522	188.216589675509	8333
0	23526	188.224990011522	8279
0	23533	188.247885037274	8130
0	23539	188.268767384722	8041
0	23549	188.388663164934	8232
0	23554	188.413347644545	8271
0	23559	188.423721053716	8288
0	23565	188.45892873171	8344
0	23569	188.5	8409
0	23632	189	9006
0	23708	189.5	9559
0	23711	189.522805389098	9594
0	23717	189.539563622771	9619
0	23725	189.768660070925	8940
0	23732	189.798065688841	8841
0	23741	189.849724991665	8879
0	23750	189.982778334991	8993
0	23753	189.99056216686	9000
0	23759	189.998339944638	9007
0	23762	190	9008
0	23821	190.5	8860
0	23921	191	8950
0	23960	191.5	9218
0	24041	192	8429
0	24096	192.5	8399
0	24157	193	8532
0	24243	193.5	9426
0	24316	194	9033
0	24359	194.5	8639
0	24425	195	9036
0	24492	195.5	9884
0	24495	195.500354227022	9884
0	24502	195.576144775313	9844
0	24507	195.593022460677	9835
0	24513	195.667358802963	9797
0	24519	195.684144673718	9788
0	24525	195.821993946044	9717
0	24530	195.843991149275	9705
0	24536	195.858831531191	9697
0	24541	195.877728851274	9688
0	24547	195.921708218118	9665
0	24552	195.964918040933	9642
0	24556	196	9624
0	24641	196.5	9365
0	24699	197	9105
0	24760	197.5	8942
0	24837	198	8852
0	24900	198.5	9449
0	24983	199	8849
0	25048	199.5	8571
0	25074	200	8830
0	25133	200.5	9089
0	25201	201	9349
0	25204	201.003184525576	9350
0	25215	201.168665592807	8751
0	25222	201.2273653873	8536
0	25228	201.24555498215	8469
0	25235	201.316487969602	8796
0	25242	201.458372533117	9493
0	25247	201.5	9698
0	25252	201.534021717583	9865
0	25255	201.541117510791	9900
0	25266	201.607537546909	9945
0	25272	201.63842126513	9946
0	25278	201.663306860274	9946
0	25282	201.670344865502	9947
0	25289	201.681245589341	9947
0	25292	201.688282887019	9947
0	25304	201.857032022415	9950
0	25310	201.897377620582	9950
0	25315	201.91218418016	9951
0	25318	201.919218649058	9951
0	25328	202	9952
0	25334	202.114777861947	9954
0	25341	202.178788983438	9955
0	25344	202.185820625829	9955
0	25353	202.244064185402	9956
0	25364	202.331779986224	9958
0	25369	202.341479428501	9958
0	25374	202.353361712377	9958
0	25380	202.495505525665	9960
0	25381	202.5	9961
0	25387	202.584383014268	9962
0	25394	202.648217968928	9963
0	25397	202.655243965114	9963
0	25406	202.66949167067	9963
0	25411	202.770250439703	9965
0	25417	202.832012222687	9795
0	25423	202.859107695936	9677
0	25428	202.924933103588	9388
0	25435	203	9058
0	25510	203.5	9843
0	25563	204	9089
0	25644	204.5	8969
0	25709	205	9464
0	25815	205.5	9959
0	25818	205.508089006483	9967
0	25829	205.564432591311	9943
0	25837	205.629208365032	9893
0	25842	205.639878748064	9885
0	25849	205.672084381477	9861
0	25861	205.743718110434	9780
0	25870	205.860914938163	9416
0	25876	206	8985
0	25976	206.5	8989
0	26026	207	8822
0	26090	207.5	8636
0	26156	208	8490
0	26218	208.5	8343
0	26279	209	8878
0	26325	209.5	8729
0	26373	210	8796
0	26451	210.5	9245
0	26520	211	9694
0	26524	211.003577552321	9694
0	26530	211.05828608791	9629
0	26534	211.065555794006	9620
0	26539	211.072832301283	9611
0	26548	211.160447133657	9508
0	26552	211.167809354944	9499
0	26557	211.175178551702	9490
0	26564	211.190365420228	9472
0	26568	211.197755622931	9463
0	26578	211.242965261668	9410
0	26583	211.252065413946	9399
0	26588	211.285401007863	9359
0	26591	211.292880439426	9351
0	26598	211.344511991284	9289
0	26603	211.382632211786	9244
0	26608	211.468286042502	9143
0	26613	211.491306600068	9115
0	26618	211.5	9105
0	26680	212	8512
0	26732	212.5	8510
0	26817	213	8559
0	26879	213.5	8582
0	26929	214	9171
0	26990	214.5	8938
0	27057	215	8716
0	27149	215.5	9492
0	27192	216	9796
0	27197	216.145478047247	9885
0	27203	216.173750330589	9902
0	27212	216.225449957084	9856
0	27217	216.351567905711	9647
0	27222	216.374353066479	9609
0	27229	216.416024791072	9540
0	27232	216.423362317277	9527
0	27241	216.48351916385	9139
0	27245	216.5	9021
0	27286	217	9580
0	27290	217.07513996587	9862
0	27296	217.087388699041	9856
0	27301	217.113950989435	9842
0	27304	217.121063364968	9838
0	27309	217.128178632299	9835
0	27316	217.192403176536	9802
0	27322	217.21809840439	9789
0	27327	217.229468273752	9783
0	27332	217.309371396755	9742
0	27338	217.319056935697	9737
0	27341	217.326246008307	9734
0	27348	217.338335231461	9727
0	27355	217.492941641068	9649
0	27356	217.5	9645
0	27362	217.577807345002	9605
0	27368	217.632118977469	9577
0	27373	217.670895073795	9558
0	27378	217.689495224737	9548
0	27381	217.696826603036	9544
0	27390	217.725491681082	9530
0	27395	217.756662913286	9514
0	27401	217.771994113355	9506
0	27406	217.829591540276	9477
0	27411	217.858220500279	9462
0	27417	217.896869910066	9442
0	27422	217.9477057353	9416
0	27427	217.990189962171	9395
0	27431	218	9390
0	27435	218.046244713233	9366
0	27440	218.058974961863	9360
0	27446	218.078462424761	9277
0	27456	218.172570491854	8724
0	27459	218.178218781684	8691
0	27470	218.214940421832	8475
0	27476	218.238616457581	8335
0	27484	218.301072989023	8103
0	27489	218.324603419025	8133
0	27503	218.5	8360
0	27540	219	9853
0	27543	219.030215520023	9808
0	27546	219.037352551018	9797
0	27553	219.044497595419	9786
0	27556	219.051650671242	9776
0	27566	219.162671773139	9609
0	27573	219.207285827066	9542
0	27579	219.399177185154	9254
0	27584	219.417835508652	9226
0	27589	219.432664755278	9203
0	27594	219.446934094902	9182
0	27599	219.5	9102
0	27664	220	8351
0	27724	220.5	8770
0	27777	221	9251
0	27834	221.5	9371
0	27870	222	9119
0	27950	222.5	8867
0	28013	223	8615
0	28044	223.5	8363
0	28118	224	8110
0	28184	224.5	9128
0	28238	225	9303
0	28297	225.5	9620
0	28384	226	9082
0	28432	226.5	8544
0	28474	227	9134
0	28520	227.5	8960
0	28588	228	8713
0	28652	228.5	8625
0	28727	229	8572
0	28779	229.5	8807
0	28822	230	9224
0	28886	230.5	8178
0	28939	231	8539
0	29001	231.5	8755
0	29063	232	8493
0	29128	232.5	8232
0	29173	233	8110
0	29231	233.5	8652
0	29279	234	9561
0	29336	234.5	9006
0	29399	235	8586
0	29474	235.5	8167
0	29544	236	8094
0	29579	236.5	8152
0	29627	237	8210
0	29700	237.5	8705
0	29747	238	8647
0	29818	238.5	8460
0	29878	239	8594
0	29940	239.5	8860
0	30000	240	8385
0	30060	240.5	9310
0	30128	241	8854
0	30179	241.5	8611
0	30217	242	9043
0	30272	242.5	9165
0	30302	243	8439
0	30387	243.5	8794
0	30462	244	9102
0	30545	244.5	8790
0	30613	245	8581
0	30685	245.5	9010
0	30744	246	8510
0	30804	246.5	8498
0	30915	247	8519
0	30972	247.5	8916
0	31035	248	9199
0	31090	248.5	8720
0	31140	249	8914
0	31186	249.5	9108
0	31234	250	9037
0	31280	250.5	9862
0	31283	250.554083259121	9838
0	31289	250.576285127727	9829
0	31295	250.617285375957	9811
0	31300	250.685669591443	9781
0	31305	250.729600627789	9762
0	31310	250.775736312549	9742
0	31313	250.782921695427	9739
0	31322	250.857685261872	9553
0	31327	250.903558713599	9428
0	31332	250.911891771313	9405
0	31337	250.935916470787	9340
0	31342	251	9166
0	31415	251.5	9329
0	31416	251.5	9329
0	31426	251.57065881343	9346
0	31436	251.639705394612	9273
0	31443	251.768925568006	9134
0	31451	251.795553285679	9106
0	31456	251.881382536594	9014
0	31461	251.92585260698	8967
0	31467	251.9459107443	8945
0	31470	251.953736345194	8937
0	31475	251.961568951214	8928
0	31482	252	8887
0	31559	252.5	9183
0	31563	252.649418582669	8976
0	31571	252.681164145262	8932
0	31577	252.738344160628	8853
0	31582	252.81129585394	8752
0	31587	252.820072358997	8740
0	31593	253	8247
0	31687	253.5	9218
0	31765	254	9013
0	31813	254.5	9034
0	31872	255	9718
0	31944	255.5	8689
0	32011	256	8404
0	32100	256.5	9563
0	32146	257	9409
0	32217	257.5	9274
0	32266	258	9204
0	32350	258.5	9187
0	32405	259	9346
0	32447	259.5	9330
0	32511	260	9586
0	32515	260.068631904442	9551
0	32522	260.115223937936	9528
0	32528	260.135881472462	9517
0	32535	260.176128529331	9497
0	32541	260.223909144769	9473
0	32546	260.242204082094	9464
0	32558	260.347634928862	9410
0	32564	260.372719255037	9398
0	32571	260.4080500129	9380
0	32576	260.436436909587	9365
0	32579	260.443911549203	9362
0	32586	260.496125084968	9335
0	32587	260.5	9333
0	32636	261	9477
0	32694	261.5	8794
0	32751	262	8166
0	32807	262.5	8085
0	32874	263	9112
0	32929	263.5	8755
0	32992	264	8929
0	33049	264.5	8807
0	33119	265	9233
0	33208	265.5	9216
0	33265	266	9199
0	33320	266.5	8859
0	33375	267	9667
0	33454	267.5	8579
0	33510	268	9405
0	33551	268.5	9368
0	33613	269	9731
0	33662	269.5	8877
0	33738	270	9570
0	33777	270.5	9475
0	33862	271	8917
0	33916	271.5	8360
0	33963	272	8887
0	34022	272.5	9708
0	34100	273	9409
0	34157	273.5	9450
0	34209	274	9758
0	34212	274.029524368529	9831
0	34219	274.095676074268	9840
0	34224	274.120296767836	9823
0	34232	274.256739968072	9728
0	34239	274.300124552721	9698
0	34242	274.30734253581	9693
0	34250	274.365440966467	9653
0	34256	274.412412642337	9621
0	34261	274.468372551129	9582
0	34265	274.5	9560
0	34322	275	9214
0	34393	275.5	8869
0	34471	276	8523
0	34527	276.5	8438
0	34591	277	8296
0	34646	277.5	9600
0	34731	278	9652
0	34772	278.5	9703
0	34777	278.56268055741	9710
0	34785	278.650771256725	9719
0	34790	278.682675149562	9722
0	34795	278.690921981142	9723
0	34801	278.761938431004	9731
0	34809	278.86054131219	9741
0	34815	278.869646259198	9742
0	34820	278.885088721472	9743
0	34826	278.923049582032	9747
0	34831	278.940293598754	9749
0	34837	279	9755
0	34840	279.027186937698	9758
0	34846	279.083715448636	9764
0	34851	279.093498956611	9765
0	34854	279.100667415392	9766
0	34861	279.131223814195	9769
0	34866	279.141111797711	9770
0	34873	279.188074326808	9775
0	34883	279.363582333973	9062
0	34888	279.373796864307	8958
0	34893	279.423082480554	8456
0	34902	279.493768966674	8634
0	34903	279.5	8671
0	34957	280	9116
0	35037	280.5	8654
0	35102	281	9124
0	35130	281.5	8605
0	35177	282	8896
0	35232	282.5	8475
0	35304	283	8547
0	35363	283.5	9157
0	35463	284	8041
0	35542	284.5	8214
0	35596	285	8476
0	35665	285.5	8738
0	35725	286	9000
0	35805	286.5	8559
0	35847	287	8480
0	35889	287.5	8754
0	35935	288	9164
0	36006	288.5	8161
0	36041	289	8367
0	36107	289.5	8683
0	36158	290	9008
0	36220	290.5	9333
0	36239	290.89730524672	9503
0	36247	291	9314
0	36326	291.5	9422
0	36380	292	9179
0	36436	292.5	8936
0	36491	293	8694
0	36528	293.5	9872
0	36533	293.598019831779	9815
0	36539	293.657886438271	9810
0	36545	293.690110016418	9809
0	36550	293.708563297342	9808
0	36556	293.77208968836	9805
0	36561	293.80689237558	9804
0	36567	293.825376736817	9803
0	36572	293.832900879538	9802
0	36575	293.840042279252	9802
0	36582	293.882762701025	9800
0	36587	293.905506514676	9799
0	36592	293.917508623921	9799
0	36597	293.977361003885	9796
0	36602	293.99398279817	9795
0	36603	294	9795
0	36609	294.01003592451	9795
0	36616	294.069581836797	9792
0	36621	294.16839212395	9788
0	36626	294.179474985205	9787
0	36633	294.257691723664	9784
0	36639	294.274731096272	9783
0	36644	294.285517312898	9783
0	36648	294.292672582243	9782
0	36656	294.31014838455	9782
0	36661	294.35601190844	9780
0	36670	294.443246911781	9776
0	36675	294.456961651213	9775
0	36680	294.470943231915	9775
0	36684	294.5	9773
0	36689	294.577605958437	9770
0	36694	294.597749542937	9769
0	36700	294.642496474381	9767
0	36707	294.663505131455	9766
0	36713	294.676040905832	9766
0	36722	294.756773990104	9762
0	36727	294.763944651854	9762
0	36730	294.764846261685	9762
0	36735	294.771115313604	9761
0	36738	294.772016923435	9761
0	36749	294.782168495181	9761
0	36757	294.825359522579	9759
0	36764	294.865564806071	9757
0	36769	294.890865997214	9756
0	36774	294.90159058496	9756
0	36781	294.951694635174	9753
0	36792	295	8412
0	36861	295.5	9379
0	36906	296	8232
0	36952	296.5	8967
0	37003	297	8637
0	37056	297.5	9158
0	37108	298	9230
0	37194	298.5	8939
0	37243	299	9075
0	37299	299.5	9211
0	37342	300	9346
0	37433	300.5	9537
0	37485	301	9833
0	37488	301.003146044861	9835
0	37498	301.136327899617	8315
0	37503	301.223959558709	8347
0	37508	301.242549552968	8354
0	37513	301.296532835907	8374
0	37524	301.415899929142	8419
0	37530	301.487159237044	8445
0	37535	301.5	8450
0	37605	302	8636
0	37646	302.5	8822
0	37701	303	8751
0	37769	303.5	9432
0	37829	304	8805
0	37903	304.5	8851
0	37970	305	9124
0	38030	305.5	8147
0	38122	306	9050
0	38192	306.5	9002
0	38249	307	9917
0	38252	307.019246667828	9917
0	38257	307.027557173845	9917
0	38262	307.067054699855	9917
0	38267	307.148476290045	9918
0	38272	307.168025836228	9919
0	38278	307.261246490307	9920
0	38285	307.345224761983	9921
0	38291	307.444799101264	9922
0	38296	307.5	9923
0	38299	307.504566337499	9923
0	38304	307.521732662755	9923
0	38309	307.548451236909	9924
0	38314	307.600872496369	9924
0	38320	307.650533555811	9925
0	38323	307.657586452536	9925
0	38331	307.730992906696	9926
0	38341	307.914305858223	9929
0	38346	308	9930
0	38437	308.5	9936
0	38511	309	9943
0	38518	309.045565995471	9943
0	38521	309.052606124205	9944
0	38528	309.06432474404	9944
0	38533	309.071636082995	9944
0	38541	309.227984923818	9891
0	38546	309.250589394671	9844
0	38553	309.275241729609	9793
0	38561	309.322321070203	9695
0	38566	309.382107701685	9571
0	38571	309.414764121876	9503
0	38576	309.465035631558	9399
0	38580	309.5	9326
0	38637	310	8859
0	38708	310.5	9310
0	38785	311	9032
0	38859	311.5	8156
0	38952	312	8693
0	38999	312.5	9263
0	39039	313	9443
0	39047	313.075453540247	9470
0	39052	313.102194179553	9480
0	39057	313.115499651427	9485
0	39062	313.13783339777	9493
0	39068	313.162709969761	9502
0	39071	313.170076839894	9504
0	39080	313.290610708639	9548
0	39085	313.357250435063	9572
0	39090	313.5	9623
0	39098	313.585313232926	9654
0	39108	313.676478398645	9686
0	39119	313.846559930746	9748
0	39126	313.865592537387	9754
0	39132	313.888587948302	9682
0	39138	313.96509797919	9351
0	39143	313.974710365393	9310
0	39148	314	9201
0	39247	314.5	8284
0	39289	315	8227
0	39340	315.5	8137
0	39421	316	8023
0	39491	316.5	8785
0	39541	317	8903
0	39606	317.5	9022
0	39650	318	9150
0	39717	318.5	8653
0	39799	319	8784
0	39874	319.5	9597
0	39937	320	9728
0	39941	320.063812701312	9745
0	39946	320.071925497195	9747
0	39951	320.094423782661	9753
0	39956	320.103380378357	9755
0	39962	320.136895595622	9665
0	39967	320.160735791053	9486
0	39972	320.181473900773	9330
0	39978	320.250262884825	8812
0	39981	320.258206597943	8753
0	39991	320.344927843337	8296
0	39996	320.370646156514	8339
0	40001	320.379533699873	8354
0	40010	320.5	8554
0	40051	321	9387
0	40123	321.5	9628
0	40175	322	8924
0	40231	322.5	9727
0	40237	322.509851258524	9725
0	40246	322.558081607228	9711
0	40254	322.673450875002	9695
0	40259	322.687408817962	9693
0	40264	322.730053060523	9688
0	40269	322.739831442787	9686
0	40274	322.764824503663	9683
0	40280	322.791456806173	9680
0	40287	322.864801167057	9671
0	40295	322.925972613275	9663
0	40300	323	9654
0	40304	323.017554794201	9652
0	40313	323.066122202797	9646
0	40319	323.084864721363	9643
0	40333	323.252316910194	8936
0	40339	323.284715143993	8937
0	40347	323.336702497435	8940
0	40354	323.393003212063	8943
0	40357	323.400830563064	8943
0	40366	323.460501684247	8946
0	40372	323.469291919187	8947
0	40377	323.487150042462	8948
0	40380	323.494973019664	8948
0	40385	323.5	8948
0	40464	324	8973
0	40521	324.5	8939
0	40634	325	8797
0	40700	325.5	8655
0	40776	326	8513
0	40818	326.5	8748
0	40881	327	9252
0	40973	327.5	9272
0	41046	328	9139
0	41133	328.5	9006
0	41195	329	8872
0	41273	329.5	8725
0	41299	330	8409
0	41370	330.5	8785
0	41426	331	9161
0	41488	331.5	8223
0	41537	332	8258
0	41601	332.5	8292
0	41659	333	8327
0	41706	333.5	8662
0	41746	334	9151
0	41826	334.5	9640
0	41831	334.541543221249	9681
0	41837	334.574732043212	9713
0	41843	334.60496643253	9743
0	41849	334.657231436172	9794
0	41855	334.782876195278	9917
0	41861	334.849354765761	9577
0	41866	334.879483975829	8993
0	41873	334.946431864347	8915
0	41878	334.977343418354	9058
0	41881	334.985071393624	9093
0	41888	334.992769623031	9129
0	41892	335	9162
0	41972	335.5	9264
0	42038	336	9248
0	42072	336.5	8731
0	42134	337	9438
0	42188	337.5	8807
0	42255	338	8986
0	42299	338.5	9317
0	42365	339	9287
0	42445	339.5	9177
0	42496	340	8522
0	42542	340.5	8344
0	42603	341	8319
0	42668	341.5	8370
0	42713	342	8532
0	42793	342.5	8547
0	42847	343	8563
0	42942	343.5	8385
0	42971	344	8254
0	43012	344.5	8666
0	43067	345	9079
0	43143	345.5	9491
0	43187	346	9899
0	43190	346.005654149141	9903
0	43194	346.012722714222	9909
0	43203	346.095670742478	9822
0	43211	346.149349745708	9761
0	43217	346.211979889986	9691
0	43223	346.267625087377	9628
0	43228	346.306662392988	9584
0	43237	346.394034595755	9485
0	43246	346.449964290541	9422
0	43251	346.467565138814	9403
0	43254	346.475009571442	9394
0	43259	346.482461136271	9386
0	43265	346.5	9366
0	43269	346.511917141664	9353
0	43276	346.605689802246	9156
0	43282	346.704046722899	8944
0	43290	346.726742002803	8919
0	43297	346.773485722959	8892
0	43304	346.802411954996	8874
0	43311	346.944505125237	8790
0	43316	347	8757
0	43389	347.5	9108
0	43443	348	9165
0	43501	348.5	8699
0	43566	349	8234
0	43661	349.5	8088
0	43703	350	8170
0	43759	350.5	8253
0	43833	351	9470
0	43896	351.5	8402
0	43984	352	9507
0	44076	352.5	8097
0	44133	353	8706
0	44196	353.5	9372
0	44241	354	9564
0	44287	354.5	8412
0	44349	355	8753
0	44409	355.5	9485
0	44453	356	9028
0	44509	356.5	8533
0	44554	357	9213
0	44620	357.5	9893
0	44624	357.516841792202	9916
0	44635	357.692994791443	8274
0	44640	357.704133468097	8282
0	44645	357.74037044543	8310
0	44651	357.763320377961	8328
0	44654	357.771725757404	8335
0	44663	357.805901747717	8361
0	44670	357.853822655784	8399
0	44676	357.9039310358	8438
0	44682	357.990253058906	8505
0	44686	358	8512
0	44738	358.5	8901
0	44805	359	9290
0	44835	359.5	9170
0	44899	360	8084
0	44978	360.5	9227
0	45088	361	8160
0	45162	361.5	8659
0	45240	362	8417
0	45318	362.5	8176
0	45393	363	8998
0	45443	363.5	9152
0	45491	364	9306
0	45550	364.5	9459
0	45611	365	9613
0	45614	365.014057914625	9618
0	45620	365.044702671049	9627
0	45626	365.092298650858	9642
0	45631	365.11829354904	9650
0	45636	365.125961183826	9652
0	45639	365.133213566752	9654
0	45646	365.151306226388	9660
0	45654	365.216560204756	9178
0	45661	365.321191032309	8285
0	45670	365.462774358316	9178
0	45675	365.471689109471	9136
0	45679	365.5	9001
0	45761	366	8969
0	45822	366.5	9350
0	45825	366.503797256086	9355
0	45830	366.524325259785	9380
0	45835	366.564715529984	9429
0	45840	366.590998245974	9462
0	45848	366.687149428802	9579
0	45851	366.694457080958	9588
0	45858	366.733920540477	9637
0	45866	366.898889057436	9687
0	45872	366.941572498235	9574
0	45876	367	9420
0	45883	367.123604494228	9094
0	45889	367.166159217749	8989
0	45894	367.195598727839	9095
0	45900	367.250390933639	9292
0	45907	367.265275296656	9346
0	45913	367.329660461684	9578
0	45922	367.488877469617	8864
0	45927	367.5	8808
0	45966	368	8920
0	46024	368.5	8285
0	46121	369	8379
0	46191	369.5	8196
0	46248	370	9053
0	46321	370.5	8778
0	46379	371	8502
0	46450	371.5	9044
0	46530	372	8661
0	46596	372.5	8509
0	46647	373	8451
0	46709	373.5	8403
0	46778	374	8356
0	46834	374.5	9552
0	46837	374.507393081226	9568
0	46845	374.595966625291	9750
0	46850	374.606151128114	9750
0	46855	374.658162888215	9751
0	46862	374.706936913524	9753
0	46867	374.780403783655	9755
0	46872	374.8163927837	9756
0	46877	374.848195524175	9757
0	46884	374.899372787737	9759
0	46890	375	9762
0	46893	375.025780295999	9763
0	46898	375.048547531434	9763
0	46901	375.05571745871	9764
0	46909	375.130137583274	9766
0	46912	375.137305308033	9766
0	46920	375.164212969989	9767
0	46925	375.187794604551	9768
0	46931	375.212385810955	9767
0	46935	375.219552801843	9757
0	46943	375.266059016809	9695
0	46947	375.273279233415	9686
0	46959	375.361078734135	9568
0	46966	375.402914911885	9512
0	46969	375.4102740372	9502
0	46977	375.41967947434	9490
0	46982	375.448442870397	9451
0	46988	375.497689447588	9385
0	46989	375.5	9382
0	47046	376	8712
0	47112	376.5	9443
0	47176	377	8790
0	47233	377.5	8360
0	47300	378	9448
0	47399	378.5	9133
0	47510	379	8339
0	47564	379.5	8725
0	47630	380	8990
0	47686	380.5	9220
0	47741	381	9449
0	47745	381.048497002034	9448
0	47751	381.123262568724	9383
0	47756	381.168459019255	9343
0	47759	381.175951259435	9337
0	47769	381.280889374355	9245
0	47774	381.334059062892	9198
0	47779	381.352366432451	9182
0	47783	381.359990043865	9176
0	47791	381.445946030078	9101
0	47794	381.453637492555	9094
0	47801	381.5	9053
0	47862	382	8617
0	47893	382.5	8180
0	47937	383	8410
0	47981	383.5	8327
0	48044	384	8244
0	48117	384.5	8161
0	48175	385	8078
0	48234	385.5	8025
0	48297	386	8843
0	48351	386.5	9178
0	48405	387	8982
0	48461	387.5	8707
0	48524	388	8928
0	48579	388.5	9013
0	48653	389	8657
0	48715	389.5	8220
0	48786	390	8227
0	48838	390.5	8673
0	48884	391	9118
0	48945	391.5	9690
0	49034	392	8720
0	49137	392.5	8409
0	49212	393	8665
0	49310	393.5	9163
0	49370	394	9660
0	49426	394.5	9186
0	49480	395	8727
0	49570	395.5	9121
0	49629	396	9515
0	49693	396.5	9675
0	49764	397	8838
0	49841	397.5	8157
0	49913	398	9203
0	49973	398.5	9709
0	50052	399	9587
0	50126	399.5	9465
0	50186	400	8283
1	1262	10	8446
1	1326	10.5	8404
1	1377	11	9394
1	1417	11.5	8937
1	1476	12	8480
1	1519	12.5	8974
1	1605	13	8873
1	1691	13.5	8579
1	1775	14	8511
1	1842	14.5	8941
1	1910	15	9258
1	1945	15.5	9481
1	2009	16	9092
1	2070	16.5	8411
1	2130	17	9005
1	2197	17.5	8654
1	2280	18	9280
1	2351	18.5	9839
1	2354	18.542598202087	9817
1	2359	18.556181605604	9810
1	2367	18.800138250004	9688
1	2375	18.9362056628	9619
1	2380	18.951754053048	9611
1	2386	18.999345538425	9587
1	2387	19	9587
1	2432	19.5	9335
1	2514	20	9438
1	2582	20.5	9906
1	2586	20.519285626649	9865
1	2597	20.70662035734	8732
1	2602	20.730341171857	8760
1	2609	20.778413150436	8817
1	2614	20.788311537203	8829
1	2620	20.827410323247	8875
1	2623	20.835297647191	8884
1	2632	20.925077747757	8990
1	2636	20.932864177123	8999
1	2645	20.996655217526	9074
1	2646	21	9078
1	2700	21.5	9668
1	2708	21.66618431491	9864
1	2716	21.69788081588	9880
1	2721	21.710105366982	9880
1	2728	21.740547012669	9880
1	2734	21.79494223435	9881
1	2745	21.913388142892	9883
1	2750	21.928668387983	9883
1	2755	21.936048189628	9883
1	2758	21.9421616613	9883
1	2766	21.950109121136	9883
1	2771	22	9884
1	2774	22.021128293915	9884
1	2782	22.127806458289	9886
1	2787	22.147090842991	9886
1	2792	22.264483031062	9888
1	2797	22.288664950436	9888
1	2803	22.34055745421	9889
1	2808	22.384932550634	9889
1	2813	22.404561202043	9889
1	2820	22.493468368885	9891
1	2821	22.5	9891
1	2827	22.530136752543	9891
1	2836	22.579711967188	9892
1	2839	22.586788392582	9892
1	2848	22.682755796827	9893
1	2853	22.701443961518	9894
1	2858	22.717422694262	9894
1	2863	22.745131235714	9894
1	2873	22.825117207806	9895
1	2880	22.93340539185	9897
1	2886	22.943672780287	9897
1	2890	23	9898
1	2893	23.000625662821	9898
1	2905	23.153284896301	9900
1	2910	23.183737126936	9900
1	2920	23.241892791107	9901
1	2927	23.274917945094	9901
1	2932	23.287053869778	9902
1	2939	23.364787016668	9903
1	2946	23.5	9904
1	3010	24	8505
1	3089	24.5	9123
1	3172	25	8300
1	3252	25.5	8347
1	3315	26	8376
1	3390	26.5	8470
1	3444	27	8739
1	3493	27.5	9007
1	3534	28	9275
1	3543	28.136056095798	9348
1	3549	28.198917945577	9382
1	3557	28.27919088373	9425
1	3562	28.312483008062	9443
1	3570	28.36225619023	9470
1	3576	28.423900213382	9503
1	3583	28.5	9544
1	3586	28.527588286537	9559
1	3592	28.562060013429	9577
1	3597	28.579397678618	9586
1	3607	28.672469260767	9675
1	3619	28.766974345672	9618
1	3624	28.777779156502	9608
1	3632	28.825879752832	9562
1	3641	28.900091876965	9491
1	3644	28.907467285247	9484
1	3654	29	9395
1	3700	29.5	8916
1	3761	30	8850
1	3826	30.5	8462
1	3862	31	8943
1	3934	31.5	9191
1	4020	32	9396
1	4097	32.5	9095
1	4183	33	9259
1	4251	33.5	9153
1	4323	34	8941
1	4399	34.5	8936
1	4464	35	8993
1	4545	35.5	9051
1	4617	36	8988
1	4678	36.5	9652
1	4754	37	8841
1	4820	37.5	9016
1	4873	38	8212
1	4931	38.5	9307
1	4988	39	9582
1	5047	39.5	8645
1	5127	40	8853
1	5169	40.5	9553
1	5262	41	9123
1	5345	41.5	9227
1	5379	42	9324
1	5438	42.5	9439
1	5521	43	9554
1	5588	43.5	8820
1	5635	44	9391
1	5693	44.5	9222
1	5725	45	9843
1	5728	45.000745431037	9842
1	5733	45.060469928212	9829
1	5739	45.178136666616	9803
1	5745	45.29182202495	9777
1	5750	45.309410394221	9774
1	5753	45.316572252212	9772
1	5766	45.5	9731
1	5831	46	9612
1	5911	46.5	9487
1	5985	47	8182
1	6048	47.5	9800
1	6099	48	8647
1	6147	48.5	8279
1	6223	49	8318
1	6258	49.5	8214
1	6317	50	8110
1	6384	50.5	9030
1	6453	51	9752
1	6522	51.5	9524
1	6596	52	9299
1	6657	52.5	9074
1	6743	53	8722
1	6830	53.5	9495
1	6837	53.635335959996	9473
1	6842	53.647106253321	9472
1	6849	53.705809760161	9462
1	6853	53.713207773266	9461
1	6858	53.720606568319	9460
1	6866	53.760229237552	9454
1	6871	53.777337972133	9451
1	6879	53.836754430147	9442
1	6885	53.875480269544	9436
1	6891	53.931210819694	9427
1	6898	53.99560533165	9417
1	6899	54	9416
1	6955	54.5	9338
1	7008	55	9302
1	7011	55.02643366705	9304
1	7017	55.055484099823	9306
1	7023	55.139498219827	9313
1	7030	55.197271956264	9318
1	7037	55.23291978022	9321
1	7044	55.285211044859	9325
1	7049	55.305531688196	9327
1	7052	55.313036780938	9327
1	7061	55.385241106289	9333
1	7066	55.5	9343
1	7118	56	9383
1	7178	56.5	9424
1	7222	57	9465
1	7225	57.037867905913	9468
1	7230	57.086470354337	9472
1	7235	57.121400532684	9475
1	7240	57.145250420231	9477
1	7246	57.273026306064	9487
1	7254	57.312084745563	9490
1	7259	57.351061497005	9493
1	7262	57.358435351424	9494
1	7269	57.485902060742	9504
1	7273	57.5	9505
1	7277	57.542982836918	9509
1	7282	57.631550502884	9516
1	7287	57.648472559525	9517
1	7295	57.821023065993	9532
1	7298	57.828366750424	9532
1	7307	57.949370300767	9542
1	7310	57.956706289029	9543
1	7317	57.964041508562	9543
1	7320	57.971376728095	9544
1	7326	57.978711179059	9544
1	7333	57.99163255141	9545
1	7337	58	9546
1	7394	58.5	8695
1	7474	59	9524
1	7477	59.027592711875	9487
1	7483	59.148545281583	9325
1	7488	59.162756268759	9306
1	7493	59.268145286679	9166
1	7496	59.275782205728	9155
1	7503	59.298638171256	9125
1	7507	59.306309404133	9115
1	7514	59.338179314757	9072
1	7517	59.34589536414	9062
1	7524	59.373516727263	9025
1	7534	59.492670140923	8865
1	7535	59.5	8856
1	7606	60	9098
1	7668	60.5	9335
1	7724	61	8655
1	7795	61.5	8152
1	7853	62	8152
1	7928	62.5	9388
1	7966	63	9542
1	8023	63.5	9111
1	8061	64	9274
1	8157	64.5	8763
1	8225	65	8253
1	8264	65.5	8614
1	8314	66	9113
1	8398	66.5	8427
1	8469	67	8968
1	8519	67.5	8629
1	8614	68	9182
1	8677	68.5	9548
1	8753	69	9777
1	8760	69.017156375438	9785
1	8766	69.079731823286	9814
1	8769	69.086864490904	9817
1	8778	69.122480809133	8957
1	8784	69.189309229999	8439
1	8790	69.214822187517	8241
1	8793	69.223316302309	8176
1	8801	69.258479486716	8336
1	8806	69.305088823744	8552
1	8809	69.313274043576	8590
1	8816	69.370280907047	8853
1	8822	69.425063400559	9106
1	8829	69.475427034978	9339
1	8832	69.48292248417	9374
1	8839	69.5	9453
1	8893	70	9111
1	8941	70.5	9085
1	8994	71	8727
1	9112	71.5	8288
1	9167	72	8057
1	9251	72.5	8377
1	9307	73	9749
1	9314	73.051313906766	9804
1	9319	73.10999979316	8837
1	9324	73.120703902893	8660
1	9335	73.339203890464	8181
1	9344	73.464311789591	8288
1	9349	73.5	8319
1	9447	74	8746
1	9523	74.5	8929
1	9585	75	8704
1	9629	75.5	8478
1	9689	76	8473
1	9752	76.5	9268
1	9827	77	8237
1	9862	77.5	8659
1	9913	78	9120
1	9985	78.5	9128
1	10048	79	8520
1	10117	79.5	9158
1	10197	80	9693
1	10200	80.030300777173	9701
1	10203	80.037516528127	9703
1	10211	80.110530811682	9722
1	10219	80.296774530387	9771
1	10224	80.34398159299	9783
1	10231	80.478808335686	9818
1	10234	80.485938097348	9820
1	10240	80.5	9824
1	10243	80.503804692095	9825
1	10251	80.637854446582	9860
1	10257	80.651719823029	9864
1	10262	80.707737777167	9878
1	10267	80.722148435562	9882
1	10273	80.734858668698	9873
1	10278	80.767882363412	9781
1	10285	80.775039095852	9761
1	10288	80.782210492225	9741
1	10291	80.789396612747	9721
1	10298	80.822592755983	9629
1	10304	80.953734032078	9263
1	10310	80.979972054282	9190
1	10314	81	9134
1	10364	81.5	8092
1	10427	82	9704
1	10527	82.5	9308
1	10639	83	8129
1	10715	83.5	8528
1	10785	84	9121
1	10862	84.5	8865
1	10927	85	9586
1	10932	85.063433482418	9621
1	10946	85.243866233264	9718
1	10953	85.310699285202	9755
1	10962	85.413603844085	9254
1	10965	85.421168140605	9188
1	10970	85.428786773605	9123
1	10978	85.481615333857	9054
1	10982	85.5	9064
1	11030	86	9320
1	11094	86.5	9576
1	11162	87	8973
1	11233	87.5	8692
1	11294	88	9245
1	11361	88.5	9603
1	11410	89	8461
1	11454	89.5	9526
1	11523	90	8932
1	11596	90.5	9350
1	11656	91	9161
1	11720	91.5	8927
1	11790	92	9838
1	11799	92.190503987188	9110
1	11808	92.261313661213	9090
1	11813	92.303983195524	9235
1	11818	92.322868880801	9299
1	11826	92.467843813485	9746
1	11831	92.5	9723
1	11897	93	9370
1	11951	93.5	9016
1	12025	94	8663
1	12073	94.5	9081
1	12138	95	9002
1	12200	95.5	9075
1	12238	96	9198
1	12306	96.5	9322
1	12374	97	9445
1	12378	97.003330131366	9446
1	12386	97.0220167435	9450
1	12396	97.189764962468	9492
1	12403	97.22271038981	9500
1	12410	97.256495505598	9508
1	12417	97.321930263585	9524
1	12423	97.329280116588	9526
1	12426	97.336628426477	9527
1	12433	97.345703035914	9529
1	12439	97.451372950128	9547
1	12444	97.5	9556
1	12450	97.567809244487	9568
1	12457	97.634175393111	9580
1	12463	97.654500021489	9584
1	12468	97.664209570428	9585
1	12482	97.839667800885	9617
1	12490	97.979643939308	9641
1	12494	98	9645
1	12497	98.009004207873	9647
1	12503	98.044296807629	9653
1	12509	98.067164703202	9657
1	12518	98.495215616168	9733
1	12519	98.5	9734
1	12527	98.573193180254	9747
1	12532	98.584179367529	9749
1	12537	98.615652262596	9755
1	12543	98.653928286288	9761
1	12547	98.661099682661	9763
1	12555	98.674998983929	9682
1	12561	98.763257072908	8945
1	12566	98.78138982356	8794
1	12572	98.85953240128	8167
1	12578	98.904242400791	8247
1	12583	98.940421989196	8312
1	12589	99	8419
1	12656	99.5	8731
1	12718	100	8976
1	12817	100.5	9257
1	12891	101	9537
1	12973	101.5	9817
1	12978	101.635161702763	9893
1	12984	101.647796221609	9900
1	12989	101.691448174195	9925
1	12994	101.730254333076	9946
1	12997	101.737292338304	9950
1	13009	101.837283582351	9788
1	13014	101.854235473734	9759
1	13019	101.933469759076	9620
1	13024	101.963974774186	9567
1	13029	101.971291592415	9554
1	13032	101.978618366541	9541
1	13038	102	9504
1	13094	102.5	9191
1	13158	103	8836
1	13207	103.5	9348
1	13275	104	8737
1	13331	104.5	9168
1	13410	105	9119
1	13479	105.5	8540
1	13564	106	8847
1	13630	106.5	9436
1	13713	107	9567
1	13770	107.5	9149
1	13826	108	8850
1	13893	108.5	8776
1	13913	109	8702
1	13959	109.5	8629
1	14017	110	8712
1	14080	110.5	9461
1	14143	111	8804
1	14176	111.5	8577
1	14227	112	9453
1	14304	112.5	8918
1	14358	113	9639
1	14362	113.116893671593	9607
1	14370	113.21235619609	9582
1	14375	113.267574208077	9567
1	14383	113.431605217032	9523
1	14389	113.44567550375	9520
1	14392	113.453028444926	9518
1	14399	113.462757271307	9515
1	14404	113.5	9505
1	14433	114	9371
1	14507	114.5	9050
1	14559	115	8738
1	14623	115.5	8426
1	14727	116	8922
1	14786	116.5	9515
1	14829	117	8843
1	14895	117.5	9697
1	14966	118	8687
1	15036	118.5	9774
1	15090	119	8199
1	15137	119.5	8100
1	15189	120	9139
1	15238	120.5	8959
1	15299	121	8684
1	15371	121.5	9528
1	15374	121.575267566272	9655
1	15379	121.596265101836	9691
1	15386	121.705846384289	9704
1	15392	121.752119192102	9622
1	15397	121.850535914111	9448
1	15402	121.899098687309	9362
1	15407	121.952020177729	9269
1	15412	121.969754999003	9237
1	15417	121.990856768361	9200
1	15421	122	9184
1	15485	122.5	8300
1	15550	123	8825
1	15592	123.5	9446
1	15619	124	9634
1	15622	124.096198021052	9259
1	15627	124.133248201993	9114
1	15630	124.140928693544	9084
1	15638	124.163511095624	8996
1	15646	124.302749126564	8453
1	15661	124.5	9612
1	15664	124.513948482484	9604
1	15669	124.527971864357	9596
1	15675	124.543066881747	9588
1	15681	124.573710930526	9571
1	15688	124.603289828712	9554
1	15693	124.674108245067	9514
1	15696	124.681465823373	9510
1	15703	124.690466536449	9505
1	15709	124.795102362515	9445
1	15716	124.836873812388	9422
1	15719	124.844303232893	9418
1	15724	124.851735808811	9413
1	15732	124.922819500453	9373
1	15735	124.930287760348	9369
1	15742	124.944660621002	9361
1	15745	124.952138454567	9357
1	15750	124.959619484812	9352
1	15758	124.980478161091	9341
1	15763	125	9330
1	15855	125.5	9037
1	15915	126	9428
1	15965	126.5	8963
1	15998	127	8643
1	16059	127.5	8503
1	16111	128	9626
1	16117	128.104974407191	9709
1	16122	128.135772160281	9678
1	16127	128.17043165986	9644
1	16132	128.213051672628	9601
1	16144	128.496388450456	9320
1	16145	128.5	9316
1	16173	129	8819
1	16226	129.5	8651
1	16289	130	8870
1	16373	130.5	9089
1	16417	131	9307
1	16504	131.5	9337
1	16560	132	9048
1	16607	132.5	8724
1	16657	133	9309
1	16710	133.5	9544
1	16713	133.501956399925	9545
1	16718	133.560128229541	9572
1	16725	133.633428784213	9607
1	16728	133.640715137913	9610
1	16735	133.697823570171	9637
1	16740	133.73766427847	9656
1	16743	133.744913657095	9659
1	16750	133.79195465503	9682
1	16755	133.817182151432	9693
1	16761	133.859429913578	9713
1	16766	133.868592161815	9718
1	16772	133.884580222334	9725
1	16777	133.970851823569	9766
1	16783	133.983327757953	9772
1	16788	134	9780
1	16791	134.0436145807	9800
1	16796	134.051951708423	9804
1	16802	134.159263947651	9855
1	16808	134.230593364221	9888
1	16817	134.400516082536	9388
1	16823	134.479199925077	9150
1	16829	134.5	9087
1	16888	135	8142
1	16929	135.5	8672
1	16996	136	9937
1	17002	136.035062227171	9941
1	17008	136.075883071893	9742
1	17014	136.084746831271	9699
1	17026	136.286867319773	8612
1	17032	136.294995512992	8571
1	17041	136.316701076636	8578
1	17046	136.352694602925	8590
1	17054	136.407506069038	8608
1	17060	136.420014450505	8612
1	17066	136.445629082859	8621
1	17072	136.458847969718	8625
1	17077	136.5	8639
1	17165	137	8927
1	17230	137.5	8169
1	17306	138	8325
1	17382	138.5	8480
1	17436	139	9249
1	17474	139.5	9701
1	17523	140	9586
1	17575	140.5	9470
1	17659	141	9354
1	17737	141.5	9239
1	17797	142	8850
1	17841	142.5	8621
1	17900	143	8787
1	17942	143.5	8953
1	18007	144	9119
1	18094	144.5	9169
1	18133	145	8452
1	18204	145.5	8917
1	18251	146	8492
1	18314	146.5	8304
1	18367	147	9268
1	18434	147.5	9589
1	18505	148	9237
1	18559	148.5	8304
1	18627	149	9684
1	18695	149.5	9891
1	18699	149.588777143098	9876
1	18705	149.673814595404	9861
1	18712	149.751613084112	9826
1	18718	149.824890136524	8812
1	18725	149.842929892156	8562
1	18732	149.899573771821	8355
1	18737	149.951331280738	8408
1	18742	149.970602191723	8428
1	18746	150	8458
1	18801	150.5	8971
1	18891	151	9489
1	18894	151.006229857056	9515
1	18898	151.013586662101	9546
1	18911	151.102291484179	9769
1	18918	151.113441105139	9770
1	18921	151.120605895313	9770
1	18931	151.159223444771	9772
1	18937	151.176445860072	9773
1	18942	151.20698394383	9774
1	18945	151.214145801821	9775
1	18952	151.272236828618	9777
1	18967	151.429037263526	9785
1	18973	151.460129783026	9786
1	18979	151.5	9782
1	18982	151.515135777713	9779
1	18987	151.533494165258	9777
1	18994	151.699985123835	9753
1	19002	151.750497036805	9746
1	19008	151.788407385324	9741
1	19013	151.821357019979	9736
1	19018	151.90234873868	9724
1	19027	152	9716
1	19033	152.092245556859	9663
1	19039	152.115698879333	9649
1	19044	152.129934359748	9641
1	19049	152.151768143476	9628
1	19055	152.207973552158	9596
1	19061	152.231735844801	9582
1	19070	152.450321656538	9455
1	19075	152.5	9426
1	19121	153	9001
1	19200	153.5	8772
1	19254	154	9145
1	19303	154.5	9158
1	19360	155	9044
1	19435	155.5	8933
1	19482	156	8843
1	19532	156.5	8752
1	19587	157	8692
1	19634	157.5	9567
1	19680	158	8832
1	19773	158.5	8828
1	19835	159	8817
1	19869	159.5	8806
1	19918	160	8823
1	19967	160.5	8988
1	20050	161	9220
1	20142	161.5	9191
1	20216	162	8772
1	20267	162.5	9860
1	20275	162.605951251519	9555
1	20282	162.687380168856	9260
1	20288	162.731561323529	9100
1	20291	162.739253631221	9072
1	20301	162.777392662694	9069
1	20306	162.791055179724	9185
1	20309	162.798676301118	9250
1	20316	162.810729601243	9353
1	20324	163	9739
1	20329	163.136737885544	9654
1	20335	163.18351548317	9625
1	20338	163.190788210443	9620
1	20345	163.218309646595	9603
1	20353	163.285730142501	9561
1	20360	163.340122890621	9527
1	20366	163.42614561056	9474
1	20371	163.433865062611	9469
1	20376	163.457209848036	9454
1	20381	163.478247959406	9441
1	20386	163.489208776614	9434
1	20390	163.5	9428
1	20464	164	9252
1	20519	164.5	9256
1	20581	165	9766
1	20650	165.5	8632
1	20742	166	9628
1	20809	166.5	9217
1	20856	167	9067
1	20907	167.5	9067
1	20993	168	9157
1	21053	168.5	9838
1	21057	168.517136753762	9861
1	21064	168.597566149968	9914
1	21067	168.604626872179	9910
1	21076	168.765007833572	9817
1	21083	168.938195639259	9466
1	21088	169	9329
1	21143	169.5	8845
1	21207	170	8815
1	21254	170.5	8780
1	21318	171	9100
1	21387	171.5	8883
1	21444	172	9134
1	21485	172.5	9197
1	21588	173	8538
1	21654	173.5	8955
1	21711	174	9426
1	21785	174.5	8426
1	21853	175	8863
1	21911	175.5	8795
1	21989	176	8463
1	22037	176.5	8721
1	22112	177	8746
1	22220	177.5	8899
1	22283	178	9171
1	22363	178.5	8912
1	22446	179	9154
1	22516	179.5	8959
1	22573	180	8837
1	22642	180.5	8714
1	22730	181	8592
1	22770	181.5	8603
1	22817	182	9745
1	22820	182.002369825323	9742
1	22825	182.025360524762	9714
1	22831	182.068507572761	9654
1	22837	182.080884468509	9605
1	22846	182.186562338221	9188
1	22852	182.264366176253	8941
1	22856	182.272195278143	8947
1	22861	182.280019129713	8953
1	22869	182.35297330296	9010
1	22877	182.444607594108	9081
1	22882	182.497398419207	9122
1	22883	182.5	9124
1	22937	183	9780
1	22942	183.080254245634	9639
1	22952	183.197938858663	9433
1	22959	183.282032547435	9286
1	22966	183.351092376639	9165
1	22976	183.452753595931	9083
1	22981	183.493930164646	9116
1	22984	183.5	9121
1	23038	184	9525
1	23125	184.5	9707
1	23163	185	9812
1	23168	185.091724343489	9736
1	23178	185.247859181232	9606
1	23183	185.261250792939	9595
1	23194	185.420088726662	9463
1	23200	185.5	9397
1	23235	186	9160
1	23285	186.5	9135
1	23352	187	8982
1	23418	187.5	8344
1	23492	188	8486
1	23569	188.5	9404
1	23632	189	9157
1	23708	189.5	9267
1	23762	190	9263
1	23821	190.5	9073
1	23921	191	8211
1	23960	191.5	8735
1	24041	192	9258
1	24096	192.5	8504
1	24157	193	9249
1	24243	193.5	8586
1	24316	194	9134
1	24359	194.5	9106
1	24425	195	9048
1	24492	195.5	9125
1	24556	196	9597
1	24641	196.5	9729
1	24699	197	8358
1	24760	197.5	8158
1	24837	198	8926
1	24900	198.5	9749
1	24983	199	9365
1	25048	199.5	8980
1	25074	200	8596
1	25133	200.5	8802
1	25201	201	8871
1	25247	201.5	8879
1	25328	202	9216
1	25381	202.5	9415
1	25435	203	9582
1	25510	203.5	9749
1	25563	204	8875
1	25644	204.5	8273
1	25709	205	8340
1	25815	205.5	8611
1	25876	206	8967
1	25976	206.5	8934
1	26026	207	9573
1	26090	207.5	8568
1	26156	208	8415
1	26218	208.5	8263
1	26279	209	8906
1	26325	209.5	8763
1	26373	210	8585
1	26451	210.5	9004
1	26520	211	9455
1	26618	211.5	9494
1	26680	212	9534
1	26683	212.002219803316	9534
1	26690	212.085049396943	9541
1	26699	212.257482356209	9601
1	26704	212.266855180602	9608
1	26709	212.284354854648	9620
1	26715	212.384730103908	9364
1	26721	212.445821122649	9176
1	26728	212.489848578856	9039
1	26732	212.5	9006
1	26817	213	8457
1	26879	213.5	8364
1	26929	214	9425
1	26990	214.5	9220
1	27057	215	9015
1	27149	215.5	8882
1	27192	216	8888
1	27245	216.5	9430
1	27250	216.561042118498	9365
1	27255	216.59638107673	9327
1	27260	216.657943982912	9262
1	27265	216.745516511546	9169
1	27276	216.873014888217	8892
1	27286	217	8394
1	27356	217.5	8154
1	27431	218	8224
1	27503	218.5	8295
1	27540	219	8808
1	27599	219.5	9405
1	27602	219.514485069517	9401
1	27607	219.530767100113	9396
1	27612	219.540413269259	9394
1	27617	219.559579099807	9388
1	27622	219.591508795853	9380
1	27627	219.656780969341	9362
1	27633	219.703504289358	9349
1	27638	219.745609388495	9337
1	27643	219.755506848896	9335
1	27648	219.833310230676	9313
1	27655	219.872923711402	9302
1	27660	219.96157940485	9278
1	27664	220	9268
1	27724	220.5	9131
1	27777	221	8994
1	27834	221.5	9225
1	27870	222	9663
1	27950	222.5	9502
1	28013	223	9209
1	28044	223.5	8390
1	28118	224	8067
1	28184	224.5	8565
1	28238	225	9806
1	28242	225.012325348314	9757
1	28248	225.05648705773	9580
1	28251	225.063793947083	9551
1	28258	225.117566764214	9336
1	28267	225.269619792261	8746
1	28272	225.282220811326	8723
1	28278	225.319768305208	8658
1	28286	225.361028872592	8626
1	28292	225.441820140915	8563
1	28297	225.5	8518
1	28384	226	9222
1	28432	226.5	9536
1	28474	227	8591
1	28520	227.5	8333
1	28588	228	9234
1	28652	228.5	8947
1	28727	229	9692
1	28735	229.077033051328	9666
1	28748	229.247603803497	9514
1	28753	229.271941638724	9493
1	28758	229.296457439514	9471
1	28763	229.327665555711	9443
1	28769	229.385693668574	9344
1	28774	229.437092698338	9234
1	28779	229.5	9098
1	28822	230	9024
1	28886	230.5	8646
1	28939	231	9057
1	29001	231.5	9062
1	29063	232	8430
1	29128	232.5	9679
1	29173	233	9645
1	29231	233.5	8194
1	29279	234	8325
1	29336	234.5	8245
1	29399	235	8165
1	29474	235.5	8088
1	29544	236	8381
1	29579	236.5	8676
1	29627	237	8496
1	29700	237.5	8283
1	29747	238	8329
1	29818	238.5	8376
1	29878	239	8422
1	29940	239.5	8435
1	30000	240	9317
1	30060	240.5	9692
1	30063	240.504508667037	9695
1	30072	240.561454618275	9718
1	30075	240.568657746491	9701
1	30082	240.694747495067	9413
1	30085	240.702184019023	9396
1	30090	240.709633997737	9379
1	30097	240.717892330431	9360
1	30103	240.784683885384	9208
1	30108	240.817486279476	9133
1	30113	240.85702869234	9043
1	30118	240.871514414838	9010
1	30123	240.902077118647	8940
1	30128	241	8716
1	30179	241.5	8401
1	30217	242	8767
1	30272	242.5	8388
1	30302	243	9057
1	30387	243.5	9417
1	30462	244	8872
1	30545	244.5	8601
1	30613	245	9366
1	30617	245.037102153107	9385
1	30623	245.054074348889	9394
1	30629	245.099407834898	9417
1	30636	245.133564867392	9434
1	30641	245.143601754739	9440
1	30646	245.15390449959	9445
1	30651	245.167182119762	9452
1	30656	245.177619473671	9457
1	30662	245.29489004625	8619
1	30668	245.323511022845	8385
1	30674	245.348735629469	8416
1	30681	245.415819315018	8501
1	30685	245.5	8607
1	30744	246	8354
1	30804	246.5	8877
1	30915	247	8897
1	30972	247.5	8659
1	31035	248	8421
1	31090	248.5	9277
1	31140	249	9935
1	31144	249.03245905531	9918
1	31149	249.099353420774	9859
1	31154	249.116920542009	9843
1	31160	249.212035761737	9758
1	31165	249.238357715166	9735
1	31171	249.34835930771	9637
1	31174	249.355622978977	9630
1	31182	249.460906177006	9537
1	31186	249.5	9502
1	31234	250	9057
1	31280	250.5	8792
1	31342	251	8824
1	31415	251.5	8737
1	31482	252	8522
1	31559	252.5	8306
1	31593	253	9037
1	31687	253.5	9192
1	31765	254	8964
1	31813	254.5	8736
1	31872	255	9457
1	31944	255.5	9539
1	31951	255.574183864739	9551
1	31957	255.623316460958	9559
1	31963	255.636747519059	9562
1	31968	255.666015835596	9566
1	31977	255.736994634927	9531
1	31983	255.803644201108	9346
1	31990	255.853876412149	9206
1	32000	255.904549135639	9078
1	32011	256	8868
1	32100	256.5	8245
1	32146	257	8236
1	32217	257.5	9298
1	32220	257.511585100193	9323
1	32225	257.52217364851	9347
1	32233	257.669714738683	9271
1	32238	257.785815180615	9088
1	32245	257.866541143543	8961
1	32252	257.964277940154	8807
1	32258	257.980094750885	8782
1	32266	258	8739
1	32350	258.5	8370
1	32405	259	8426
1	32447	259.5	9057
1	32511	260	8942
1	32587	260.5	8397
1	32636	261	9389
1	32694	261.5	8889
1	32751	262	8203
1	32807	262.5	9505
1	32812	262.604580882926	9883
1	32815	262.6116637525	9908
1	32823	262.641424846891	9762
1	32828	262.6687570528	9597
1	32833	262.686186298973	9493
1	32838	262.701323983238	9401
1	32843	262.722281351443	9275
1	32848	262.748328289342	9119
1	32854	262.761344401148	9040
1	32861	262.791636603728	9035
1	32866	262.833292067109	9302
1	32874	263	9570
1	32929	263.5	9733
1	32935	263.618800127679	9810
1	32940	263.654226923885	9833
1	32946	263.679579376082	9849
1	32951	263.68853032087	9855
1	32956	263.713199229327	9871
1	32962	263.735976040259	9859
1	32967	263.765222388674	9837
1	32973	263.833222585036	9785
1	32979	263.845490196171	9776
1	32984	263.87311647475	9755
1	32992	264	9658
1	33049	264.5	9611
1	33119	265	9372
1	33208	265.5	9088
1	33265	266	8986
1	33320	266.5	8955
1	33375	267	8790
1	33454	267.5	9292
1	33510	268	8583
1	33551	268.5	8555
1	33613	269	9497
1	33662	269.5	9536
1	33665	269.512661272638	9567
1	33672	269.566719328906	9703
1	33679	269.594767745626	9708
1	33686	269.667098212567	9675
1	33691	269.700248121685	9660
1	33697	269.739020451584	9643
1	33702	269.788572574292	9621
1	33707	269.797201920118	9617
1	33711	269.804480697283	9614
1	33718	269.828764891393	9603
1	33724	269.935373460264	9556
1	33727	269.94269870095	9552
1	33734	269.981108721276	9535
1	33738	270	9527
1	33777	270.5	9304
1	33862	271	8580
1	33916	271.5	8524
1	33963	272	8690
1	34022	272.5	9554
1	34100	273	9696
1	34157	273.5	9693
1	34209	274	8869
1	34265	274.5	8489
1	34322	275	8277
1	34393	275.5	9080
1	34471	276	9846
1	34527	276.5	9577
1	34591	277	8410
1	34646	277.5	9062
1	34731	278	9390
1	34772	278.5	9668
1	34837	279	9734
1	34903	279.5	9482
1	34957	280	9566
1	35037	280.5	9649
1	35041	280.512175339089	9651
1	35046	280.549693525094	9657
1	35051	280.601642018802	9666
1	35054	280.608883897552	9667
1	35062	280.620307091703	9669
1	35068	280.694237959146	9681
1	35073	280.703009812467	9683
1	35079	280.714435986735	9685
1	35084	280.831859600549	9704
1	35089	280.844714351162	9707
1	35096	280.861629461684	9709
1	35102	281	9732
1	35130	281.5	9816
1	35177	282	8840
1	35232	282.5	8976
1	35304	283	9112
1	35363	283.5	8097
1	35463	284	8548
1	35542	284.5	8696
1	35596	285	8780
1	35665	285.5	8573
1	35725	286	8412
1	35805	286.5	8381
1	35847	287	9448
1	35889	287.5	9073
1	35935	288	9359
1	36006	288.5	8714
1	36041	289	8933
1	36107	289.5	8216
1	36158	290	8605
1	36220	290.5	8994
1	36247	291	9398
1	36250	291.011535537466	9414
1	36255	291.027263460595	9437
1	36260	291.045726251813	9464
1	36265	291.063686484106	9490
1	36270	291.093903176042	9534
1	36276	291.102918691289	9547
1	36283	291.145079657789	9608
1	36288	291.175675050011	9653
1	36297	291.248182186749	9745
1	36305	291.348619695751	9559
1	36310	291.362879401374	9533
1	36316	291.423329666426	9421
1	36320	291.430759875533	9407
1	36326	291.5	9279
1	36380	292	8434
1	36436	292.5	8471
1	36491	293	8603
1	36528	293.5	8708
1	36603	294	9147
1	36684	294.5	8472
1	36792	295	8264
1	36861	295.5	8618
1	36906	296	8855
1	36952	296.5	8961
1	37003	297	9796
1	37007	297.024175916124	9874
1	37013	297.04749536423	9865
1	37019	297.17381699852	9817
1	37025	297.311104277061	9765
1	37030	297.337978803108	9754
1	37036	297.358146704493	9747
1	37047	297.470091626369	8677
1	37050	297.478158930737	8669
1	37056	297.5	8646
1	37108	298	9674
1	37194	298.5	9819
1	37243	299	9555
1	37299	299.5	9291
1	37342	300	9027
1	37433	300.5	8915
1	37485	301	9642
1	37535	301.5	9264
1	37605	302	8885
1	37646	302.5	8507
1	37701	303	8488
1	37769	303.5	8776
1	37829	304	9029
1	37903	304.5	9273
1	37970	305	9078
1	38030	305.5	8368
1	38122	306	8280
1	38192	306.5	9103
1	38249	307	8755
1	38296	307.5	8426
1	38346	308	9753
1	38437	308.5	8791
1	38511	309	8976
1	38580	309.5	9517
1	38590	309.644528417094	8454
1	38599	309.797314050674	8784
1	38602	309.805283085282	8802
1	38614	309.92085516635	9052
1	38623	309.977480448866	9174
1	38628	309.9854891248	9191
1	38634	309.995295050289	9213
1	38637	310	9223
1	38708	310.5	8421
1	38785	311	8927
1	38859	311.5	9502
1	38952	312	9413
1	38999	312.5	9111
1	39039	313	9006
1	39090	313.5	8901
1	39148	314	9659
1	39154	314.021818114808	9661
1	39159	314.03865626381	9662
1	39165	314.115299335172	9669
1	39168	314.122538966985	9670
1	39175	314.144441380928	9672
1	39178	314.151678767198	9672
1	39187	314.213665913822	9678
1	39190	314.220898813181	9678
1	39197	314.241731332264	9680
1	39203	314.297392789112	9685
1	39206	314.304620460769	9686
1	39212	314.311847386228	9686
1	39220	314.349854153443	9690
1	39228	314.382240879035	9693
1	39233	314.412527806466	9695
1	39238	314.43985197193	9698
1	39243	314.45442843732	9699
1	39247	314.5	9703
1	39289	315	9747
1	39340	315.5	9791
1	39343	315.51543157168	9792
1	39348	315.545106631454	9795
1	39353	315.556261720701	9796
1	39359	315.646802235347	9804
1	39364	315.738128859204	9812
1	39369	315.766569102781	9814
1	39374	315.780815212341	9816
1	39380	315.797626931149	9817
1	39385	315.818549444635	9819
1	39390	315.852435462094	9822
1	39393	315.859562320168	9822
1	39401	315.878850413858	9824
1	39404	315.885975821024	9825
1	39412	315.92499559956	9828
1	39417	315.982101888354	9833
1	39421	316	9835
1	39491	316.5	9879
1	39498	316.676434875718	9885
1	39503	316.722061857194	9882
1	39510	316.803083747179	9875
1	39515	316.812344372439	9875
1	39520	316.828412823417	9873
1	39525	316.836244023922	9873
1	39531	316.914042256608	9867
1	39536	316.947458126631	9864
1	39541	317	9860
1	39544	317.006448427532	9859
1	39549	317.035169118126	9857
1	39555	317.060670452449	9855
1	39561	317.111348594106	9851
1	39564	317.118454471682	9851
1	39575	317.290723565008	9837
1	39580	317.302786365464	9836
1	39583	317.309903079575	9836
1	39591	317.384639088362	9830
1	39596	317.418491098272	9827
1	39601	317.432774322565	9826
1	39606	317.5	9821
1	39609	317.517156699294	9819
1	39618	317.824457143702	9543
1	39624	317.845847001482	9506
1	39629	317.905053572306	9405
1	39636	317.931283608962	9360
1	39641	317.963713573954	9304
1	39644	317.971237219698	9291
1	39650	318	9242
1	39717	318.5	8948
1	39799	319	8823
1	39874	319.5	8697
1	39937	320	8571
1	40010	320.5	9195
1	40051	321	8970
1	40123	321.5	9136
1	40175	322	9289
1	40231	322.5	8815
1	40300	323	8736
1	40385	323.5	9639
1	40464	324	9594
1	40521	324.5	9543
1	40634	325	9491
1	40700	325.5	9316
1	40776	326	8369
1	40818	326.5	8483
1	40881	327	8492
1	40973	327.5	8833
1	41046	328	8788
1	41133	328.5	8787
1	41195	329	8722
1	41273	329.5	9133
1	41299	330	9314
1	41370	330.5	8752
1	41426	331	9730
1	41431	331.059568522501	9750
1	41442	331.114902225619	8915
1	41447	331.123364641248	8739
1	41455	331.171310757205	8146
1	41461	331.203681596491	8154
1	41466	331.265018635712	8169
1	41476	331.403483176205	8202
1	41481	331.415611502224	8205
1	41488	331.5	8226
1	41537	332	8347
1	41601	332.5	8468
1	41659	333	8496
1	41706	333.5	8768
1	41746	334	9373
1	41826	334.5	9323
1	41892	335	9859
1	41893	335	9859
1	41902	335.046238819005	9727
1	41908	335.068839967333	9663
1	41913	335.078066920061	9637
1	41916	335.085330591328	9616
1	41924	335.099751352677	9575
1	41929	335.123894830542	9507
1	41935	335.183958854053	9268
1	41940	335.208638178829	9138
1	41946	335.226906517819	9041
1	41955	335.353339124544	8374
1	41961	335.399507603098	8196
1	41966	335.44136677815	8218
1	41972	335.5	8248
1	42038	336	8506
1	42072	336.5	8764
1	42134	337	9023
1	42188	337.5	9435
1	42255	338	8885
1	42299	338.5	9415
1	42365	339	9029
1	42445	339.5	8704
1	42496	340	8579
1	42542	340.5	8985
1	42603	341	8930
1	42668	341.5	8587
1	42713	342	8343
1	42793	342.5	8501
1	42847	343	9239
1	42942	343.5	9178
1	42971	344	9497
1	43012	344.5	9817
1	43017	344.571648565044	9863
1	43023	344.595031907353	9878
1	43032	344.675036499905	9464
1	43039	344.736588498834	9099
1	43044	344.744281651928	9054
1	43047	344.752013041369	9008
1	43059	344.915645922627	8273
1	43067	345	8288
1	43143	345.5	9596
1	43151	345.559541936399	9752
1	43157	345.595000261567	9845
1	43164	345.616858837771	9859
1	43172	345.817891826214	9715
1	43178	345.857376259848	9687
1	43183	345.922039149953	9640
1	43187	346	9584
1	43265	346.5	8885
1	43316	347	8762
1	43389	347.5	8638
1	43443	348	8238
1	43501	348.5	9016
1	43566	349	8892
1	43661	349.5	8690
1	43703	350	8635
1	43759	350.5	8580
1	43833	351	8524
1	43896	351.5	8436
1	43984	352	8415
1	44076	352.5	8139
1	44133	353	8453
1	44196	353.5	8799
1	44241	354	8986
1	44287	354.5	9169
1	44349	355	9611
1	44354	355.063504959951	9619
1	44359	355.07747424199	9584
1	44365	355.191072640036	9305
1	44373	355.276082397008	9143
1	44376	355.283738527381	9137
1	44383	355.352423127674	9091
1	44389	355.374211544639	9074
1	44394	355.402064343848	9046
1	44399	355.431441098784	9017
1	44403	355.439204212902	9009
1	44409	355.5	8948
1	44453	356	9446
1	44457	356.014993756582	9474
1	44462	356.062424997015	9565
1	44472	356.201517195327	9607
1	44475	356.208803549027	9608
1	44482	356.281747789006	9612
1	44489	356.351980210263	9617
1	44494	356.372106551059	9618
1	44497	356.379384571437	9618
1	44504	356.387577845052	9619
1	44509	356.5	9717
1	44518	356.707720953199	9995
1	44524	356.731436864672	9993
1	44529	356.812261263242	9987
1	44534	356.823611762265	9987
1	44540	356.871039114826	9983
1	44547	356.934611517757	9978
1	44554	357	9974
1	44557	357.00777037885	9973
1	44565	357.095354632706	9966
1	44569	357.102378513902	9966
1	44576	357.14749113415	9963
1	44581	357.175456498923	9961
1	44587	357.185751940894	9943
1	44593	357.230775535726	9855
1	44596	357.23787852913	9841
1	44606	357.419586989421	9486
1	44611	357.463009810512	9402
1	44616	357.485784361036	9357
1	44620	357.5	9329
1	44686	358	8564
1	44738	358.5	9025
1	44805	359	9485
1	44813	359.231355964193	9609
1	44818	359.295307756742	9601
1	44823	359.339780901124	9596
1	44830	359.435828268251	9580
1	44835	359.5	9532
1	44838	359.564313559398	9484
1	44843	359.57887701792	9473
1	44846	359.586266440489	9467
1	44851	359.59366054633	9462
1	44856	359.601058559435	9456
1	44864	359.668043428145	9406
1	44869	359.725710430262	9362
1	44874	359.736030203173	9355
1	44879	359.76296286273	9335
1	44891	359.919189809896	9659
1	44899	360	9472
1	44978	360.5	9660
1	44981	360.501532123631	9661
1	44985	360.508777750378	9667
1	44992	360.528775923322	9683
1	44997	360.570042635735	9716
1	45002	360.581458057322	9725
1	45008	360.601905366583	9689
1	45017	360.672959826729	8915
1	45022	360.703662745418	8790
1	45027	360.717350336079	8734
1	45033	360.744825080981	8621
1	45038	360.760618198474	8557
1	45041	360.768798635543	8523
1	45050	360.799905717386	8396
1	45057	360.808505845787	8399
1	45063	360.819152558063	8427
1	45066	360.827459191503	8450
1	45073	360.83673693262	8475
1	45078	360.847424262935	8503
1	45084	360.977763288548	8854
1	45088	361	8914
1	45162	361.5	9407
1	45240	362	9225
1	45318	362.5	9043
1	45393	363	8862
1	45443	363.5	8680
1	45491	364	8498
1	45550	364.5	8317
1	45611	365	9537
1	45679	365.5	8583
1	45761	366	8814
1	45822	366.5	9046
1	45876	367	9211
1	45927	367.5	9356
1	45966	368	9288
1	46024	368.5	9396
1	46121	369	9626
1	46125	369.117213753275	9680
1	46130	369.143357112917	9692
1	46135	369.179947752933	9709
1	46141	369.239300103372	9736
1	46145	369.246489914383	9740
1	46150	369.253676772699	9743
1	46159	369.310079569158	9769
1	46164	369.39781143207	9809
1	46169	369.413470866681	9816
1	46174	369.422816702014	9821
1	46178	369.429944285763	9824
1	46187	369.488869315962	9812
1	46191	369.5	9791
1	46198	369.577556558092	9644
1	46204	369.594092249908	9613
1	46209	369.605118823043	9592
1	46218	369.690055994905	9431
1	46221	369.697478325517	9417
1	46231	369.862698791704	9104
1	46235	369.870387719648	9090
1	46243	369.940663290841	8990
1	46248	370	8970
1	46321	370.5	8809
1	46379	371	9560
1	46450	371.5	8448
1	46530	372	9637
1	46596	372.5	8917
1	46647	373	8341
1	46709	373.5	8285
1	46778	374	8272
1	46834	374.5	8628
1	46890	375	8514
1	46989	375.5	8480
1	47046	376	8654
1	47112	376.5	8828
1	47176	377	8542
1	47233	377.5	8671
1	47300	378	8931
1	47399	378.5	8937
1	47510	379	8668
1	47564	379.5	9238
1	47630	380	8866
1	47686	380.5	8966
1	47741	381	9067
1	47801	381.5	9167
1	47862	382	9170
1	47893	382.5	8951
1	47937	383	9221
1	47981	383.5	8309
1	48044	384	9279
1	48117	384.5	8921
1	48175	385	8563
1	48234	385.5	9787
1	48239	385.577984206377	9721
1	48247	385.663681018845	9648
1	48252	385.688737513751	9626
1	48255	385.696009485494	9620
1	48264	385.73909223873	9583
1	48267	385.746396840629	9577
1	48272	385.753706018869	9571
1	48282	385.799216355274	9532
1	48288	385.898052011766	9448
1	48293	385.954423821692	9400
1	48297	386	9361
1	48301	386.035990852658	9330
1	48307	386.123350911178	9281
1	48314	386.137444879223	9277
1	48319	386.1752199051	9266
1	48326	386.296203109555	9231
1	48333	386.38857813536	9204
1	48336	386.396183524321	9202
1	48347	386.477835972981	9178
1	48351	386.5	9172
1	48405	387	9229
1	48461	387.5	9527
1	48466	387.561544420687	9520
1	48471	387.606365943629	9515
1	48474	387.613722748674	9514
1	48482	387.698371451451	9505
1	48486	387.705735996427	9504
1	48495	387.769441359471	9497
1	48500	387.787098189916	9495
1	48505	387.834914531672	9490
1	48509	387.84229071713	9489
1	48514	387.849667679929	9488
1	48524	388	9472
1	48527	388.11637015432	9459
1	48532	388.125856044337	9458
1	48538	388.184597603955	9451
1	48547	388.277851111334	9441
1	48554	388.314506509802	9437
1	48561	388.359267335205	9253
1	48568	388.441047803906	8369
1	48575	388.477943707749	8356
1	48579	388.5	8348
1	48653	389	9394
1	48715	389.5	8937
1	48786	390	9588
1	48838	390.5	9476
1	48884	391	9541
1	48945	391.5	9607
1	49034	392	9061
1	49137	392.5	8335
1	49212	393	8621
[...]
24	21532	172.701877405555	0.41398335956285
24	21615	173.115860765118	0.45955306081106
24	21657	173.575413825929	0.62159025312122
24	21755	174.19700407905	0.90605964699855
24	21861	175.103063726049	0.18075742359349
24	21871	175.283821149642	0.030569711409052
24	21877	175.314390861051	0.072741608175284
24	21884	175.387132469226	0.72173292118874
24	22002	176.108865390415	0.11405781361741
24	22014	176.222923204032	0.015414494306656
24	22015	176.238337698339	0.94331020481533
24	22157	177.181647903154	0.16041335722214
24	22201	177.342061260376	1.4304264463788
24	22419	178.772487706755	0.53981373499638
24	22479	179.312301441751	0.71026392869996
24	22577	180.022565370451	0.23927119451625
24	22609	180.261836564967	0.68959340154752
24	22724	180.951429966515	0.50012520591206
24	22767	181.451555172427	0.25671291523092
24	22790	181.708268087658	0.064430536335353
24	22792	181.772698623993	0.097048250645038
24	22805	181.869746874638	0.039844641899871
24	22806	181.909591516538	0.46804094857321
24	22873	182.377632465111	0.26370742401866
24	22896	182.64133988913	0.090165521492745
24	22908	182.731505410623	0.16511011374254
24	22928	182.896615524366	0.072518906959541
24	22935	182.969134431326	0.15922363035884
24	22947	183.128358061685	0.21999774340814
24	22964	183.348355805093	1.9521389470088
24	23190	185.300494752102	0.58646617722659
24	23234	185.886960929329	0.53760409910299
24	23283	186.424565028432	0.21755122581578
24	23301	186.642116254248	0.95514721387389
24	23438	187.597263468122	0.20209371155466
24	23463	187.799357179677	0.11523702911125
24	23480	187.914594208788	0.60822244054054
24	23574	188.522816649329	0.13803936552035
24	23585	188.660856014849	0.54251054312785
24	23656	189.203366557977	0.047311058774491
24	23671	189.250677616751	0.31052263310979
24	23722	189.561200249861	1.617431430583
24	23931	191.178631680444	0.068028270560958
24	23944	191.246659951005	0.26460178266596
24	23962	191.511261733671	0.06412073829034
24	23964	191.575382471961	0.11655233475688
24	23990	191.691934806718	0.17076841745483
24	24010	191.862703224173	2.2984936975057
24	24334	194.161196921679	0.8137903296723
24	24420	194.974987251351	0.25904755037631
24	24451	195.234034801727	0.0059452906844277
24	24452	195.239980092411	0.12264739998725
24	24469	195.362627492398	0.090147910472658
24	24482	195.452775402871	0.43909243476361
24	24545	195.891867837635	1.0721003389905
24	24691	196.963968176625	0.24699572483947
24	24710	197.210963901464	0.11562333395302
24	24724	197.326587235417	0.18363053124999
24	24764	197.510217766667	0.76389840180669
24	24875	198.274116168474	0.21227331846825
24	24894	198.486389486942	0.25082504579675
24	24955	198.737214532739	1.02869750467
24	25073	199.765912037409	1.6365757491087
24	25239	201.402487786518	0.4559095033781
24	25305	201.858397289896	0.41913099053139
24	25359	202.277528280427	0.64833490024176
24	25429	202.925863180669	1.1617361844983
24	25578	204.087599365167	0.52598900876534
24	25655	204.613588373932	0.33825090329106
24	25705	204.951839277223	0.026261454949561
24	25706	204.978100732173	0.03178496828111
24	25717	205.009885700454	0.46152403697184
24	25809	205.471409737426	0.63908695768345
24	25907	206.110496695109	0.67498365583132
24	26013	206.78548035094	0.075746344122715
24	26019	206.861226695063	0.73414620873854
24	26105	207.595372903802	0.7274227748581
24	26187	208.32279567866	0.022819859674212
24	26191	208.345615538334	0.3900804927129
24	26251	208.735696031047	0.70336843286358
24	26318	209.439064463911	1.431128049528
24	26508	210.870192513439	1.0457864094012
24	26672	211.91597892284	0.24646126889808
24	26696	212.162440191738	0.87738870130215
24	26826	213.03982889304	0.54388556612806
24	26887	213.583714459168	1.0561558438907
24	27014	214.639870303059	0.2222364084135
24	27049	214.862106711473	0.3219831532024
24	27087	215.184089864675	0.12296975360351
24	27101	215.307059618279	0.1860215294395
24	27148	215.493081147718	0.64397489273678
24	27195	216.137056040455	0.76588003077809
24	27280	216.902936071233	0.031587003850204
24	27281	216.934523075083	0.37787933022296
24	27333	217.312402405306	0.44430884253233
24	27396	217.756711247838	0.63417217146011
24	27495	218.390883419298	0.081596938518152
24	27501	218.472480357816	0.11455497855987
24	27520	218.587035336376	0.60343596204949
24	27571	219.190471298425	0.9614308626481
24	27679	220.151902161073	0.19745413627728
24	27713	220.34935629735	0.36446547165647
24	27753	220.713821769006	0.22468990872624
24	27776	220.938511677732	1.7062135916679
24	27979	222.6447252694	0.021083229044221
24	27980	222.665808498444	0.24849816941905
24	28001	222.914306667863	0.83869433635951
24	28079	223.753001004223	0.89448202721034
24	28194	224.647483031433	0.3818352780094
24	28246	225.029318309442	0.29046001067597
24	28279	225.319778320118	0.052450367194785
24	28290	225.372228687313	0.72019365887553
24	28388	226.092422346189	0.024235093042934
24	28394	226.116657439232	0.29964277023834
24	28409	226.41630020947	0.99559369501433
24	28498	227.411893904484	0.32192845527369
24	28553	227.733822359758	0.25824582708016
24	28587	227.992068186838	0.099422763925165
24	28595	228.091490950763	0.027921843595149
24	28603	228.119412794358	0.15792048841644
24	28633	228.277333282774	0.24363443562215
24	28655	228.520967718396	0.55623001900322
24	28736	229.077197737399	0.41881636654772
24	28778	229.496014103947	0.37344509602996
24	28807	229.869459199977	0.19387762058634
24	28836	230.063336820563	0.52791388794203
24	28902	230.591250708505	0.027945516049052
24	28904	230.619196224554	0.65473169464782
24	28965	231.273927919202	0.30846737484308
24	29019	231.582395294045	1.1446340225764
24	29145	232.727029316621	0.34566117837712
24	29181	233.072690494998	0.32212946746399
24	29218	233.394819962462	0.33000923524958
24	29254	233.724829197712	0.4913558707781
24	29307	234.21618506849	1.0850360977059
24	29445	235.301221166196	0.52139023490798
24	29521	235.822611401104	1.4971232741543
24	29661	237.319734675258	0.44860788429103
24	29733	237.768342559549	0.29551170733095
24	29751	238.06385426688	0.35167855787489
24	29806	238.415532824755	1.522278604046
24	29992	239.937811428801	1.5101903678384
24	30168	241.448001796639	1.5857409458167
24	30311	243.033742742456	0.0015435885750895
24	30314	243.035286331031	0.11215062136892
24	30343	243.1474369524	0.97204954096471
24	30479	244.119486493365	0.99432316741122
24	30633	245.113809660776	0.27195633946746
24	30678	245.385766000243	1.3046212820858
24	30847	246.690387282329	0.18940292551872
24	30872	246.879790207848	0.23420228941533
24	30927	247.113992497263	0.54738716450671
24	30983	247.66137966177	0.05445936314906
24	30985	247.715839024919	0.099376223056014
24	31001	247.815215247975	0.07827748202387
24	31007	247.893492729999	0.055660276369516
24	31026	247.949153006369	0.025026148433292
24	31032	247.974179154802	1.5969333379722
24	31195	249.571112492774	0.49273459907375
24	31237	250.063847091848	0.42550825623683
24	31274	250.489355348085	0.68696723596362
24	31357	251.176322584049	0.17791410142183
24	31395	251.354236685471	0.70929685735479
24	31486	252.063533542826	0.24417526985495
24	31519	252.307708812681	1.2609463040038
24	31710	253.568655116685	0.13245558262549
24	31728	253.70111069931	0.74328446121861
24	31806	254.444395160529	0.14697234609528
24	31821	254.591367506624	0.014320191888526
24	31824	254.605687698513	0.30972430433509
24	31866	254.915412002848	0.34115416989458
24	31899	255.256566172743	0.85115034720926
24	32032	256.107716519952	0.20014189106155
24	32073	256.307858411014	0.74273835865172
24	32149	257.050596769666	0.6025373822334
24	32231	257.653134151899	0.21668247000975
24	32246	257.869816621909	0.04373659461508
24	32250	257.913553216524	0.077843973490014
24	32264	257.991397190014	0.1934488670951
24	32291	258.184846057109	0.23805884799054
24	32333	258.4229049051	0.53328925367202
24	32402	258.956194158772	0.048282279227293
24	32407	259.004476437999	0.003317656730823
24	32408	259.00779409473	0.071306015683976
24	32411	259.079100110414	1.5551340037877
24	32599	260.634234114202	0.28746017407599
24	32625	260.921694288278	0.24462716784506
24	32654	261.166321456123	0.21212448044206
24	32689	261.378445936565	0.013951732184262
24	32690	261.392397668749	0.29316383907898
24	32708	261.685561507828	0.13346356577098
24	32716	261.819025073599	0.28302418294937
24	32754	262.102049256548	0.65042570416194
24	32849	262.75247496071	0.36641122366562
24	32886	263.118886184376	0.36891902341649
24	32928	263.487805207792	0.30997626226858
24	32971	263.797781470061	0.12733580731567
24	32990	263.925117277377	0.40764765122686
24	33022	264.332764928604	1.906179448492
24	33293	266.238944377096	0.18773490380351
24	33313	266.4266792809	0.16907311556231
24	33328	266.595752396462	0.0036273396155663
24	33329	266.599379736078	0.40643231580762
24	33377	267.005812051886	0.21125741207841
24	33413	267.217069463964	0.82849378884613
24	33514	268.04556325281	0.57761238808833
24	33567	268.623175640898	1.2075375440907
24	33719	269.830713184989	0.61023269921591
24	33769	270.440945884205	0.27836502815231
24	33838	270.719310912357	0.47243757410406
24	33876	271.191748486461	2.6910558527334
24	34203	273.882804339194	0.3241673183605
24	34228	274.206971657554	1.6069605046677
24	34441	275.813932162222	0.26801829248645
24	34489	276.081950454708	0.22042230113471
24	34519	276.302372755843	0.24713073012753
24	34535	276.549503485971	0.67743351577679
24	34614	277.226937001748	0.66761114527827
24	34712	277.894548147026	0.15925197940505
24	34741	278.053800126431	1.1207865242755
24	34871	279.174586650706	0.1073011643847
24	34879	279.281887815091	0.49716174546018
24	34930	279.779049560551	0.6444811130827
24	35026	280.423530673634	1.3245810785472
24	35141	281.748111752181	1.5596227022622
24	35334	283.307734454443	0.9858998090255
24	35519	284.293634263468	0.25789377113932
24	35545	284.551528034607	0.37156459307911
24	35584	284.923092627686	0.11186446944612
24	35616	285.034957097132	0.43327516935658
24	35654	285.468232266489	0.048755443225283
24	35667	285.516987709714	0.82930295610064
24	35775	286.346290665815	2.0406687410823
24	35977	288.386959406897	2.3777160792371
24	36234	290.764675486134	0.36933405740881
24	36280	291.134009543543	0.94014315723781
24	36388	292.074152700781	0.068992392174416
24	36406	292.143145092955	1.8900503749316
24	36613	294.033195467887	1.2948212265529
24	36839	295.32801669444	0.98189218995044
24	36943	296.30990888439	0.091511807917237
24	36944	296.401420692307	1.9222379963987
24	37146	298.323658688706	0.071576369436048
24	37166	298.395235058142	0.30356916627001
24	37214	298.698804224412	0.19161666567219
24	37230	298.890420890084	0.091214936713254
24	37242	298.981635826797	0.020585444902377
24	37245	299.002221271699	0.40910969397095
24	37286	299.41133096567	0.010072507496378
24	37287	299.421403473166	0.51738587868708
24	37325	299.938789351853	0.34760289783479
24	37388	300.286392249688	0.29955508190209
24	37436	300.58594733159	0.30214175802389
24	37472	300.888089089614	0.13028696040057
24	37493	301.018376050015	0.033569842120083
24	37495	301.051945892135	0.44440786672728
24	37534	301.496353758862	0.6965149383206
24	37616	302.192868697183	0.04888925579943
24	37620	302.241757952982	0.40084594583715
24	37670	302.642603898819	0.16441229000003
24	37681	302.807016188819	0.62178553294417
24	37757	303.428801721763	0.48543376878204
24	37818	303.914235490545	0.13826795246951
24	37837	304.052503443015	1.6335823870312
24	38066	305.686085830046	0.29542991913645
24	38119	305.981515749182	1.2918741130441
24	38283	307.273389862226	1.7141425684579
24	38503	308.987532430684	1.7665339693769
24	38745	310.754066400061	1.0870994321531
24	38923	311.841165832214	0.13439066155524
24	38946	311.975556493769	0.29327504519445
24	38977	312.268831538963	0.10182957706963
24	38982	312.370661116033	0.16424197613121
24	39001	312.534903092164	0.16333623785782
24	39008	312.698239330022	0.45241402994567
24	39066	313.150653359968	0.38809157422744
24	39093	313.538744934195	0.14069251191865
24	39110	313.679437446114	1.0489589815473
24	39263	314.728396427661	0.058606843964244
24	39264	314.787003271625	0.14651743904933
24	39277	314.933520710674	0.072604409096591
24	39291	315.006125119771	0.18786805411931
24	39315	315.19399317389	0.19227414118554
24	39327	315.386267315076	1.8318093207179
24	39572	317.218076635794	0.70742575346247
24	39634	317.925502389256	0.18709030966218
24	39674	318.112592698918	0.27710717806504
24	39707	318.389699876983	0.023755383595892
24	39709	318.413455260579	0.21522138796165
24	39741	318.628676648541	0.056791940104918
24	39749	318.685468588646	1.5029791416689
24	39973	320.188447730315	0.11043334480842
24	39988	320.298881075123	0.09940515443952
24	40007	320.398286229563	0.66432914303387
24	40054	321.062615372597	0.33774025621613
24	40111	321.400355628813	0.048283350614594
24	40121	321.448638979428	0.20191610744615
24	40138	321.650555086874	0.86601428103276
24	40239	322.516569367907	0.14526594161172
24	40252	322.661835309519	0.6429495322819
24	40344	323.304784841801	0.24596324706759
24	40403	323.550748088869	0.093170231847431
24	40418	323.643918320716	0.48855803312901
24	40473	324.132476353845	0.3694723738563
24	40525	324.501948727701	0.3504787790849
24	40594	324.852427506786	0.095123565537111
24	40627	324.947551072323	0.063589585349715
24	40637	325.011140657673	0.059000296320654
24	40645	325.070140953994	0.81790922361427
24	40768	325.888050177608	0.049388868730149
24	40774	325.937439046338	0.39678033946546
24	40808	326.334219385803	0.67194859820288
24	40884	327.006167984006	0.019145255035872
24	40889	327.025313239042	0.0036076201288966
24	40890	327.028920859171	0.34191700233161
24	40956	327.370837861503	0.12596683527642
24	40972	327.496804696779	1.9834402807386
24	41269	329.480244977518	0.7290918842884
24	41320	330.209336861806	0.47577140270939
24	41393	330.685108264515	0.45532465207104
24	41451	331.140432916586	0.038461630005758
24	41456	331.178894546592	0.33924132843408
24	41490	331.518135875026	0.95036622194871
24	41585	332.468502096975	0.33115502078077
24	41643	332.799657117756	0.23626577970584
24	41671	333.035922897462	0.15219122284168
24	41673	333.188114120304	0.45387335037448
24	41728	333.641987470678	1.4167479811961
24	41906	335.058735451874	0.77621849418398
24	42013	335.834953946058	0.15800860728869
24	42037	335.992962553347	0.56702079578914
24	42080	336.559983349136	0.47613817033734
24	42136	337.036121519473	0.356909986838
24	42181	337.393031506311	0.52763890358354
24	42252	337.920670409895	0.12705248783971
24	42264	338.047722897735	0.52637040087746
24	42309	338.574093298612	0.58577613842246
24	42395	339.159869437034	0.5123150027232
24	42455	339.672184439757	0.026607405557012
24	42456	339.698791845314	0.41128159693947
24	42508	340.110073442253	1.2110118108224
24	42650	341.321085253075	1.2641121237958
24	42798	342.585197376871	0.19625704054602
24	42829	342.781454417417	0.29262839084684
24	42865	343.074082808264	0.15604871482913
24	42901	343.230131523093	0.2131604771804
24	42940	343.443292000273	0.14249666651344
24	42946	343.585788666786	0.58342620318141
24	42994	344.169214869967	0.0889283606239
24	42998	344.258143230591	1.7491146105395
24	43191	346.00725784113	0.20422769374849
24	43215	346.211485534878	0.50488951925284
24	43288	346.716375054131	0.060622019985327
24	43298	346.776997074116	0.28524491706521
24	43321	347.062241991181	1.6359238468497
24	43526	348.698165838031	1.9535921717744
24	43789	350.651758009805	0.10429552085037
24	43803	350.756053530655	0.44404297085849
24	43850	351.200096501513	0.03072618098488
24	43851	351.230822682498	0.23501878584337
24	43892	351.465841468341	1.4477480311108
24	44124	352.913589499452	0.15655845922878
24	44143	353.070147958681	0.12861683595628
24	44160	353.198764794637	0.56306592070807
24	44218	353.761830715345	0.40040504404149
24	44255	354.162235759386	0.036663640160652
24	44256	354.198899399547	0.29631643347755
24	44286	354.495215833025	1.0524469754887
24	44411	355.547662808514	1.0786075619374
24	44511	356.626270370451	0.22067204164515
24	44538	356.846942412096	0.067589001955579
24	44544	356.914531414052	0.69475981155918
24	44633	357.609291225611	0.25376435993346
24	44674	357.863055585544	0.27353618480749
24	44695	358.136591770351	0.011239744659819
24	44700	358.147831515011	0.10094663956764
24	44703	358.248778154579	0.039440390358223
24	44704	358.288218544937	0.21835792036461
24	44740	358.506576465302	1.4012304047033
24	44888	359.907806870005	0.061181121903004
24	44896	359.968987991908	0.68783007354984
24	45014	360.656818065458	0.57280322814676
24	45119	361.229621293605	1.3034349326989
24	45330	362.533056226304	1.8571774120528
24	45532	364.390233638357	0.18361161465257
24	45564	364.57384525301	0.035344179365382
24	45565	364.609189432375	0.30677919351436
24	45604	364.915968625889	0.27223591461553
24	45652	365.188204540505	3.194958277539
24	46013	368.383162818044	1.2819481534427
24	46215	369.665110971487	0.97227322886926
24	46347	370.637384200356	0.22019610474746
24	46369	370.857580305103	0.20116146107195
24	46388	371.058741766175	0.47035117057597
24	46457	371.529092936751	0.02343614162471
24	46459	371.552529078376	0.96826558756111
24	46599	372.520794665937	0.31922535541938
24	46618	372.840020021356	0.54584928005189
24	46700	373.385869301408	0.019243149775627
24	46701	373.405112451184	1.0695045761139
24	46823	374.474617027298	0.19289989990549
24	46859	374.667516927203	0.25118560627554
24	46888	374.918702533479	1.034755417703
24	47042	375.953457951182	0.0022334554980043
24	47043	375.95569140668	0.32629644474522
24	47071	376.281987851425	0.3219159123555
24	47127	376.603903763781	0.3455338697113
24	47174	376.949437633492	0.0068052238097225
24	47175	376.956242857302	0.20805158544636
24	47205	377.164294442748	0.22000460304413
24	47222	377.384299045792	0.29175434022972
24	47256	377.676053386022	0.55448738418726
24	47340	378.230540770209	1.1016946643928
24	47528	379.332235434602	0.2198693666924
24	47571	379.552104801294	0.06547249447546
24	47579	379.617577295769	0.13347015442692
24	47603	379.751047450196	0.16377252356679
24	47623	379.914819973763	0.44094452281865
24	47674	380.355764496582	0.92240881311793
24	47766	381.2781733097	0.25238689815517
24	47804	381.530560207855	0.4051678581016
24	47859	381.935728065957	0.42906044644086
24	47882	382.364788512398	0.41606983391267
24	47912	382.780858346311	0.22054129762588
24	47938	383.001399643937	0.4354537208228
24	47970	383.43685336476	0.7870889257013
24	48079	384.223942290461	0.35358515727757
24	48130	384.577527447739	0.46894942088116
24	48177	385.04647686862	0.22087927905709
24	48192	385.267356147677	0.27113269487068
24	48237	385.538488842548	0.28557256000462
24	48286	385.824061402553	0.74876621895029
24	48360	386.572827621503	0.89087240397246
24	48445	387.463700025475	0.25416044687908
24	48492	387.717860472354	0.5042429198392
24	48543	388.222103392193	0.04129908314359
24	48545	388.263402475337	0.038009698719485
24	48551	388.301412174056	0.38006007355838
24	48616	388.681472247614	0.7318230412755
24	48711	389.413295288889	2.1081352271652
24	48951	391.521430516054	0.071398089144094
24	48960	391.592828605198	0.12287213272605
24	48969	391.715700737924	0.0084576371652485
24	48970	391.724158375089	0.23404444962789
24	49016	391.958202824717	0.011724162378721
24	49021	391.969926987096	0.30270880742416
24	49083	392.27263579452	0.19190584020949
24	49131	392.464541634729	0.3822359496239
24	49183	392.846777584353	0.25530928060334
24	49238	393.102086864956	0.13395155545113
24	49253	393.236038420407	0.10459800353253
24	49273	393.34063642394	0.26434778831458
24	49319	393.604984212255	0.12801311726505
24	49339	393.73299732952	0.051835935882262
24	49341	393.784833265402	0.2582785003819
24	49372	394.043111765784	0.81546162357074
24	49466	394.858573389355	0.63372478035923
24	49569	395.492298169714	0.70706892630453
24	49651	396.199367096019	0.50802190198579
24	49729	396.707388998005	0.75837586977784
24	49838	397.465764867783	0.0028707719416193
24	49839	397.468635639725	0.66271305478922
24	49925	398.131348694514	0.2945380317445
24	49966	398.425886726259	0.46680134597191
24	50044	398.892688072231	0.10065945214061
24	50051	398.993347524372	2.1118629602937

