file 1732140 1613479588                                         
version 2
run Exponential-capacity-47-20210216-13:46:28-25168
attr configname Exponential-capacity
attr datetime 20210216-13:46:28
attr experiment Exponential-capacity
attr inifile aerocom.ini
attr iterationvars "$0=2, $1=50, $2=4, $3=4"
attr iterationvarsf 2,50,4,4-
attr measurement "$0=2, $1=50, $2=4, $3=4"
attr network Aerocom
attr processid 25168
attr repetition 2
attr replication #2
attr resultdir results
attr runnumber 47
attr seedset 2
param **.t 2s
param **.k 50ms
param **.X 4s
param **.m 4s
param **.tDistribution "\"exponential\""
param **.operationMode 0
param **.s "70 byte"
param **.dimPoolMax 10000
param **.dimPoolMin 8000
param **.nDL 10
param **.nA 1
param **.DLMaxCapacity 0
param **.trasmitting false

vector 0 Aerocom.aircraft[0].packetGenerator arrivalTime:vector ETV
attr "" ""
attr source computeArrivalTime
vector 1 Aerocom.aircraft[0].linkSelector waitingTime:vector ETV
attr "" ""
attr source computeWaitingTime
vector 2 Aerocom.aircraft[0].linkSelector queueLength:vector ETV
attr "" ""
attr source computeQueueLength
vector 3 Aerocom.aircraft[0].dataLink[3] actualCapacity:vector ETV
attr "" ""
attr source computeActualCapacity
vector 4 Aerocom.aircraft[0].linkSelector serviceTime:vector ETV
attr "" ""
attr source computeServiceTime
vector 5 Aerocom.aircraft[0].linkSelector responseTime:vector ETV
attr "" ""
attr source computeResponseTime
vector 6 Aerocom.aircraft[0].dataLink[0] tDistribution:vector ETV
attr "" ""
attr source computeTDistribution
vector 7 Aerocom.aircraft[0].dataLink[5] tDistribution:vector ETV
attr "" ""
attr source computeTDistribution
vector 8 Aerocom.aircraft[0].dataLink[2] tDistribution:vector ETV
attr "" ""
attr source computeTDistribution
vector 9 Aerocom.aircraft[0].dataLink[9] tDistribution:vector ETV
attr "" ""
attr source computeTDistribution
vector 10 Aerocom.aircraft[0].dataLink[8] tDistribution:vector ETV
attr "" ""
attr source computeTDistribution
vector 11 Aerocom.aircraft[0].dataLink[0] actualCapacity:vector ETV
attr "" ""
attr source computeActualCapacity
vector 12 Aerocom.aircraft[0].dataLink[1] actualCapacity:vector ETV
attr "" ""
attr source computeActualCapacity
vector 13 Aerocom.aircraft[0].dataLink[2] actualCapacity:vector ETV
attr "" ""
attr source computeActualCapacity
vector 14 Aerocom.aircraft[0].dataLink[4] actualCapacity:vector ETV
attr "" ""
attr source computeActualCapacity
vector 15 Aerocom.aircraft[0].dataLink[5] actualCapacity:vector ETV
attr "" ""
attr source computeActualCapacity
vector 16 Aerocom.aircraft[0].dataLink[6] actualCapacity:vector ETV
attr "" ""
attr source computeActualCapacity
vector 17 Aerocom.aircraft[0].dataLink[7] actualCapacity:vector ETV
attr "" ""
attr source computeActualCapacity
vector 18 Aerocom.aircraft[0].dataLink[8] actualCapacity:vector ETV
attr "" ""
attr source computeActualCapacity
vector 19 Aerocom.aircraft[0].dataLink[9] actualCapacity:vector ETV
attr "" ""
attr source computeActualCapacity
vector 20 Aerocom.aircraft[0].dataLink[1] tDistribution:vector ETV
attr "" ""
attr source computeTDistribution
vector 21 Aerocom.aircraft[0].dataLink[6] tDistribution:vector ETV
attr "" ""
attr source computeTDistribution
vector 22 Aerocom.aircraft[0].dataLink[3] tDistribution:vector ETV
attr "" ""
attr source computeTDistribution
vector 23 Aerocom.aircraft[0].dataLink[7] tDistribution:vector ETV
attr "" ""
attr source computeTDistribution
vector 24 Aerocom.aircraft[0].dataLink[4] tDistribution:vector ETV
attr "" ""
attr source computeTDistribution
0	3606 308208 1041 42631 10.009046581726 399.97097773048 7643 1.717179e-006 0.55693822094 390.06880740153 39.713779780724
1	311814 224525 1042 42633 10.009046581726 399.973196726519 7643 0 0.024965138228 4.915115369802 0.031336098540337
2	536339 209710 1042 42633 10.009046581726 399.973196726519 7643 0 3 93 109
3	746049 35527 1042 42639 10.009046581726 400 1212 8107 9914 11306247 105729389441
4	781576 338675 1042 42633 10.009046581726 399.973196726519 7643 0.0070056044835869 0.0087379852702534 57.484405079606 0.43356737425657
5	1120251 308305 1043 42636 10.016112292839 399.980939232879 7643 0.007005604484 0.032363151333 62.399520449302 0.53907435458164
6	1428556 7020 1051 42628 10.03811018219 399.878397220879 168 0.0036094664976787 17.797918339339 389.98354667749 1937.7865044186
7	1435576 8328 1062 42466 10.07210134922 398.753699240805 200 0.011384425402896 10.683453574358 394.16238826281 1446.9060972634
8	1443904 8523 1068 42518 10.156399251049 399.320729344979 204 0.0064162123800635 8.0914965480683 392.4426179407 1374.3217599403
9	1452427 8323 1139 42246 10.819748911723 396.842962390983 199 0.0071136829881651 9.1989595010915 389.72029710402 1442.2024279013
10	1460750 8666 1145 42570 10.883653582273 399.55147264292 203 0.0018564521835412 10.292266746282 390.76148241442 1466.2212869651
11	1469416 28628 1253 42639 12 400 946 8011 9857 8795499 81956048521
12	1498044 23490 1253 42639 12 400 793 8058 9992 7293994 67261246760
13	1521534 19514 1253 42639 12 400 660 8112 9901 6121826 56898087940
14	1541048 21629 1253 42639 12 400 724 8064 9948 6678352 61766633332
15	1562677 25128 1253 42639 12 400 829 8079 9963 7715392 72038565694
16	1587805 40465 1253 42639 12 400 1345 8011 9921 12684013 119903968083
17	1628270 18911 1253 42639 12 400 644 8078 9879 5900031 54236299089
18	1647181 23508 1253 42639 12 400 783 8036 9973 7391786 69908103566
19	1670689 20460 1253 42639 12 400 687 8113 9975 6280501 57607251159
20	1691149 8624 1276 42440 12.301861684204 398.479601218204 202 0.023568902198615 11.397805116473 391.6546106686 1444.1664301061
21	1699773 7520 1382 42398 13.016051670226 398.145200931154 176 0.016686175152747 15.414290325557 387.40772536497 1777.326920931
22	1707293 8956 1446 42627 13.464600362358 399.878088104899 209 0.0043568394680401 11.699003843561 386.84841633071 1536.7232396436
23	1716249 7835 1557 42342 14.88013127667 397.630326923909 183 0.0014883428637058 11.688337911536 387.76154702311 1680.6119957314
24	1724084 8054 1841 42571 17.359049821192 399.590343441671 188 0.0023583069883165 11.802727022865 383.97632185082 1559.2537441288

