file 2397013 1613383349                                         
version 2
run Exponential-capacity-7-20210215-11:02:29-10844
attr configname Exponential-capacity
attr datetime 20210215-11:02:29
attr experiment Exponential-capacity
attr inifile aerocom.ini
attr iterationvars "$0=35, $1=2"
attr iterationvarsf 35,2-
attr measurement "$0=35, $1=2"
attr network Aerocom
attr processid 10844
attr repetition 0
attr replication #0
attr resultdir results
attr runnumber 7
attr seedset 0
param **.t 1s
param **.k 35ms
param **.X 0.4s
param **.m 2s
param **.tDistribution "\"exponential\""
param **.operationMode 0
param **.s "70 byte"
param **.dimPoolMax 10000
param **.dimPoolMin 8000
param **.nDL 1
param **.nA 1
param **.DLMaxCapacity 0
param **.trasmitting false

vector 0 Aerocom.aircraft[0].dataLink[0] actualCapacity:vector ETV
attr "" ""
attr source computeActualCapacity
vector 1 Aerocom.aircraft[0].packetGenerator arrivalTime:vector ETV
attr "" ""
attr source computeArrivalTime
vector 2 Aerocom.aircraft[0].dataLink[0] tDistribution:vector ETV
attr "" ""
attr source computeTDistribution
vector 3 Aerocom.aircraft[0].linkSelector waitingTime:vector ETV
attr "" ""
attr source computeWaitingTime
vector 4 Aerocom.aircraft[0].linkSelector queueLength:vector ETV
attr "" ""
attr source computeQueueLength
vector 5 Aerocom.aircraft[0].linkSelector serviceTime:vector ETV
attr "" ""
attr source computeServiceTime
vector 6 Aerocom.aircraft[0].linkSelector responseTime:vector ETV
attr "" ""
attr source computeResponseTime
0	1510 338742 1504 59509 10 400 11230 8011 9967 100725672 905897209496
1	340252 445858 1505 59504 10.089882227233 399.938715992406 11034 1.937316e-006 0.358136874346 389.93503104393 27.464644176194
2	786110 16853 1511 59272 10.19835258653 398.023229865342 400 0.00012359181449871 5.0916301550693 389.91689248652 726.70497007989
3	802963 357297 1524 59505 10.4 399.938715992406 11034 0 0.414782449838 478.24942096369 124.95135123316
4	1160260 302614 1524 59505 10.4 399.938715992406 11034 0 19 13536 112462
5	1462874 488324 1524 59505 10.4 399.938715992406 11034 0.0070238811960666 0.0087379852702534 86.345332420968 0.67753533080971
6	1951198 445813 1525 59506 10.407955449483 399.9464851378 11034 0.007023881196 0.423131686479 564.59475338463 133.13012934039

