file 8889615 1613479565                                         
version 2
run Exponential-capacity-28-20210216-13:46:04-25216
attr configname Exponential-capacity
attr datetime 20210216-13:46:04
attr experiment Exponential-capacity
attr inifile aerocom.ini
attr iterationvars "$0=2, $1=10, $2=0.5, $3=4"
attr iterationvarsf 2,10,0.5,4-
attr measurement "$0=2, $1=10, $2=0.5, $3=4"
attr network Aerocom
attr processid 25216
attr repetition 1
attr replication #1
attr resultdir results
attr runnumber 28
attr seedset 1
param **.t 2s
param **.k 10ms
param **.X 0.5s
param **.m 4s
param **.tDistribution "\"exponential\""
param **.operationMode 0
param **.s "70 byte"
param **.dimPoolMax 10000
param **.dimPoolMin 8000
param **.nDL 10
param **.nA 1
param **.DLMaxCapacity 0
param **.trasmitting false

vector 0 Aerocom.aircraft[0].dataLink[4] tDistribution:vector ETV
attr "" ""
attr source computeTDistribution
vector 1 Aerocom.aircraft[0].packetGenerator arrivalTime:vector ETV
attr "" ""
attr source computeArrivalTime
vector 2 Aerocom.aircraft[0].linkSelector waitingTime:vector ETV
attr "" ""
attr source computeWaitingTime
vector 3 Aerocom.aircraft[0].linkSelector queueLength:vector ETV
attr "" ""
attr source computeQueueLength
vector 4 Aerocom.aircraft[0].dataLink[9] actualCapacity:vector ETV
attr "" ""
attr source computeActualCapacity
vector 5 Aerocom.aircraft[0].linkSelector serviceTime:vector ETV
attr "" ""
attr source computeServiceTime
vector 6 Aerocom.aircraft[0].linkSelector responseTime:vector ETV
attr "" ""
attr source computeResponseTime
vector 7 Aerocom.aircraft[0].dataLink[5] tDistribution:vector ETV
attr "" ""
attr source computeTDistribution
vector 8 Aerocom.aircraft[0].dataLink[0] tDistribution:vector ETV
attr "" ""
attr source computeTDistribution
vector 9 Aerocom.aircraft[0].dataLink[3] tDistribution:vector ETV
attr "" ""
attr source computeTDistribution
vector 10 Aerocom.aircraft[0].dataLink[7] tDistribution:vector ETV
attr "" ""
attr source computeTDistribution
vector 11 Aerocom.aircraft[0].dataLink[0] actualCapacity:vector ETV
attr "" ""
attr source computeActualCapacity
vector 12 Aerocom.aircraft[0].dataLink[1] actualCapacity:vector ETV
attr "" ""
attr source computeActualCapacity
vector 13 Aerocom.aircraft[0].dataLink[2] actualCapacity:vector ETV
attr "" ""
attr source computeActualCapacity
vector 14 Aerocom.aircraft[0].dataLink[3] actualCapacity:vector ETV
attr "" ""
attr source computeActualCapacity
vector 15 Aerocom.aircraft[0].dataLink[4] actualCapacity:vector ETV
attr "" ""
attr source computeActualCapacity
vector 16 Aerocom.aircraft[0].dataLink[5] actualCapacity:vector ETV
attr "" ""
attr source computeActualCapacity
vector 17 Aerocom.aircraft[0].dataLink[6] actualCapacity:vector ETV
attr "" ""
attr source computeActualCapacity
vector 18 Aerocom.aircraft[0].dataLink[7] actualCapacity:vector ETV
attr "" ""
attr source computeActualCapacity
vector 19 Aerocom.aircraft[0].dataLink[8] actualCapacity:vector ETV
attr "" ""
attr source computeActualCapacity
vector 20 Aerocom.aircraft[0].dataLink[8] tDistribution:vector ETV
attr "" ""
attr source computeTDistribution
vector 21 Aerocom.aircraft[0].dataLink[6] tDistribution:vector ETV
attr "" ""
attr source computeTDistribution
vector 22 Aerocom.aircraft[0].dataLink[1] tDistribution:vector ETV
attr "" ""
attr source computeTDistribution
vector 23 Aerocom.aircraft[0].dataLink[2] tDistribution:vector ETV
attr "" ""
attr source computeTDistribution
vector 24 Aerocom.aircraft[0].dataLink[9] tDistribution:vector ETV
attr "" ""
attr source computeTDistribution
1	3614 1342541 5632 190816 10.016111387263 336.362810807891 32768 1.25289e-007 0.104473724894 326.36676166777 6.4713047354134
2	1346155 1196782 5633 190818 10.016111387263 336.366084233927 32768 0 0.542580250253 1488.2599843398 502.92533136372
3	2542937 924123 5633 190818 10.016111387263 336.366084233927 32768 0 68 149770 5331968
5	3467060 1472953 5633 190818 10.016111387263 336.366084233927 32768 0.0070035017508754 0.0087118855009334 246.84000066722 1.8645650713906
6	4940013 1342911 5634 190823 10.024355410346 336.37317571402 32768 0.007003501751 0.549742108244 1735.0999850064 526.87108269054
0	6282924 8476 5630 227011 10.008446666375 399.870380511634 199 0.0033603599120588 10.106333391988 390.75769115755 1518.7517887913
1	6291400 266196 190829 227073 336.382873055034 399.993116417247 6372 3.144071e-006 0.083792971301 63.633834888188 1.265925692866
2	6557596 236504 190830 227075 336.382873055034 399.997652570369 6372 0 0.52926646917 255.13570709159 79.92446913983
3	6794100 184762 190830 227075 336.382873055034 399.997652570369 6372 0 54 26016 848562
4	6978862 82117 5633 227078 10.016111387263 400 2722 8107 9910 25354555 236927346571
5	7060979 291663 190830 227075 336.382873055034 399.997652570369 6372 0.0070133253181044 0.0086175058475933 47.5312808016 0.35532937045001
6	7352642 266233 190836 227075 336.389960227252 399.997652570369 6371 0.007013325318 0.536454065432 302.65474333781 84.046324075401
7	7618875 7808 5694 225746 10.133371691378 397.304643787351 183 0.0023472923247129 9.3751301661525 391.24557991949 1543.7139629357
8	7626683 8272 6075 226239 10.758038181612 398.241773057449 193 0.0080597886991908 13.025708690729 390.76032194151 1769.7595019644
9	7634955 8500 6270 226430 11.127954469804 398.670927787943 200 0.0069808127565423 11.419464956956 389.60755438025 1445.3369397577
10	7643455 8600 6441 226640 11.354734675934 399.105386876356 198 0.0032870399373807 10.315111120675 390.42944208713 1433.7465853774
11	7652055 120208 6842 227078 12 400 3782 8044 9909 34541616 316356953700
12	7772263 183187 6842 227078 12 400 5725 8015 9994 54010357 510361333185
13	7955450 105385 6842 227078 12 400 3283 8035 9966 30215493 278969363385
14	8060835 180325 6842 227078 12 400 5654 8027 9995 53147413 500745688887
15	8241160 130573 6842 227078 12 400 4118 8167 9921 38222053 355303410601
16	8371733 158562 6842 227078 12 400 4910 8081 9993 46107039 434059462557
17	8530295 166478 6842 227078 12 400 5209 8044 9960 49525029 471784096921
18	8696773 69066 6842 227078 12 400 2169 8110 9978 19677399 178820762135
19	8765839 81213 6842 227078 12 400 2548 8198 9985 23228220 212305790362
20	8847052 9338 7096 225911 12.459058151596 397.589374528803 214 0.00443334045868 10.343693525315 388.25726836577 1338.915195965
21	8856390 8071 8248 225997 14.571096670862 397.785445506249 185 0.0072170719136642 11.488160070868 388.69826292889 1534.857858681
22	8864461 8741 8502 226868 15.084597042849 399.55088560518 201 0.009831087575049 9.0649531522795 385.88740723821 1405.0819356417
23	8873202 8041 8517 222229 15.12502430315 391.333015217379 184 0.00076594572858362 11.774546758832 386.1657746068 1677.6481436889
24	8881243 8370 11599 226026 20.647858671329 397.866512771849 192 0.0061108071411756 11.374497544095 379.73795035639 1513.2746863536

