version 2
run Exponential-capacity-23-20210216-13:45:54-23728
attr configname Exponential-capacity
attr datetime 20210216-13:45:54
attr experiment Exponential-capacity
attr inifile aerocom.ini
attr iterationvars "$0=0.5, $1=50, $2=4, $3=4"
attr iterationvarsf 0.5,50,4,4-
attr measurement "$0=0.5, $1=50, $2=4, $3=4"
attr network Aerocom
attr processid 23728
attr repetition 2
attr replication #2
attr resultdir results
attr runnumber 23
attr seedset 2
param **.t 0.5s
param **.k 50ms
param **.X 4s
param **.m 4s
param **.tDistribution "\"exponential\""
param **.operationMode 0
param **.s "70 byte"
param **.dimPoolMax 10000
param **.dimPoolMin 8000
param **.nDL 10
param **.nA 1
param **.DLMaxCapacity 0
param **.trasmitting false

vector 0 Aerocom.aircraft[0].packetGenerator arrivalTime:vector ETV
attr "" ""
attr source computeArrivalTime
vector 1 Aerocom.aircraft[0].linkSelector waitingTime:vector ETV
attr "" ""
attr source computeWaitingTime
vector 2 Aerocom.aircraft[0].linkSelector queueLength:vector ETV
attr "" ""
attr source computeQueueLength
vector 3 Aerocom.aircraft[0].dataLink[6] actualCapacity:vector ETV
attr "" ""
attr source computeActualCapacity
vector 4 Aerocom.aircraft[0].linkSelector serviceTime:vector ETV
attr "" ""
attr source computeServiceTime
vector 5 Aerocom.aircraft[0].linkSelector responseTime:vector ETV
attr "" ""
attr source computeResponseTime
vector 6 Aerocom.aircraft[0].dataLink[4] tDistribution:vector ETV
attr "" ""
attr source computeTDistribution
vector 7 Aerocom.aircraft[0].dataLink[9] tDistribution:vector ETV
attr "" ""
attr source computeTDistribution
vector 8 Aerocom.aircraft[0].dataLink[2] tDistribution:vector ETV
attr "" ""
attr source computeTDistribution
vector 9 Aerocom.aircraft[0].dataLink[1] tDistribution:vector ETV
attr "" ""
attr source computeTDistribution
vector 10 Aerocom.aircraft[0].dataLink[7] tDistribution:vector ETV
attr "" ""
attr source computeTDistribution
vector 11 Aerocom.aircraft[0].dataLink[5] tDistribution:vector ETV
attr "" ""
attr source computeTDistribution
vector 12 Aerocom.aircraft[0].dataLink[0] tDistribution:vector ETV
attr "" ""
attr source computeTDistribution
vector 13 Aerocom.aircraft[0].dataLink[8] tDistribution:vector ETV
attr "" ""
attr source computeTDistribution
vector 14 Aerocom.aircraft[0].dataLink[3] tDistribution:vector ETV
attr "" ""
attr source computeTDistribution
vector 15 Aerocom.aircraft[0].dataLink[6] tDistribution:vector ETV
attr "" ""
attr source computeTDistribution
vector 16 Aerocom.aircraft[0].dataLink[0] actualCapacity:vector ETV
attr "" ""
attr source computeActualCapacity
vector 17 Aerocom.aircraft[0].dataLink[1] actualCapacity:vector ETV
attr "" ""
attr source computeActualCapacity
vector 18 Aerocom.aircraft[0].dataLink[2] actualCapacity:vector ETV
attr "" ""
attr source computeActualCapacity
vector 19 Aerocom.aircraft[0].dataLink[3] actualCapacity:vector ETV
attr "" ""
attr source computeActualCapacity
vector 20 Aerocom.aircraft[0].dataLink[4] actualCapacity:vector ETV
attr "" ""
attr source computeActualCapacity
vector 21 Aerocom.aircraft[0].dataLink[5] actualCapacity:vector ETV
attr "" ""
attr source computeActualCapacity
vector 22 Aerocom.aircraft[0].dataLink[7] actualCapacity:vector ETV
attr "" ""
attr source computeActualCapacity
vector 23 Aerocom.aircraft[0].dataLink[8] actualCapacity:vector ETV
attr "" ""
attr source computeActualCapacity
vector 24 Aerocom.aircraft[0].dataLink[9] actualCapacity:vector ETV
attr "" ""
attr source computeActualCapacity
0	1193	10.009046581726	0.019478254405
0	1198	10.028524836131	0.02292942436
0	1203	10.051454260491	0.00124084291
0	1205	10.052695103401	0.088058607678
0	1213	10.140753711079	0.060531770836
0	1219	10.201285481915	0.016172402908
0	1225	10.217457884823	0.079679454295
0	1233	10.297137339118	0.006714203355
0	1235	10.303851542473	0.006547708414
0	1240	10.310399250887	0.041366061895
0	1248	10.351765312782	0.095155022514
0	1253	10.446920335296	0.015553608654
0	1258	10.46247394395	0.11879572873
0	1265	10.58126967268	0.074590507201
0	1274	10.655860179881	0.011027490382
0	1279	10.666887670263	0.009886361877
0	1284	10.67677403214	0.004556440046
0	1286	10.681330472186	0.076452071881
0	1297	10.757782544067	0.101157364566
0	1302	10.858939908633	0.046824202827
0	1310	10.90576411146	0.084299166182
0	1315	10.990063277642	0.002132270014
0	1317	10.992195547656	0.018111898043
0	1326	11.010307445699	0.041194139417
0	1331	11.051501585116	0.001299563155
0	1333	11.052801148271	0.055151762222
0	1342	11.107952910493	0.071259794599
0	1347	11.179212705092	0.139348666404
0	1354	11.318561371496	0.050914320359
0	1359	11.369475691855	0.077090332203
0	1365	11.446566024058	0.041555045935
0	1371	11.488121069993	0.069400886563
0	1377	11.557521956556	0.120117794117
0	1385	11.677639750673	0.03436332238
0	1390	11.712003073053	0.056458210862
0	1396	11.768461283915	0.002183620412
0	1398	11.770644904327	0.016676214346
0	1406	11.787321118673	0.084877265526
0	1415	11.872198384199	0.029891464616
0	1422	11.902089848815	0.000685869586
0	1424	11.902775718401	0.243208992601
0	1439	12.145984711002	0.039929961208
0	1446	12.18591467221	0.014591697247
0	1452	12.200506369457	0.041827415021
0	1459	12.242333784478	0.108134173002
0	1468	12.35046795748	0.005990911542
0	1470	12.356458869022	0.021131135656
0	1478	12.377590004678	0.003241661105
0	1480	12.380831665783	0.01660158356
0	1489	12.397433249343	0.042750871507
0	1495	12.44018412085	0.060471857484
0	1500	12.500655978334	0.033226554372
0	1506	12.533882532706	0.021685706983
0	1511	12.555568239689	0.017935429061
0	1517	12.57350366875	0.002379418011
0	1519	12.575883086761	0.002030452849
0	1521	12.57791353961	0.024348180181
0	1532	12.602261719791	0.050241636622
0	1537	12.652503356413	0.078050819919
0	1547	12.730554176332	0.006638622701
0	1549	12.737192799033	0.119573410839
0	1562	12.856766209872	0.00058368588
0	1564	12.857349895752	0.003572372235
0	1566	12.860922267987	0.01619425058
0	1574	12.877116518567	0.14588581515
0	1587	13.023002333717	0.017944264904
0	1593	13.040946598621	0.016423205704
0	1598	13.057369804325	0.009941918403
0	1603	13.067311722728	0.085385649478
0	1609	13.152697372206	0.003466323062
0	1611	13.156163695268	0.001567433483
0	1613	13.157731128751	0.075532586394
0	1627	13.233263715145	0.086501508296
0	1636	13.319765223441	0.025603692963
0	1643	13.345368916404	0.061961204038
0	1650	13.407330120442	0.014105868902
0	1655	13.421435989344	0.095207297421
0	1661	13.516643286765	0.037092947496
0	1667	13.553736234261	0.002230085089
0	1669	13.55596631935	0.014717592863
0	1678	13.570683912213	0.035347176494
0	1683	13.606031088707	0.095496236591
0	1690	13.701527325298	0.01161962281
0	1695	13.713146948108	0.033034345576
0	1701	13.746181293684	0.065680898182
0	1706	13.811862191866	0.048795395314
0	1712	13.86065758718	0.05175301263
0	1720	13.91241059981	0.180730359563
0	1732	14.093140959373	0.076661823714
0	1738	14.169802783087	0.021905680807
0	1743	14.191708463894	0.027993894319
0	1748	14.219702358213	0.012721755096
0	1753	14.232424113309	0.049742643065
0	1758	14.282166756374	0.192484828772
0	1767	14.474651585146	0.021802803708
0	1772	14.496454388854	0.044224394679
0	1777	14.540678783533	0.153570855608
0	1784	14.694249639141	0.199991880176
0	1792	14.894241519317	0.047885870808
0	1797	14.942127390125	0.173152701122
0	1806	15.115280091247	0.033726521172
0	1814	15.149006612419	0.061056616281
0	1822	15.2100632287	0.014811442141
0	1827	15.224874670841	0.000978808862
0	1829	15.225853479703	0.013516444051
0	1834	15.239369923754	0.047444621021
0	1843	15.286814544775	0.036867066277
0	1849	15.323681611052	0.014354723565
0	1854	15.338036334617	0.055447221923
0	1861	15.39348355654	0.006930683388
0	1863	15.400414239928	0.039893011945
0	1871	15.440307251873	0.022805914517
0	1876	15.46311316639	0.02401367532
0	1881	15.48712684171	0.011163021837
0	1887	15.498289863547	0.051639402936
0	1893	15.549929266483	0.072724680374
0	1898	15.622653946857	0.114029739139
0	1907	15.736683685996	0.136042464386
0	1915	15.872726150382	0.036470727199
0	1920	15.909196877581	0.001337860053
0	1922	15.910534737634	0.10652512558
0	1934	16.017059863214	0.014789987261
0	1939	16.031849850475	0.01076301381
0	1944	16.042612864285	0.01547580515
0	1950	16.058088669435	0.086863964978
0	1957	16.144952634413	0.007676660298
0	1962	16.152629294711	0.019577990651
0	1967	16.172207285362	0.151308858488
0	1978	16.32351614385	0.05906552658
0	1983	16.38258167043	0.014225153049
0	1988	16.396806823479	0.060578178624
0	1993	16.457385002103	0.022017283538
0	1998	16.479402285641	0.078059833712
0	2003	16.557462119353	0.002508858334
0	2005	16.559970977687	0.011822671491
0	2010	16.571793649178	0.013599010943
0	2018	16.585392660121	0.053497678884
0	2024	16.638890339005	0.107204230841
0	2031	16.746094569846	0.122543612153
0	2038	16.868638181999	0.166816872754
0	2046	17.035455054753	0.013072780907
0	2052	17.04852783566	0.053359725757
0	2057	17.101887561417	0.002957418417
0	2059	17.104844979834	0.017610041742
0	2067	17.122455021576	0.017152781437
0	2072	17.139607803013	0.003058461977
0	2074	17.14266626499	0.02936697242
0	2082	17.17203323741	0.099915750194
0	2088	17.271948987604	0.000397627652
0	2090	17.272346615256	0.008429270103
0	2095	17.280775885359	0.073853523777
0	2105	17.354629409136	0.015704594458
0	2110	17.370334003594	0.012987051098
0	2115	17.383321054692	0.039726297965
0	2120	17.423047352657	0.059776369951
0	2127	17.482823722608	0.014536163629
0	2132	17.497359886237	0.088139481701
0	2139	17.585499367938	0.093112772711
0	2144	17.678612140649	0.039402417086
0	2151	17.718014557735	0.034879339608
0	2156	17.752893897343	0.034976209872
0	2162	17.787870107215	0.033149272514
0	2168	17.821019379729	0.007896661939
0	2171	17.828916041668	0.117830224172
0	2179	17.94674626584	0.059151491344
0	2185	18.005897757184	0.123413326806
0	2192	18.12931108399	0.01402479061
0	2198	18.1433358746	0.013829042721
0	2203	18.157164917321	0.027806471894
0	2210	18.184971389215	0.000947261188
0	2212	18.185918650403	0.050651565992
0	2220	18.236570216395	0.055477043725
0	2225	18.29204726012	0.006527548348
0	2227	18.298574808468	0.015774141493
0	2235	18.314348949961	0.153494738885
0	2243	18.467843688846	0.000720488957
0	2245	18.468564177803	0.02736421928
0	2253	18.495928397083	0.005108856887
0	2255	18.50103725397	0.029844168931
0	2264	18.530881422901	0.027136261243
0	2269	18.558017684144	0.012555793214
0	2274	18.570573477358	0.006422827828
0	2276	18.576996305186	0.007816517163
0	2282	18.584812822349	0.011602214367
0	2290	18.596415036716	0.068265104615
0	2300	18.664680141331	0.068335462913
0	2305	18.733015604244	0.095491963435
0	2314	18.828507567679	0.03041163286
0	2319	18.858919200539	0.029101571156
0	2324	18.888020771695	0.006024251104
0	2326	18.894045022799	0.015089125506
0	2334	18.909134148305	0.012124198046
0	2340	18.921258346351	0.005110176688
0	2342	18.926368523039	0.133137057263
0	2352	19.059505580302	0.003182260101
0	2354	19.062687840403	0.000396303985
0	2356	19.063084144388	0.00706484797
0	2361	19.070148992358	0.051343217317
0	2373	19.121492209675	0.154554450074
0	2381	19.276046659749	0.051734365893
0	2388	19.327781025642	0.077287762143
0	2397	19.405068787785	0.057010992896
0	2406	19.462079780681	0.019376226343
0	2411	19.481456007024	0.043155684384
0	2417	19.524611691408	0.028161716732
0	2423	19.55277340814	0.07674626486
0	2428	19.629519673	0.037236341024
0	2436	19.666756014024	0.086255677597
0	2441	19.753011691621	0.041592364388
0	2447	19.794604056009	0.05204019294
0	2454	19.846644248949	0.07881201901
0	2460	19.925456267959	0.009900578353
0	2465	19.935356846312	0.005834180142
0	2468	19.941191026454	0.064781201962
0	2479	20.005972228416	0.030035745362
0	2485	20.036007973778	0.016753507149
0	2490	20.052761480927	0.040334755331
0	2496	20.093096236258	0.09209263709
0	2502	20.185188873348	0.122226180225
0	2508	20.307415053573	0.042217942432
0	2513	20.349632996005	0.128862630964
0	2520	20.478495626969	0.004456186788
0	2523	20.482951813757	0.03259630884
0	2531	20.515548122597	0.12092909688
0	2538	20.636477219477	0.00589790084
0	2540	20.642375120317	0.031037224607
0	2548	20.673412344924	0.060531537074
0	2555	20.733943881998	0.143150800031
0	2563	20.877094682029	0.035199516472
0	2568	20.912294198501	0.002066746197
0	2570	20.914360944698	0.005580501023
0	2575	20.919941445721	0.005683915472
0	2577	20.925625361193	0.106845281428
0	2589	21.032470642621	0.070471924897
0	2595	21.102942567518	0.003474590386
0	2597	21.106417157904	0.00213376812
0	2599	21.108550926024	0.028676109457
0	2610	21.137227035481	0.030034156982
0	2615	21.167261192463	0.058839526968
0	2621	21.226100719431	0.084664306236
0	2626	21.310765025667	0.012340120963
0	2631	21.32310514663	0.027167246157
0	2636	21.350272392787	0.007054982237
0	2638	21.357327375024	0.010533528015
0	2647	21.367860903039	0.088254591318
0	2655	21.456115494357	0.092706405357
0	2662	21.548821899714	0.040318789291
0	2668	21.589140689005	0.005672228651
0	2670	21.594812917656	0.01271121548
0	2678	21.607524133136	0.016985173845
0	2683	21.624509306981	0.041221856779
0	2688	21.66573116376	0.012229135763
0	2693	21.677960299523	0.087535607477
0	2700	21.765495907	0.031205989078
0	2705	21.796701896078	0.11664408686
0	2711	21.913345982938	0.019253014501
0	2718	21.932598997439	0.049420193947
0	2723	21.982019191386	0.119896559204
0	2731	22.10191575059	0.07906385829
0	2736	22.18097960888	0.077001977618
0	2742	22.257981586498	0.059892801234
0	2749	22.317874387732	0.061166393665
0	2757	22.379040781397	0.026862182012
0	2762	22.405902963409	0.007535531574
0	2764	22.413438494983	0.013992029394
0	2772	22.427430524377	0.047314478702
0	2778	22.474745003079	0.039635110693
0	2783	22.514380113772	0.095356840896
0	2790	22.609736954668	0.129419599683
0	2798	22.739156554351	0.128699002799
0	2806	22.86785555715	0.044531608375
0	2813	22.912387165525	0.054266631212
0	2820	22.966653796737	0.030527391571
0	2827	22.997181188308	0.014986347806
0	2832	23.012167536114	0.041953978026
0	2837	23.05412151414	0.016203451015
0	2842	23.070324965155	0.02812987469
0	2848	23.098454839845	0.050458418082
0	2854	23.148913257927	0.015146096511
0	2860	23.164059354438	0.064441345855
0	2865	23.228500700293	0.004179622324
0	2867	23.232680322617	0.018234437584
0	2875	23.250914760201	0.135834589748
0	2881	23.386749349949	0.056654377788
0	2888	23.443403727737	0.013038878024
0	2893	23.456442605761	0.03531095702
0	2898	23.491753562781	0.00067831831
0	2900	23.492431881091	0.088417506206
0	2909	23.580849387297	0.027323752591
0	2915	23.608173139888	0.057489710536
0	2922	23.665662850424	0.003406651623
0	2925	23.669069502047	0.120453542699
0	2935	23.789523044746	0.036967010157
0	2940	23.826490054903	0.006388238033
0	2942	23.832878292936	0.024408332459
0	2951	23.857286625395	0.091545747767
0	2958	23.948832373162	0.013346581661
0	2963	23.962178954823	0.148085727796
0	2972	24.110264682619	0.041463487409
0	2977	24.151728170028	0.042621324945
0	2983	24.194349494973	0.012076795583
0	2988	24.206426290556	0.000207682196
0	2990	24.206633972752	0.008545882413
0	2995	24.215179855165	0.001704334548
0	2997	24.216884189713	0.050369592995
0	3008	24.267253782708	0.026591059171
0	3014	24.293844841879	0.017979583736
0	3019	24.311824425615	0.030650046468
0	3026	24.342474472083	0.112712127925
0	3032	24.455186600008	0.032471044969
0	3038	24.487657644977	0.052622433494
0	3043	24.540280078471	0.057194216765
0	3049	24.597474295236	0.114557581459
0	3058	24.712031876695	0.070302702475
0	3063	24.78233457917	0.013260777666
0	3068	24.795595356836	0.085958376396
0	3074	24.881553733232	0.01499057244
0	3080	24.896544305672	0.021256037454
0	3086	24.917800343126	0.072922449243
0	3094	24.990722792369	0.047719119156
0	3103	25.038441911525	0.015269790911
0	3108	25.053711702436	0.024950398232
0	3114	25.078662100668	0.050634242017
0	3122	25.129296342685	0.064612095064
0	3128	25.193908437749	0.05092066687
0	3134	25.244829104619	0.041445211636
0	3139	25.286274316255	0.035165900113
0	3146	25.321440216368	0.045166076531
0	3152	25.366606292899	0.066890834968
0	3158	25.433497127867	0.024529635863
0	3163	25.45802676373	0.091089617611
0	3169	25.549116381341	0.0503190236
0	3175	25.599435404941	0.079887996393
0	3182	25.679323401334	0.101169121959
0	3188	25.780492523293	0.041357007608
0	3197	25.821849530901	0.052733660773
0	3202	25.874583191674	0.145407696259
0	3209	26.019990887933	0.006882365095
0	3211	26.026873253028	0.009127716046
0	3219	26.036000969074	0.004646256925
0	3221	26.040647225999	0.015996995528
0	3229	26.056644221527	0.056577394708
0	3234	26.113221616235	0.003519502806
0	3236	26.116741119041	0.021971322907
0	3244	26.138712441948	0.057053518777
0	3249	26.195765960725	0.018896851514
0	3254	26.214662812239	0.008818718917
0	3259	26.223481531156	0.110388132843
0	3267	26.333869663999	0.02143729412
0	3272	26.355306958119	0.099723920102
0	3278	26.455030878221	0.009028421345
0	3283	26.464059299566	0.081907902041
0	3291	26.545967201607	0.021929492285
0	3296	26.567896693892	0.022105671319
0	3301	26.590002365211	0.020917934804
0	3307	26.610920300015	0.05119118831
0	3312	26.662111488325	0.015183771474
0	3318	26.677295259799	0.045668816989
0	3324	26.722964076788	0.159866546349
0	3334	26.882830623137	0.013429432815
0	3339	26.896260055952	0.09469038776
0	3347	26.990950443712	0.044542878122
0	3352	27.035493321834	0.042255377966
0	3357	27.0777486998	0.290567928354
0	3370	27.368316628154	0.000527871234
0	3372	27.368844499388	0.002695078852
0	3374	27.37153957824	0.040511986824
0	3386	27.412051565064	0.013558978002
0	3391	27.425610543066	0.229508986543
0	3399	27.655119529609	0.020097571805
0	3404	27.675217101414	0.096451190992
0	3410	27.771668292406	0.080705990662
0	3420	27.852374283068	0.0172142355
0	3425	27.869588518568	0.02932052996
0	3430	27.898909048528	0.033063791094
0	3435	27.931972839622	0.003238848333
0	3437	27.935211687955	0.02675047333
0	3447	27.961962161285	0.019155110647
0	3452	27.981117271932	0.028779922441
0	3459	28.009897194373	0.088750810172
0	3468	28.098648004545	0.002345102742
0	3470	28.100993107287	0.067055965035
0	3478	28.168049072322	0.02513227458
0	3483	28.193181346902	0.016344359464
0	3488	28.209525706366	0.029312423175
0	3493	28.238838129541	0.065208105539
0	3501	28.30404623508	0.008533860468
0	3506	28.312580095548	0.019260588003
0	3512	28.331840683551	0.009864187022
0	3517	28.341704870573	0.008275663284
0	3522	28.349980533857	0.096912308409
0	3530	28.446892842266	0.209581547344
0	3537	28.65647438961	0.014081920255
0	3542	28.670556309865	0.01516551433
0	3547	28.685721824195	0.038673769674
0	3552	28.724395593869	0.046904737859
0	3557	28.771300331728	0.013490697281
0	3562	28.784791029009	0.124799338401
0	3569	28.90959036741	0.002587234732
0	3571	28.912177602142	0.051499624091
0	3581	28.963677226233	0.166995163026
0	3588	29.130672389259	0.027824243452
0	3593	29.158496632711	0.120795330339
0	3600	29.27929196305	0.025309815906
0	3608	29.304601778956	0.021994073357
0	3613	29.326595852313	0.002507150326
0	3615	29.329103002639	0.006073616269
0	3620	29.335176618908	0.004236876707
0	3622	29.339413495615	0.027197439013
0	3633	29.366610934628	0.029953751332
0	3639	29.39656468596	0.010096215934
0	3646	29.406660901894	0.127757452912
0	3653	29.534418354806	0.051412076619
0	3659	29.585830431425	0.013287513782
0	3664	29.599117945207	0.073733935807
0	3672	29.672851881014	0.1015741989
0	3678	29.774426079914	0.071620644259
0	3684	29.846046724173	0.08205339774
0	3690	29.928100121913	0.00336130926
0	3692	29.931461431173	0.009567349438
0	3697	29.941028780611	0.048678989209
0	3705	29.98970776982	0.018725761491
0	3710	30.008433531311	0.032275147299
0	3715	30.04070867861	0.027965551248
0	3720	30.068674229858	0.046474087653
0	3728	30.115148317511	0.098046917362
0	3733	30.213195234873	0.028152785216
0	3738	30.241348020089	0.050277403765
0	3745	30.291625423854	0.114896412239
0	3751	30.406521836093	0.087089676881
0	3758	30.493611512974	0.00948761051
0	3763	30.503099123484	0.034363434132
0	3770	30.537462557616	0.01491386997
0	3775	30.552376427586	0.043668835563
0	3781	30.596045263149	0.01143655242
0	3786	30.607481815569	0.030248778558
0	3791	30.637730594127	0.067172226131
0	3799	30.704902820258	0.014938612106
0	3805	30.719841432364	0.009740418526
0	3810	30.72958185089	0.048160813951
0	3816	30.777742664841	0.024236237697
0	3821	30.801978902538	0.042832449922
0	3826	30.84481135246	0.018661184667
0	3831	30.863472537127	0.101025920601
0	3838	30.964498457728	0.073475092209
0	3845	31.037973549937	0.129231886345
0	3853	31.167205436282	2.5964924e-005
0	3855	31.167231401206	0.042683669147
0	3863	31.209915070353	0.06959431893
0	3869	31.279509389283	0.059222001708
0	3874	31.338731390991	0.110751311947
0	3883	31.449482702938	0.024895205425
0	3888	31.474377908363	0.026104110783
0	3893	31.500482019146	0.056418636655
0	3900	31.556900655801	0.049915475432
0	3906	31.606816131233	0.316334433155
0	3915	31.923150564388	0.093091453324
0	3925	32.016242017712	0.140990070847
0	3934	32.157232088559	0.019952146893
0	3939	32.177184235452	0.007613118646
0	3944	32.184797354098	0.069622253525
0	3949	32.254419607623	0.139166973759
0	3960	32.393586581382	0.019449014937
0	3965	32.413035596319	0.001971230653
0	3967	32.415006826972	0.012284598707
0	3972	32.427291425679	0.001275361314
0	3977	32.428566786993	0.069497128655
0	3986	32.498063915648	0.009788505902
0	3991	32.50785242155	0.043494570896
0	3996	32.551346992446	0.018195619756
0	4003	32.569542612202	0.000617228025
0	4005	32.570159840227	0.209149925425
0	4017	32.779309765652	0.036221821343
0	4022	32.815531586995	0.143641623115
0	4031	32.95917321011	0.204768127459
0	4037	33.163941337569	0.07218676082
0	4044	33.236128098389	0.04815195955
0	4050	33.284280057939	0.048787453724
0	4055	33.333067511663	0.010988335015
0	4060	33.344055846678	0.173500974983
0	4067	33.517556821661	0.082888470679
0	4074	33.60044529234	0.042550467802
0	4080	33.642995760142	0.062309295088
0	4086	33.70530505523	0.011990301996
0	4091	33.717295357226	0.000363002999
0	4093	33.717658360225	0.007161990535
0	4098	33.72482035076	0.063830099746
0	4108	33.788650450506	0.072145229227
0	4115	33.860795679733	0.058579984389
0	4120	33.919375664122	0.037466653227
0	4126	33.956842317349	0.074117014556
0	4132	34.030959331905	0.085021388456
0	4137	34.115980720361	0.014726686287
0	4142	34.130707406648	0.078957817319
0	4151	34.209665223967	0.004277136732
0	4153	34.213942360699	0.05545995669
0	4164	34.269402317389	0.081020910471
0	4171	34.35042322786	0.074974985752
0	4176	34.425398213612	0.013665417145
0	4181	34.439063630757	0.058260821833
0	4188	34.49732445259	0.01389961275
0	4193	34.51122406534	0.027997709027
0	4198	34.539221774367	0.015153660093
0	4203	34.55437543446	0.088640504685
0	4209	34.643015939145	0.010631216954
0	4214	34.653647156099	0.123781528611
0	4220	34.77742868471	0.031426994971
0	4226	34.808855679681	0.075128330905
0	4235	34.883984010586	0.014829342612
0	4240	34.898813353198	0.004488011343
0	4243	34.903301364541	0.195583319159
0	4255	35.0988846837	0.149467121432
0	4262	35.248351805132	0.01357927154
0	4267	35.261931076672	0.032420709742
0	4272	35.294351786414	0.041052325632
0	4278	35.335404112046	0.108354758255
0	4283	35.443758870301	0.067111909316
0	4288	35.510870779617	0.00443912125
0	4290	35.515309900867	0.123601311352
0	4301	35.638911212219	0.139218553075
0	4310	35.778129765294	0.04531196882
0	4316	35.823441734114	0.018906379733
0	4321	35.842348113847	0.005099321321
0	4323	35.847447435168	0.027327992916
0	4332	35.874775428084	0.039435513203
0	4338	35.914210941287	0.057812888571
0	4343	35.972023829858	0.082905355084
0	4351	36.054929184942	0.004760292516
0	4353	36.059689477458	0.113594315002
0	4365	36.17328379246	0.011660644158
0	4370	36.184944436618	0.060361916521
0	4376	36.245306353139	0.043734786221
0	4381	36.28904113936	0.008525557428
0	4386	36.297566696788	0.024327111037
0	4391	36.321893807825	0.00258046908
0	4393	36.324474276905	0.00562482433
0	4398	36.330099101235	0.053001259877
0	4406	36.383100361112	0.000506808728
0	4408	36.38360716984	0.044066308175
0	4416	36.427673478015	0.113235581821
0	4423	36.540909059836	0.035250406002
0	4430	36.576159465838	0.055134839131
0	4437	36.631294304969	0.002244338533
0	4439	36.633538643502	0.01957306101
0	4447	36.653111704512	0.029922708704
0	4453	36.683034413216	0.108607164806
0	4462	36.791641578022	0.043886256274
0	4467	36.835527834296	0.170900359106
0	4474	37.006428193402	0.010402391614
0	4479	37.016830585016	0.004252908027
0	4481	37.021083493043	0.05306410088
0	4489	37.074147593923	0.015087718103
0	4494	37.089235312026	0.022176161905
0	4499	37.111411473931	0.037716200055
0	4506	37.149127673986	0.005509574819
0	4508	37.154637248805	0.126693213395
0	4520	37.2813304622	0.013206662889
0	4525	37.294537125089	0.013267099219
0	4530	37.307804224308	0.000414132001
0	4532	37.308218356309	0.136938975916
0	4544	37.445157332225	0.026715195519
0	4549	37.471872527744	0.115696453434
0	4556	37.587568981178	0.001500754296
0	4558	37.589069735474	0.020640056065
0	4567	37.609709791539	0.04838048513
0	4572	37.658090276669	0.012759808288
0	4577	37.670850084957	0.059866822555
0	4585	37.730716907512	0.010127610253
0	4591	37.740844517765	0.025493549261
0	4596	37.766338067026	0.002827326527
0	4598	37.769165393553	0.178023204709
0	4609	37.947188598262	0.156269213294
0	4616	38.103457811556	0.045330449341
0	4623	38.148788260897	0.007938761669
0	4628	38.156727022566	0.083693053958
0	4633	38.240420076524	0.158235122183
0	4640	38.398655198707	0.008941688714
0	4645	38.407596887421	0.020709722444
0	4652	38.428306609865	0.052717478342
0	4660	38.481024088207	0.003057190225
0	4662	38.484081278432	0.003115659363
0	4664	38.487196937795	0.085526859134
0	4676	38.572723796929	0.002804548943
0	4678	38.575528345872	0.081329843224
0	4686	38.656858189096	0.022760485381
0	4691	38.679618674477	0.031118075677
0	4696	38.710736750154	0.069039787716
0	4702	38.77977653787	0.073998313255
0	4712	38.853774851125	0.017493020756
0	4717	38.871267871881	0.069079117052
0	4723	38.940346988933	0.094960522283
0	4728	39.035307511216	0.029954813285
0	4734	39.065262324501	0.00453423925
0	4736	39.069796563751	0.016659880751
0	4745	39.086456444502	0.077636271719
0	4752	39.164092716221	0.007686093007
0	4757	39.171778809228	0.018099961573
0	4762	39.189878770801	0.120443859408
0	4769	39.310322630209	0.160429275121
0	4779	39.47075190533	0.004120503165
0	4781	39.474872408495	0.063227160615
0	4790	39.53809956911	0.064669504279
0	4795	39.602769073389	0.055677419983
0	4803	39.658446493372	0.004043280133
0	4805	39.662489773505	0.021400199548
0	4813	39.683889973053	0.055426379723
0	4819	39.739316352776	0.008529656337
0	4826	39.747846009113	0.003109390016
0	4828	39.750955399129	0.065801421238
0	4837	39.816756820367	0.005897188363
0	4839	39.82265400873	0.205610146854
0	4854	40.028264155584	0.032250528442
0	4859	40.060514684026	0.003630791514
0	4861	40.06414547554	0.004221166846
0	4866	40.068366642386	0.110145771783
0	4879	40.178512414169	0.001623732571
0	4881	40.18013614674	0.025637173766
0	4889	40.205773320506	0.051029438172
0	4895	40.256802758678	0.114980336687
0	4902	40.371783095365	0.112772803
0	4908	40.484555898365	0.001245195174
0	4910	40.485801093539	0.033008121208
0	4918	40.518809214747	0.039073154365
0	4923	40.557882369112	0.090903278929
0	4931	40.648785648041	0.050237228941
0	4938	40.699022876982	0.061719432438
0	4947	40.76074230942	0.019372569866
0	4952	40.780114879286	0.135175474219
0	4957	40.915290353505	0.01811598678
0	4962	40.933406340285	0.18317192598
0	4969	41.116578266265	0.094247009205
0	4976	41.21082527547	0.044355640539
0	4981	41.255180916009	0.050325834816
0	4988	41.305506750825	0.146008365735
0	4996	41.45151511656	0.004277804516
0	4998	41.455792921076	0.061097534939
0	5009	41.516890456015	0.066455402267
0	5014	41.583345858282	0.031243975241
0	5020	41.614589833523	0.007069582125
0	5022	41.621659415648	0.123270239748
0	5035	41.744929655396	0.109963638409
0	5045	41.854893293805	0.043326848409
0	5050	41.898220142214	0.065423619399
0	5055	41.963643761613	0.013669209724
0	5060	41.977312971337	0.008357390193
0	5065	41.98567036153	0.024673928335
0	5071	42.010344289865	0.01954122728
0	5076	42.029885517145	0.02741909752
0	5081	42.057304614665	0.009378042583
0	5086	42.066682657248	0.008959952055
0	5093	42.075642609303	0.0865488096
0	5100	42.162191418903	0.001265879672
0	5102	42.163457298575	0.148483457636
0	5112	42.311940756211	0.002702293576
0	5114	42.314643049787	0.000406111803
0	5116	42.31504916159	0.056717133105
0	5127	42.371766294695	0.004249848421
0	5129	42.376016143116	0.014643143958
0	5137	42.390659287074	0.030572750557
0	5142	42.421232037631	0.008246973855
0	5147	42.429479011486	0.037689316871
0	5153	42.467168328357	0.011006344601
0	5158	42.478174672958	0.095819189687
0	5166	42.573993862645	0.085265321097
0	5171	42.659259183742	0.021527457146
0	5176	42.680786640888	0.111170904726
0	5182	42.791957545614	0.01027595631
0	5188	42.802233501924	0.030286060859
0	5193	42.832519562783	0.0165540458
0	5198	42.849073608583	0.067515949832
0	5206	42.916589558415	0.001525110205
0	5208	42.91811466862	0.042787009422
0	5216	42.960901678042	0.016936729431
0	5221	42.977838407473	0.033521865734
0	5228	43.011360273207	0.056243440769
0	5234	43.067603713976	0.051697375435
0	5239	43.119301089411	0.042435242898
0	5244	43.161736332309	0.148123361573
0	5252	43.309859693882	0.050304692486
0	5258	43.360164386368	0.081086405851
0	5264	43.441250792219	0.171708411066
0	5279	43.612959203285	0.026418003035
0	5285	43.63937720632	0.028038796151
0	5290	43.667416002471	0.014478189234
0	5295	43.681894191705	0.012132716367
0	5300	43.694026908072	0.000131360143
0	5302	43.694158268215	0.001144323835
0	5304	43.69530259205	0.017214599895
0	5313	43.712517191945	0.05637925229
0	5323	43.768896444235	0.193648951069
0	5332	43.962545395304	0.000772503928
0	5334	43.963317899232	0.027572394114
0	5342	43.990890293346	0.007941425357
0	5347	43.998831718703	0.038835554997
0	5354	44.0376672737	0.033878586456
0	5360	44.071545860156	0.003289348134
0	5362	44.07483520829	0.007487093348
0	5367	44.082322301638	0.007669856088
0	5372	44.089992157726	0.04471521534
0	5380	44.134707373066	0.212008687533
0	5387	44.346716060599	0.0119803542
0	5394	44.358696414799	0.038364160772
0	5399	44.397060575571	0.078103987409
0	5408	44.47516456298	0.012497436635
0	5413	44.487661999615	0.004459840072
0	5415	44.492121839687	0.051352371789
0	5425	44.543474211476	0.027511707213
0	5430	44.570985918689	0.064886430259
0	5439	44.635872348948	0.003838081361
0	5441	44.639710430309	0.035070403365
0	5449	44.674780833674	0.028675161451
0	5455	44.703455995125	0.019936459963
0	5460	44.723392455088	0.065647487495
0	5466	44.789039942583	0.064042449916
0	5473	44.853082392499	0.012910084339
0	5478	44.865992476838	0.006974713055
0	5481	44.872967189893	0.006522444443
0	5486	44.879489634336	0.063736426088
0	5494	44.943226060424	0.179877698622
0	5503	45.123103759046	0.029687397922
0	5508	45.152791156968	0.031664026022
0	5513	45.18445518299	0.036342077598
0	5519	45.220797260588	0.144129656845
0	5527	45.364926917433	0.049282769189
0	5534	45.414209686622	0.048343268347
0	5539	45.462552954969	0.098160743314
0	5545	45.560713698283	0.005018552258
0	5547	45.565732250541	0.018937046137
0	5555	45.584669296678	0.001158087326
0	5557	45.585827384004	0.05955539415
0	5565	45.645382778154	0.110298431882
0	5574	45.755681210036	0.006198105095
0	5577	45.761879315131	0.045871280895
0	5586	45.807750596026	0.028863014814
0	5591	45.83661361084	0.036335481541
0	5596	45.872949092381	0.06314676904
0	5602	45.936095861421	0.200929023027
0	5609	46.137024884448	0.110328428684
0	5618	46.247353313132	0.142044999296
0	5627	46.389398312428	0.040726648317
0	5633	46.430124960745	0.068362766292
0	5642	46.498487727037	0.050171842212
0	5647	46.548659569249	0.013244490503
0	5652	46.561904059752	0.037990072798
0	5657	46.59989413255	0.136762016331
0	5664	46.736656148881	0.02121398766
0	5669	46.757870136541	0.030991729463
0	5675	46.788861866004	0.093465045856
0	5682	46.88232691186	0.055234053054
0	5687	46.937560964914	0.042695617143
0	5695	46.980256582057	0.030957733309
0	5700	47.011214315366	0.015119419035
0	5705	47.026333734401	0.006204509094
0	5707	47.032538243495	0.079754972734
0	5716	47.112293216229	0.007354279529
0	5718	47.119647495758	0.089942425358
0	5729	47.209589921116	0.079892631777
0	5734	47.289482552893	0.030154815521
0	5740	47.319637368414	0.197884742707
0	5751	47.517522111121	0.056911463336
0	5756	47.574433574457	0.019352269515
0	5761	47.593785843972	0.004895396014
0	5763	47.598681239986	0.05405400937
0	5773	47.652735249356	0.064109384824
0	5779	47.71684463418	0.034946257874
0	5784	47.751790892054	0.020509369099
0	5790	47.772300261153	0.041789104489
0	5795	47.814089365642	0.001140020669
0	5797	47.815229386311	0.118595086436
0	5808	47.933824472747	0.0610584855
0	5813	47.994882958247	0.002422227951
0	5815	47.997305186198	0.039731246324
0	5826	48.037036432522	0.01899021283
0	5833	48.056026645352	0.088091015414
0	5846	48.144117660766	0.085741647827
0	5854	48.229859308593	0.006120620617
0	5856	48.23597992921	0.025992602865
0	5865	48.261972532075	0.24959494678
0	5881	48.511567478855	0.130656587022
0	5890	48.642224065877	0.020212334962
0	5897	48.662436400839	0.046683032784
0	5903	48.709119433623	0.007190412927
0	5906	48.71630984655	0.023115290746
0	5915	48.739425137296	0.002164921535
0	5917	48.741590058831	0.041057868283
0	5926	48.782647927114	0.019345987075
0	5932	48.801993914189	0.025310317389
0	5938	48.827304231578	0.011779063243
0	5944	48.839083294821	0.14254553391
0	5960	48.981628828731	0.042703386679
0	5966	49.02433221541	0.110526587672
0	5972	49.134858803082	0.158967189562
0	5980	49.293825992644	0.086858582604
0	5986	49.380684575248	0.012218217514
0	5991	49.392902792762	0.060606680038
0	6000	49.4535094728	0.019958460605
0	6006	49.473467933405	0.079157202487
0	6012	49.552625135892	0.015470271824
0	6017	49.568095407716	0.008336390809
0	6022	49.576431798525	0.015808382949
0	6031	49.592240181474	0.010923915735
0	6037	49.603164097209	0.058092556752
0	6044	49.661256653961	0.009253149064
0	6049	49.670509803025	0.111851801532
0	6059	49.782361604557	0.065001137683
0	6069	49.84736274224	0.043883738579
0	6075	49.891246480819	0.00239427576
0	6077	49.893640756579	0.025597716144
0	6085	49.919238472723	0.053052822334
0	6093	49.972291295057	0.027734626472
0	6099	50.000025921529	0.03860215447
0	6105	50.038628075999	0.040258319522
0	6111	50.078886395521	0.257402289878
0	6130	50.336288685399	0.018225930304
0	6135	50.354514615703	0.001989704607
0	6137	50.35650432031	0.014899655931
0	6145	50.371403976241	0.019910529357
0	6150	50.391314505598	0.120352141065
0	6159	50.511666646663	0.013787012063
0	6164	50.525453658726	0.035821301297
0	6170	50.561274960023	0.023986698424
0	6176	50.585261658447	0.006368189699
0	6178	50.591629848146	0.10374740289
0	6187	50.695377251036	0.042266688856
0	6192	50.737643939892	0.012102870799
0	6198	50.749746810691	0.014381730033
0	6203	50.764128540724	0.003281160346
0	6206	50.76740970107	0.000270482297
0	6208	50.767680183367	0.032091928982
0	6220	50.799772112349	0.042443616102
0	6226	50.842215728451	0.075044537511
0	6233	50.917260265962	0.022173880292
0	6239	50.939434146254	0.152503268815
0	6250	51.091937415069	0.057487294964
0	6259	51.149424710033	0.085961497938
0	6266	51.235386207971	0.04759520146
0	6271	51.282981409431	0.002196854035
0	6273	51.285178263466	0.009540897065
0	6278	51.294719160531	0.129126510826
0	6290	51.423845671357	0.017930978073
0	6295	51.44177664943	0.050419845004
0	6303	51.492196494434	0.062916053625
0	6310	51.555112548059	0.025496821918
0	6315	51.580609369977	0.028166087043
0	6322	51.60877545702	0.200385155035
0	6337	51.809160612055	0.007235263473
0	6339	51.816395875528	0.005164758349
0	6344	51.821560633877	0.00955534243
0	6354	51.831115976307	0.029881351045
0	6359	51.860997327352	0.064672282097
0	6364	51.925669609449	0.004122364605
0	6366	51.929791974054	0.048968494735
0	6376	51.978760468789	0.015936529816
0	6382	51.994696998605	0.040529647426
0	6393	52.035226646031	0.123095359139
0	6402	52.15832200517	0.002870010778
0	6404	52.161192015948	0.323646684947
0	6419	52.484838700895	0.02459048476
0	6424	52.509429185655	0.009354785815
0	6429	52.51878397147	0.029505467417
0	6436	52.548289438887	0.01666432374
0	6441	52.564953762627	0.043895298185
0	6446	52.608849060812	0.061873409893
0	6454	52.670722470705	0.059550736863
0	6461	52.730273207568	0.003598742189
0	6463	52.733871949757	0.06327212343
0	6478	52.797144073187	0.025372060342
0	6485	52.822516133529	0.044823336895
0	6492	52.867339470424	0.235723962015
0	6504	53.103063432439	0.015785036926
0	6510	53.118848469365	0.161435626578
0	6520	53.280284095943	0.026238536172
0	6527	53.306522632115	0.062246795987
0	6533	53.368769428102	0.074724714262
0	6542	53.443494142364	0.116126319235
0	6552	53.559620461599	0.031328445749
0	6560	53.590948907348	0.026625951021
0	6570	53.617574858369	0.025870007517
0	6575	53.643444865886	0.046510436341
0	6584	53.689955302227	0.096389284169
0	6592	53.786344586396	0.070818955501
0	6601	53.857163541897	0.265891812447
0	6614	54.123055354344	0.122902318726
0	6621	54.24595767307	0.027251555522
0	6626	54.273209228592	0.000113686042
0	6628	54.273322914634	0.05028257759
0	6638	54.323605492224	0.208656358734
0	6652	54.532261850958	0.121122185728
0	6664	54.653384036686	0.009017831712
0	6670	54.662401868398	0.008389612372
0	6675	54.67079148077	0.086196252265
0	6683	54.756987733035	0.017208527981
0	6690	54.774196261016	0.030155463186
0	6697	54.804351724202	0.052101204606
0	6705	54.856452928808	0.056607216207
0	6712	54.913060145015	0.009823281862
0	6717	54.922883426877	0.003977800189
0	6720	54.926861227066	0.016432373545
0	6729	54.943293600611	0.015122545748
0	6735	54.958416146359	0.137602422115
0	6744	55.096018568474	0.03070925678
0	6750	55.126727825254	0.018908974556
0	6756	55.14563679981	0.09521219649
0	6764	55.2408489963	0.005049543128
0	6768	55.245898539428	0.119465376261
0	6784	55.365363915689	0.034590404206
0	6789	55.399954319895	0.01614638345
0	6794	55.416100703345	0.003953200059
0	6796	55.420053903404	0.003562068653
0	6798	55.423615972057	0.014449373882
0	6808	55.438065345939	0.019159134559
0	6817	55.457224480498	0.155246060632
0	6825	55.61247054113	0.02381783643
0	6831	55.63628837756	0.092108793186
0	6838	55.728397170746	0.044249056725
0	6844	55.772646227471	0.00805133747
0	6846	55.780697564941	0.010671593132
0	6854	55.791369158073	0.01413130853
0	6860	55.805500466603	0.032740902006
0	6869	55.838241368609	0.00281580055
0	6872	55.841057169159	0.027553093648
0	6882	55.868610262807	0.011147036547
0	6887	55.879757299354	0.079869194142
0	6894	55.959626493496	0.082779809447
0	6906	56.042406302943	0.005962169337
0	6909	56.04836847228	0.123195061701
0	6922	56.171563533981	0.002392478593
0	6925	56.173956012574	0.049037602405
0	6933	56.222993614979	0.059887449683
0	6938	56.282881064662	0.004466741805
0	6940	56.287347806467	0.033125156298
0	6948	56.320472962765	0.034787187469
0	6954	56.355260150234	0.017171594402
0	6960	56.372431744636	0.055051783254
0	6965	56.42748352789	0.105295378517
0	6977	56.532778906407	0.005633982474
0	6979	56.538412888881	0.101676426155
0	6991	56.640089315036	0.043639438788
0	6998	56.683728753824	0.004568441164
0	7000	56.688297194988	0.070454515699
0	7011	56.758751710687	0.031028990037
0	7016	56.789780700724	0.02435685157
0	7023	56.814137552294	0.054151953796
0	7031	56.86828950609	0.087326558276
0	7041	56.955616064366	0.032215542044
0	7046	56.98783160641	0.009302758886
0	7051	56.997134365296	0.004900479256
0	7053	57.002034844552	0.015319488348
0	7061	57.0173543329	0.062107573726
0	7067	57.079461906626	0.081727067332
0	7076	57.161188973958	0.085499137718
0	7081	57.246688111676	0.057686425107
0	7088	57.304374536783	0.154199660307
0	7100	57.45857419709	0.076162467908
0	7107	57.534736664998	0.004557237884
0	7110	57.539293902882	0.009839971466
0	7115	57.549133874348	0.02843935571
0	7126	57.577573230058	0.1533164728
0	7140	57.730889702858	0.005959975456
0	7142	57.736849678314	0.009737099439
0	7148	57.746586777753	0.01314191896
0	7156	57.759728696713	0.059691832123
0	7163	57.819420528836	0.024801311482
0	7168	57.844221840318	0.018447411151
0	7173	57.862669251469	0.006520948868
0	7176	57.869190200337	0.035581744169
0	7185	57.904771944506	0.00928748904
0	7191	57.914059433546	0.122958552721
0	7200	58.037017986267	0.028240343676
0	7206	58.065258329943	0.075198267735
0	7212	58.140456597678	0.034355764007
0	7217	58.174812361685	0.069121458008
0	7223	58.243933819693	0.08292450325
0	7231	58.326858322943	0.005873886654
0	7234	58.332732209597	0.068255150752
0	7245	58.400987360349	0.122223837012
0	7253	58.523211197361	0.016408054855
0	7258	58.539619252216	0.116691983513
0	7265	58.656311235729	0.179170524591
0	7278	58.83548176032	0.207119361497
0	7291	59.042601121817	0.080260291193
0	7297	59.12286141301	0.005996358997
0	7299	59.128857772007	0.117897949543
0	7312	59.24675572155	0.024128323744
0	7319	59.270884045294	0.030906542905
0	7325	59.301790588199	0.016076542528
0	7330	59.317867130727	0.065777792371
0	7337	59.383644923098	0.094427814874
0	7350	59.478072737972	0.072035178065
0	7358	59.550107916037	0.114701960696
0	7366	59.664809876733	0.019590380916
0	7371	59.684400257649	0.035179360687
0	7376	59.719579618336	0.026084648256
0	7382	59.745664266592	0.012505343836
0	7387	59.758169610428	0.220883437617
0	7404	59.979053048045	0.002472736572
0	7406	59.981525784617	0.022829191909
0	7416	60.004354976526	0.106416475608
0	7424	60.110771452134	0.012055941933
0	7429	60.122827394067	0.148225477325
0	7437	60.271052871392	0.020572475176
0	7443	60.291625346568	0.070258889064
0	7450	60.361884235632	0.04033308828
0	7455	60.402217323912	0.086859035191
0	7463	60.489076359103	0.068101462695
0	7469	60.557177821798	0.018625827458
0	7474	60.575803649256	0.037102750681
0	7480	60.612906399937	0.006905126442
0	7483	60.619811526379	0.006407330628
0	7488	60.626218857007	0.005313682675
0	7493	60.631532539682	0.051737719973
0	7502	60.683270259655	0.055732873202
0	7508	60.739003132857	0.091049113205
0	7515	60.830052246062	0.007650299853
0	7520	60.837702545915	0.040322405448
0	7526	60.878024951363	0.12822109805
0	7534	61.006246049413	0.012643928198
0	7539	61.018889977611	0.014045960802
0	7544	61.032935938413	0.048999332036
0	7551	61.081935270449	0.068929290809
0	7558	61.150864561258	0.131885067086
0	7568	61.282749628344	0.047214318486
0	7573	61.32996394683	0.044719881373
0	7580	61.374683828203	0.021147128124
0	7585	61.395830956327	0.022420497323
0	7590	61.41825145365	0.049879174861
0	7596	61.468130628511	0.030487744948
0	7601	61.498618373459	0.000904773889
0	7603	61.499523147348	0.044946522503
0	7611	61.544469669851	0.072293190562
0	7618	61.616762860413	0.006868922668
0	7620	61.623631783081	0.009435451207
0	7628	61.633067234288	0.082251407644
0	7637	61.715318641932	0.047389908828
0	7642	61.76270855076	0.101279869411
0	7649	61.863988420171	0.006255875236
0	7651	61.870244295407	0.007222514938
0	7656	61.877466810345	0.042244581681
0	7664	61.919711392026	0.009636778402
0	7669	61.929348170428	0.066148315059
0	7676	61.995496485487	0.011517660727
0	7681	62.007014146214	0.079624710897
0	7690	62.086638857111	0.04339097493
0	7696	62.130029832041	0.007324117303
0	7701	62.137353949344	0.067462997319
0	7707	62.204816946663	0.032393557883
0	7712	62.237210504546	0.046591029826
0	7717	62.283801534372	0.0264695732
0	7722	62.310271107572	0.044008329633
0	7729	62.354279437205	0.025465385187
0	7734	62.379744822392	0.042146907565
0	7739	62.421891729957	0.088793787554
0	7745	62.510685517511	0.120782637481
0	7751	62.631468154992	0.010395188993
0	7756	62.641863343985	0.00604814999
0	7758	62.647911493975	0.071672830657
0	7769	62.719584324632	0.037727148409
0	7774	62.757311473041	0.066551469303
0	7779	62.823862942344	0.002756295134
0	7781	62.826619237478	0.02744653556
0	7789	62.854065773038	0.009286921392
0	7795	62.86335269443	0.007369715578
0	7800	62.870722410008	0.077569462712
0	7807	62.94829187272	0.060951230439
0	7812	63.009243103159	0.005463846451
0	7814	63.01470694961	0.103991389272
0	7824	63.118698338882	0.039967733063
0	7830	63.158666071945	0.00967099135
0	7836	63.168337063295	0.035991434892
0	7841	63.204328498187	0.006253320292
0	7843	63.210581818479	0.129077311392
0	7854	63.339659129871	0.011824373901
0	7859	63.351483503772	0.01442271595
0	7864	63.365906219722	0.029302427652
0	7869	63.395208647374	0.044433141193
0	7878	63.439641788567	0.030853292906
0	7884	63.470495081473	0.096240516061
0	7892	63.566735597534	0.070720885007
0	7901	63.637456482541	0.004785450505
0	7903	63.642241933046	0.008970206571
0	7909	63.651212139617	0.053947606435
0	7918	63.705159746052	0.11490989744
0	7930	63.820069643492	0.02621736742
0	7936	63.846287010912	0.036875326858
0	7941	63.88316233777	0.0102596668
0	7946	63.89342200457	0.016383660909
0	7952	63.909805665479	0.049444183831
0	7959	63.95924984931	0.001151175009
0	7961	63.960401024319	0.095174580176
0	7973	64.055575604495	0.044084295039
0	7978	64.099659899534	0.090155548179
0	7984	64.189815447713	0.011275416308
0	7990	64.201090864021	0.075068773985
0	7997	64.276159638006	0.029127877866
0	8002	64.305287515872	0.023441349386
0	8007	64.328728865258	0.16192674627
0	8016	64.490655611528	0.06374762568
0	8022	64.554403237208	0.011308475072
0	8027	64.56571171228	0.009876472271
0	8032	64.575588184551	0.026700092497
0	8037	64.602288277048	0.083100180736
0	8044	64.685388457784	0.09281225791
0	8052	64.778200715694	0.150446399273
0	8057	64.928647114967	0.001379638972
0	8059	64.930026753939	0.011343514383
0	8064	64.941370268322	0.055598301939
0	8072	64.996968570261	0.014386376691
0	8077	65.011354946952	0.031331859193
0	8082	65.042686806145	0.004269034079
0	8084	65.046955840224	0.020989055005
0	8093	65.067944895229	0.06000656194
0	8100	65.127951457169	0.03465528625
0	8106	65.162606743419	0.032938045144
0	8111	65.195544788563	0.028292024672
0	8117	65.223836813235	0.014430342919
0	8122	65.238267156154	0.040773888003
0	8130	65.279041044157	0.009814749778
0	8135	65.288855793935	0.005720249762
0	8138	65.294576043697	0.030451230134
0	8146	65.325027273831	0.02192763726
0	8151	65.346954911091	0.019871829829
0	8158	65.36682674092	0.132867029705
0	8166	65.499693770625	0.013447603151
0	8172	65.513141373776	0.035047004314
0	8177	65.54818837809	0.041875338416
0	8182	65.590063716506	0.051288068912
0	8187	65.641351785418	0.058204362856
0	8194	65.699556148274	0.031803523141
0	8199	65.731359671415	0.008951413478
0	8204	65.740311084893	0.17196775864
0	8210	65.912278843533	0.017298551982
0	8217	65.929577395515	0.006187281399
0	8219	65.935764676914	0.213382907766
0	8234	66.14914758468	0.021583325202
0	8239	66.170730909882	0.160483520944
0	8248	66.331214430826	0.057004245204
0	8254	66.38821867603	0.123704989316
0	8261	66.511923665346	0.076955949422
0	8272	66.588879614768	0.022958381919
0	8277	66.611837996687	0.025350189702
0	8282	66.637188186389	0.011185567953
0	8287	66.648373754342	0.067501765626
0	8292	66.715875519968	0.010677856636
0	8297	66.726553376604	0.023314612858
0	8302	66.749867989462	0.008375845328
0	8309	66.75824383479	0.005134833428
0	8311	66.763378668218	0.063810872803
0	8320	66.827189541021	0.000855882022
0	8322	66.828045423043	0.087525690411
0	8332	66.915571113454	0.00763912216
0	8334	66.923210235614	0.068613614687
0	8342	66.991823850301	0.217423477829
0	8356	67.20924732813	0.014466027871
0	8362	67.223713356001	0.010662033058
0	8367	67.234375389059	0.065194716473
0	8372	67.299570105532	0.0004017305
0	8374	67.299971836032	0.05806168382
0	8384	67.358033519852	0.04201809514
0	8391	67.400051614992	0.034615881625
0	8396	67.434667496617	0.032917706211
0	8401	67.467585202828	0.023887764297
0	8406	67.491472967125	0.017684709302
0	8412	67.509157676427	0.091065347002
0	8421	67.600223023429	0.133399301796
0	8429	67.733622325225	0.005426172147
0	8431	67.739048497372	0.060500795202
0	8440	67.799549292574	0.010467285215
0	8445	67.810016577789	0.026740113812
0	8453	67.836756691601	0.099215307135
0	8459	67.935971998736	0.00119816016
0	8461	67.937170158896	0.078479122213
0	8472	68.015649281109	0.058677661972
0	8477	68.074326943081	0.085278519805
0	8484	68.159605462886	0.055881819457
0	8490	68.215487282343	0.053404762946
0	8496	68.268892045289	0.020590162502
0	8501	68.289482207791	0.219273634428
0	8509	68.508755842219	0.179356676911
0	8516	68.68811251913	0.010695303889
0	8521	68.698807823019	0.127027966317
0	8531	68.825835789336	0.028663115526
0	8536	68.854498904862	0.034911157531
0	8542	68.889410062393	0.071011479846
0	8547	68.960421542239	0.093728777314
0	8554	69.054150319553	0.038630602087
0	8559	69.09278092164	0.095533664579
0	8564	69.188314586219	0.046064979638
0	8571	69.234379565857	0.023038601702
0	8576	69.257418167559	0.140563424911
0	8585	69.39798159247	0.248085130843
0	8594	69.646066723313	0.025500835167
0	8600	69.67156755848	0.024659550771
0	8605	69.696227109251	0.090364452074
0	8611	69.786591561325	0.071496373084
0	8617	69.858087934409	0.006505661422
0	8619	69.864593595831	0.030425042828
0	8629	69.895018638659	0.032738735132
0	8634	69.927757373791	0.006093867867
0	8636	69.933851241658	0.064747972883
0	8646	69.998599214541	0.041085049005
0	8651	70.039684263546	0.102850983622
0	8656	70.142535247168	0.061394965021
0	8662	70.203930212189	0.058995690969
0	8669	70.262925903158	0.047330123707
0	8675	70.310256026865	0.024414205062
0	8681	70.334670231927	0.017752675491
0	8686	70.352422907418	0.021943968181
0	8691	70.374366875599	0.109578111254
0	8700	70.483944986853	0.017467197594
0	8705	70.501412184447	0.078726831567
0	8714	70.580139016014	0.044431590495
0	8721	70.624570606509	0.02548453103
0	8726	70.650055137539	0.045567238212
0	8733	70.695622375751	0.016099015576
0	8739	70.711721391327	0.047764322195
0	8745	70.759485713522	0.085985893251
0	8750	70.845471606773	0.075123567407
0	8757	70.92059517418	0.015640965962
0	8762	70.936236140142	0.029872924104
0	8767	70.966109064246	0.01507905761
0	8772	70.981188121856	0.020303048826
0	8778	71.001491170682	0.015601020945
0	8783	71.017092191627	0.005070834581
0	8785	71.022163026208	0.046612161798
0	8793	71.068775188006	0.208219206169
0	8804	71.276994394175	0.0160550899
0	8809	71.293049484075	0.024227779633
0	8815	71.317277263708	0.097712079753
0	8822	71.414989343461	0.027150940553
0	8827	71.442140284014	0.016678983241
0	8832	71.458819267255	0.06839050364
0	8840	71.527209770895	0.146764202573
0	8845	71.673973973468	0.015258799859
0	8850	71.689232773327	0.024838283026
0	8856	71.714071056353	0.055877270967
0	8862	71.76994832732	0.062717338235
0	8868	71.832665665555	0.206496261161
0	8879	72.039161926716	0.009681329539
0	8884	72.048843256255	0.01555705464
0	8889	72.064400310895	0.009664151653
0	8894	72.074064462548	0.016756255961
0	8901	72.090820718509	0.015202698237
0	8907	72.106023416746	0.02886908539
0	8913	72.134892502136	0.016740448716
0	8919	72.151632950852	0.086585290165
0	8927	72.238218241017	0.055013348154
0	8933	72.293231589171	0.016966854096
0	8939	72.310198443267	0.157405311824
0	8946	72.467603755091	0.051712005063
0	8953	72.519315760154	0.05416439144
0	8960	72.573480151594	0.009952215461
0	8965	72.583432367055	0.048820579025
0	8971	72.63225294608	0.091551491181
0	8977	72.723804437261	0.18703962246
0	8985	72.910844059721	0.017303284832
0	8990	72.928147344553	0.018664401991
0	8995	72.946811746544	0.172958431176
0	9002	73.11977017772	0.079564319613
0	9009	73.199334497333	0.004752068395
0	9011	73.204086565728	0.048335336257
0	9019	73.252421901985	0.040620988379
0	9024	73.293042890364	0.048827390859
0	9030	73.341870281223	0.025461196196
0	9036	73.367331477419	0.024942152621
0	9041	73.39227363004	0.011945348809
0	9046	73.404218978849	0.189577845253
0	9054	73.593796824102	0.006488286976
0	9056	73.600285111078	0.018997713893
0	9064	73.619282824971	0.002344185281
0	9066	73.621627010252	0.015526228351
0	9074	73.637153238603	0.019656583168
0	9079	73.656809821771	0.048213674256
0	9084	73.705023496027	0.059525397333
0	9089	73.76454889336	0.003889276998
0	9091	73.768438170358	0.040682075275
0	9099	73.809120245633	0.025303658586
0	9104	73.834423904219	0.013085573154
0	9109	73.847509477373	0.046523109457
0	9115	73.89403258683	0.040476079237
0	9121	73.934508666067	0.042850220694
0	9126	73.977358886761	0.19002387939
0	9137	74.167382766151	0.111116721063
0	9142	74.278499487214	0.133107485192
0	9149	74.411606972406	0.114045624618
0	9156	74.525652597024	0.068374057148
0	9165	74.594026654172	0.0026738104
0	9167	74.596700464572	0.093675133594
0	9176	74.690375598166	0.063529594992
0	9182	74.753905193158	0.042107823651
0	9189	74.796013016809	0.130376182591
0	9196	74.9263891994	0.00119157169
0	9198	74.92758077109	0.017644363908
0	9207	74.945225134998	0.006602580545
0	9209	74.951827715543	0.005934990413
0	9214	74.957762705956	0.08259888304
0	9224	75.040361588996	0.095849286016
0	9234	75.136210875012	0.105355675726
0	9241	75.241566550738	0.038121965327
0	9246	75.279688516065	0.06402098589
0	9252	75.343709501955	0.080931346221
0	9260	75.424640848176	0.012281036792
0	9265	75.436921884968	0.029666812707
0	9273	75.466588697675	0.012237732561
0	9278	75.478826430236	0.119592485569
0	9285	75.598418915805	0.033481347189
0	9290	75.631900262994	0.118843515942
0	9297	75.750743778936	0.024248391293
0	9303	75.774992170229	0.028975224875
0	9310	75.803967395104	0.009057779917
0	9315	75.813025175021	0.09445050049
0	9321	75.907475675511	0.058002323362
0	9326	75.965477998873	0.0824299061
0	9335	76.047907904973	0.010203685645
0	9341	76.058111590618	0.045261879419
0	9346	76.103373470037	0.037768250278
0	9352	76.141141720315	0.019701899742
0	9358	76.160843620057	0.054552042568
0	9364	76.215395662625	0.014038196019
0	9369	76.229433858644	0.050577470313
0	9375	76.280011328957	0.067052706036
0	9381	76.347064034993	0.046949083697
0	9386	76.39401311869	0.070690050197
0	9392	76.464703168887	0.070722129221
0	9397	76.535425298108	0.001012092442
0	9399	76.53643739055	0.002998713618
0	9401	76.539436104168	0.069899200563
0	9415	76.609335304731	0.030268000591
0	9420	76.639603305322	0.01152323494
0	9425	76.651126540262	0.154587968942
0	9434	76.805714509204	0.017250461894
0	9439	76.822964971098	0.062820645813
0	9444	76.885785616911	0.076735332496
0	9449	76.962520949407	0.00412343044
0	9451	76.966644379847	0.048329303637
0	9462	77.014973683484	0.006675917284
0	9464	77.021649600768	0.119389043268
0	9473	77.141038644036	0.15656358648
0	9483	77.297602230516	0.124543374856
0	9490	77.422145605372	0.038242402342
0	9496	77.460388007714	0.008325560198
0	9501	77.468713567912	0.165955972133
0	9507	77.634669540045	0.019435898481
0	9512	77.654105438526	0.130428172975
0	9521	77.784533611501	0.057023092901
0	9526	77.841556704402	0.073437969595
0	9532	77.914994673997	0.068410605301
0	9539	77.983405279298	0.037164084744
0	9544	78.020569364042	0.019865530077
0	9549	78.040434894119	0.096154412215
0	9554	78.136589306334	0.015487852318
0	9559	78.152077158652	0.024015203556
0	9564	78.176092362208	0.083604818022
0	9570	78.25969718023	0.111727593059
0	9577	78.371424773289	1.717179e-006
0	9579	78.371426490468	0.01820481746
0	9587	78.389631307928	0.102393828006
0	9597	78.492025135934	0.006089055873
0	9599	78.498114191807	0.025617797867
0	9607	78.523731989674	0.028335548109
0	9612	78.552067537783	0.034572113393
0	9617	78.586639651176	0.018383280251
0	9623	78.605022931427	0.138023670454
0	9632	78.743046601881	0.002551258109
0	9634	78.74559785999	0.038673678869
0	9643	78.784271538859	0.063137912348
0	9650	78.847409451207	0.031800995871
0	9655	78.879210447078	0.010954324619
0	9660	78.890164771697	0.060009304449
0	9667	78.950174076146	0.028279789641
0	9673	78.978453865787	0.026240974005
0	9679	79.004694839792	0.0053642245
0	9681	79.010059064292	0.044352145627
0	9693	79.054411209919	0.01305420141
0	9698	79.067465411329	0.066826486362
0	9705	79.134291897691	0.053094712628
0	9711	79.187386610319	0.007233348937
0	9713	79.194619959256	0.008012460605
0	9722	79.202632419861	0.058563459961
0	9727	79.261195879822	0.006401779137
0	9729	79.267597658959	0.018882040074
0	9737	79.286479699033	0.122204977514
0	9744	79.408684676547	0.016025906789
0	9749	79.424710583336	0.006477192395
0	9751	79.431187775731	0.031247595729
0	9760	79.46243537146	0.003215639962
0	9762	79.465651011422	0.011053418731
0	9768	79.476704430153	0.043922533578
0	9777	79.520626963731	0.131535136031
0	9785	79.652162099762	0.016649357397
0	9790	79.668811457159	0.127602542694
0	9798	79.796413999853	0.017955216907
0	9804	79.81436921676	0.05105683864
0	9810	79.8654260554	0.099832066008
0	9819	79.965258121408	0.02231742969
0	9824	79.987575551098	0.085920362077
0	9831	80.073495913175	0.032866454336
0	9836	80.106362367511	0.11319847674
0	9845	80.219560844251	0.036543982952
0	9851	80.256104827203	0.124788581587
0	9856	80.38089340879	0.003316277237
0	9858	80.384209686027	0.001209846728
0	9860	80.385419532755	0.010449781691
0	9868	80.395869314446	0.014443735944
0	9877	80.41031305039	0.047478935793
0	9882	80.457791986183	0.002127294045
0	9884	80.459919280228	0.013883008666
0	9892	80.473802288894	0.039412286976
0	9900	80.51321457587	0.005174951703
0	9902	80.518389527573	0.059986537724
0	9910	80.578376065297	0.071789778406
0	9921	80.650165843703	0.138630514409
0	9927	80.788796358112	0.007580492216
0	9929	80.796376850328	0.120679721367
0	9939	80.917056571695	0.003991426536
0	9941	80.921047998231	0.019999090971
0	9950	80.941047089202	0.134499204185
0	9956	81.075546293387	0.18652038547
0	9966	81.262066678857	0.017482284884
0	9971	81.279548963741	0.031957704405
0	9978	81.311506668146	0.086454999544
0	9986	81.39796166769	0.065979018708
0	9992	81.463940686398	0.012618468046
0	9998	81.476559154444	0.00485983221
0	10000	81.481418986654	0.053837124712
0	10009	81.535256111366	0.01806596752
0	10014	81.553322078886	0.053501429333
0	10022	81.606823508219	0.00945748651
0	10027	81.616280994729	0.095866603799
0	10033	81.712147598528	0.020187158871
0	10038	81.732334757399	0.004899351172
0	10040	81.737234108571	0.030645089396
0	10049	81.767879197967	0.038018689068
0	10054	81.805897887035	0.028886699245
0	10059	81.83478458628	0.061902947811
0	10066	81.896687534091	0.126904480221
0	10075	82.023592014312	0.016372327508
0	10080	82.03996434182	0.002913433999
0	10082	82.042877775819	0.041458206407
0	10092	82.084335982226	0.005750993037
0	10094	82.090086975263	0.006264896024
0	10100	82.096351871287	0.027445972219
0	10109	82.123797843506	0.026451348738
0	10115	82.150249192244	0.078396165448
0	10125	82.228645357692	0.048471077362
0	10130	82.277116435054	0.09947840373
0	10135	82.376594838784	0.042874918279
0	10141	82.419469757063	0.224896176402
0	10150	82.644365933465	0.00877721846
0	10155	82.653143151925	0.090192642359
0	10163	82.743335794284	0.010254048237
0	10169	82.753589842521	0.000808377803
0	10171	82.754398220324	0.027422692139
0	10180	82.781820912463	0.108197512533
0	10187	82.890018424996	0.002339519825
0	10189	82.892357944821	0.024326244106
0	10198	82.916684188927	0.135053918755
0	10205	83.051738107682	0.021240901605
0	10210	83.072979009287	0.00282693994
0	10212	83.075805949227	0.005611246847
0	10217	83.081417196074	0.08045357004
0	10226	83.161870766114	0.015043560672
0	10231	83.176914326786	0.188387037145
0	10238	83.365301363931	0.057096112404
0	10244	83.422397476335	0.068065125429
0	10251	83.490462601764	0.030887185042
0	10256	83.521349786806	0.015201302291
0	10262	83.536551089097	0.002001063446
0	10264	83.538552152543	0.070080000896
0	10274	83.608632153439	0.021438461709
0	10279	83.630070615148	0.030090600595
0	10284	83.660161215743	0.044042136365
0	10289	83.704203352108	0.020101352674
0	10294	83.724304704782	0.074696618148
0	10300	83.79900132293	0.103119787604
0	10306	83.902121110534	0.051123476285
0	10312	83.953244586819	0.082096686534
0	10319	84.035341273353	0.103428929976
0	10326	84.138770203329	0.016688128034
0	10331	84.155458331363	0.049784555999
0	10337	84.205242887362	0.01616068578
0	10342	84.221403573142	0.072216026937
0	10348	84.293619600079	0.029466962568
0	10354	84.323086562647	0.044354036757
0	10360	84.367440599404	0.006114854072
0	10362	84.373555453476	0.016575744259
0	10370	84.390131197735	0.023462630838
0	10375	84.413593828573	0.111690192019
0	10385	84.525284020592	0.034019040633
0	10392	84.559303061225	0.019195370155
0	10398	84.57849843138	0.056643985127
0	10405	84.635142416507	0.09910683224
0	10412	84.734249248747	0.003492071468
0	10414	84.737741320215	0.036283341977
0	10423	84.774024662192	0.008743499547
0	10428	84.782768161739	0.208193240009
0	10437	84.990961401748	0.023847251745
0	10443	85.014808653493	0.02130889182
0	10448	85.036117545313	0.031675453299
0	10453	85.067792998612	0.130013302663
0	10459	85.197806301275	0.159042873636
0	10468	85.356849174911	0.023456010617
0	10473	85.380305185528	0.110977321329
0	10479	85.491282506857	0.03290835305
0	10485	85.524190859907	0.049666598488
0	10492	85.573857458395	0.074270070001
0	10499	85.648127528396	0.082523747752
0	10509	85.730651276148	0.003162083188
0	10511	85.733813359336	0.000880957391
0	10513	85.734694316727	0.070208842233
0	10526	85.80490315896	0.02617966755
0	10531	85.83108282651	0.060887724871
0	10537	85.891970551381	0.130670934738
0	10544	86.022641486119	0.137768429037
0	10552	86.160409915156	0.044124842814
0	10557	86.20453475797	0.047916240277
0	10562	86.252450998247	0.002753073441
0	10564	86.255204071688	0.12071969627
0	10575	86.375923767958	0.049784683043
0	10582	86.425708451001	0.003579311283
0	10584	86.429287762284	0.022285043843
0	10592	86.451572806127	0.071801795543
0	10598	86.52337460167	0.03579095673
0	10603	86.5591655584	0.005761847679
0	10606	86.564927406079	0.014970317116
0	10614	86.579897723195	0.004430695518
0	10616	86.584328418713	0.007486003429
0	10622	86.591814422142	0.007781490173
0	10627	86.599595912315	0.022648014469
0	10636	86.622243926784	0.003033241386
0	10638	86.62527716817	0.005143111321
0	10643	86.630420279491	0.128378413026
0	10651	86.758798692517	0.024423026037
0	10657	86.783221718554	0.015327868111
0	10662	86.798549586665	0.131766204117
0	10671	86.930315790782	0.008730740496
0	10676	86.939046531278	0.039929072369
0	10681	86.978975603647	0.008100082799
0	10687	86.987075686446	0.012244689355
0	10692	86.999320375801	0.065520942872
0	10698	87.064841318673	0.067200142206
0	10704	87.132041460879	0.002972678629
0	10706	87.135014139508	0.066471689758
0	10714	87.201485829266	0.057927595094
0	10720	87.25941342436	0.079927226189
0	10728	87.339340650549	0.135615470383
0	10736	87.474956120932	0.057145565859
0	10742	87.532101686791	0.054527140771
0	10747	87.586628827562	0.193106827319
0	10756	87.779735654881	0.020447127651
0	10761	87.800182782532	0.009702228858
0	10766	87.80988501139	0.024518093136
0	10772	87.834403104526	0.026840550625
0	10778	87.861243655151	0.078543911713
0	10786	87.939787566864	0.034252496407
0	10793	87.974040063271	0.007840469558
0	10798	87.981880532829	0.011366075929
0	10803	87.993246608758	0.011092631498
0	10810	88.004339240256	0.024147934753
0	10815	88.028487175009	0.134815543436
0	10824	88.163302718445	0.142667132224
0	10833	88.305969850669	0.038360674697
0	10839	88.344330525366	0.043661574353
0	10844	88.387992099719	0.032712704926
0	10850	88.420704804645	0.078491606314
0	10856	88.499196410959	0.004127615605
0	10858	88.503324026564	0.01660710813
0	10866	88.519931134694	0.024040651923
0	10872	88.543971786617	0.048546833548
0	10878	88.592518620165	0.046460298011
0	10883	88.638978918176	0.012886866812
0	10888	88.651865784988	0.004051425358
0	10890	88.655917210346	0.012273018217
0	10898	88.668190228563	0.015915715497
0	10903	88.68410594406	0.173131568802
0	10910	88.857237512862	0.101623425755
0	10916	88.958860938617	0.017575146175
0	10921	88.976436084792	0.019972991214
0	10926	88.996409076006	0.01279920127
0	10931	89.009208277276	0.013202734808
0	10937	89.022411012084	0.01642807438
0	10942	89.038839086464	0.023167257117
0	10947	89.062006343581	0.00137779658
0	10949	89.063384140161	0.00149970196
0	10951	89.064883842121	0.04192501918
0	10962	89.106808861301	0.039873575676
0	10968	89.146682436977	0.008916222982
0	10973	89.155598659959	0.111081505638
0	10979	89.266680165597	0.02616763168
0	10985	89.292847797277	0.000156990095
0	10987	89.293004787372	0.066948710568
0	10996	89.35995349794	0.04863007394
0	11001	89.40858357188	0.099417609456
0	11008	89.508001181336	0.001319031975
0	11010	89.509320213311	0.012949375279
0	11015	89.52226958859	0.041427636607
0	11023	89.563697225197	0.036129380856
0	11028	89.599826606053	0.100391959898
0	11035	89.700218565951	0.004187297984
0	11037	89.704405863935	0.06121438482
0	11045	89.765620248755	0.00676879586
0	11047	89.772389044615	0.234916815552
0	11060	90.007305860167	0.02409607868
0	11065	90.031401938847	0.014244105733
0	11070	90.04564604458	0.053190882867
0	11076	90.098836927447	0.025363505458
0	11082	90.124200432905	0.017963343517
0	11087	90.142163776422	0.030123859138
0	11092	90.17228763556	0.004439581853
0	11094	90.176727217413	0.009199607571
0	11099	90.185926824984	0.028519319495
0	11107	90.214446144479	0.00301364443
0	11109	90.217459788909	0.035261606231
0	11118	90.25272139514	0.097261178362
0	11124	90.349982573502	0.105476910644
0	11129	90.455459484146	0.088377971912
0	11135	90.543837456058	0.019253903728
0	11140	90.563091359786	0.016035588765
0	11145	90.579126948551	0.019287542955
0	11150	90.598414491506	0.110027000423
0	11156	90.708441491929	0.003303418629
0	11158	90.711744910558	0.082115018673
0	11168	90.793859929231	0.026053709157
0	11174	90.819913638388	0.143248246263
0	11181	90.963161884651	0.010160474995
0	11187	90.973322359646	0.018679279145
0	11194	90.992001638791	0.043557697944
0	11199	91.035559336735	0.025242805045
0	11204	91.06080214178	0.030088365578
0	11211	91.090890507358	0.146824639543
0	11219	91.237715146901	0.012008470045
0	11224	91.249723616946	0.004390795133
0	11226	91.254114412079	0.000847726659
0	11228	91.254962138738	0.028739608445
0	11240	91.283701747183	0.238913723836
0	11254	91.522615471019	0.012606743063
0	11259	91.535222214082	0.187105664187
0	11267	91.722327878269	0.00421167752
0	11269	91.726539555789	0.006432987094
0	11274	91.732972542883	0.009536600065
0	11279	91.742509142948	0.104632306501
0	11294	91.847141449449	0.238893798576
0	11303	92.086035248025	0.22330480591
0	11311	92.309340053935	0.004258986334
0	11314	92.313599040269	0.014444544402
0	11322	92.328043584671	0.11251284272
0	11331	92.440556427391	0.091207700005
0	11341	92.531764127396	0.110741118414
0	11349	92.64250524581	0.036919228469
0	11359	92.679424474279	0.172185808006
0	11371	92.851610282285	0.037231421494
0	11377	92.888841703779	0.008806213317
0	11382	92.897647917096	0.004630749828
0	11384	92.902278666924	0.01278291647
0	11392	92.915061583394	0.030268049364
0	11398	92.945329632758	0.021917146709
0	11404	92.967246779467	0.237210058744
0	11422	93.204456838211	0.089084659737
0	11429	93.293541497948	0.00712907334
0	11431	93.300670571288	0.014403879666
0	11441	93.315074450954	0.097350229608
0	11448	93.412424680562	0.02899620287
0	11455	93.441420883432	0.106879063591
0	11464	93.548299947023	0.039235335404
0	11471	93.587535282427	0.004475581636
0	11473	93.592010864063	0.000808833581
0	11475	93.592819697644	0.063031400064
0	11490	93.655851097708	0.031743260665
0	11495	93.687594358373	0.000555126887
0	11497	93.68814948526	0.027303119873
0	11508	93.715452605133	0.02281554277
0	11517	93.738268147903	0.004228288629
0	11520	93.742496436532	0.103489746367
0	11534	93.845986182899	0.071572027343
0	11541	93.917558210242	0.107975578333
0	11549	94.025533788575	0.050940772411
0	11556	94.076474560986	0.181857270976
0	11569	94.258331831962	0.040250219766
0	11576	94.298582051728	0.030569169122
0	11581	94.32915122085	0.012845755285
0	11587	94.341996976135	0.016542353065
0	11593	94.3585393292	0.039492324636
0	11599	94.398031653836	0.035521735786
0	11606	94.433553389622	0.055468536863
0	11614	94.489021926485	0.028406281681
0	11620	94.517428208166	0.044874458896
0	11627	94.562302667062	0.054612180487
0	11635	94.616914847549	0.010747408959
0	11640	94.627662256508	0.137858864058
0	11649	94.765521120566	0.030154661235
0	11654	94.795675781801	0.029772198982
0	11661	94.825447980783	0.024710797988
0	11667	94.850158778771	0.106132302197
0	11675	94.956291080968	0.036494343909
0	11683	94.992785424877	0.083670627195
0	11692	95.076456052072	0.075502950373
0	11699	95.151959002445	0.010596465876
0	11704	95.162555468321	0.057419743201
0	11710	95.219975211522	0.054060690052
0	11719	95.274035901574	0.021538270717
0	11725	95.295574172291	0.093856272471
0	11733	95.389430444762	0.004044746053
0	11735	95.393475190815	0.052872376817
0	11744	95.446347567632	0.021861446993
0	11750	95.468209014625	0.089460572191
0	11758	95.557669586816	0.042299785487
0	11763	95.599969372303	0.030692931744
0	11768	95.630662304047	0.052940163422
0	11776	95.683602467469	0.032159242846
0	11782	95.715761710315	0.036987264157
0	11791	95.752748974472	0.071373874344
0	11796	95.824122848816	0.007014450943
0	11798	95.831137299759	0.046808445941
0	11807	95.8779457457	0.026400927522
0	11814	95.904346673222	0.100936051205
0	11821	96.005282724427	0.005884376861
0	11823	96.011167101288	0.028819906369
0	11832	96.039987007657	0.043451971682
0	11837	96.083438979339	0.091548289232
0	11843	96.174987268571	0.009187120678
0	11848	96.184174389249	0.050536695062
0	11853	96.234711084311	0.003578553746
0	11855	96.238289638057	0.018090279604
0	11863	96.256379917661	0.099454805983
0	11873	96.355834723644	0.06304083316
0	11881	96.418875556804	0.099630495094
0	11886	96.518506051898	0.095823709212
0	11896	96.61432976111	0.024292688822
0	11901	96.638622449932	0.017113676276
0	11906	96.655736126208	0.008810915307
0	11911	96.664547041515	0.009470730786
0	11916	96.674017772301	0.00250088322
0	11918	96.676518655521	0.044763797605
0	11929	96.721282453126	0.020400668881
0	11936	96.741683122007	0.179140645219
0	11941	96.920823767226	0.106799049262
0	11946	97.027622816488	0.027992503049
0	11951	97.055615319537	0.108376229849
0	11958	97.163991549386	0.004244945217
0	11960	97.168236494603	0.024508621998
0	11968	97.192745116601	0.009627469417
0	11973	97.202372586018	0.042571356833
0	11978	97.244943942851	0.067577346048
0	11985	97.312521288899	0.109031529619
0	11991	97.421552818518	0.003846956462
0	11993	97.42539977498	0.016589486806
0	12002	97.441989261786	0.026161830118
0	12007	97.468151091904	0.022671963372
0	12013	97.490823055276	0.029211784726
0	12019	97.520034840002	0.006811602752
0	12021	97.526846442754	0.120736444136
0	12030	97.64758288689	0.035061272802
0	12035	97.682644159692	0.002843865597
0	12037	97.685488025289	0.039866321864
0	12046	97.725354347153	0.001623552101
0	12048	97.726977899254	0.167616441943
0	12058	97.894594341197	0.117805741894
0	12065	98.012400083091	0.04189997528
0	12072	98.054300058371	0.031820595285
0	12078	98.086120653656	0.114283087995
0	12086	98.200403741651	0.007563384807
0	12091	98.207967126458	0.085691867775
0	12101	98.293658994233	0.074902760385
0	12106	98.368561754618	0.01809341742
0	12111	98.386655172038	0.018796938001
0	12116	98.405452110039	0.034264521148
0	12122	98.439716631187	0.050660090618
0	12128	98.490376721805	0.019409381813
0	12135	98.509786103618	0.043100778091
0	12142	98.552886881709	0.044783030735
0	12149	98.597669912444	0.010129127884
0	12154	98.607799040328	0.007592885189
0	12160	98.615391925517	0.097480147587
0	12166	98.712872073104	0.101799515144
0	12171	98.814671588248	0.027653963818
0	12177	98.842325552066	0.071308439121
0	12184	98.913633991187	0.069199026489
0	12189	98.982833017676	0.081909331901
0	12195	99.064742349577	0.130982483875
0	12201	99.195724833452	0.085724826574
0	12208	99.281449660026	0.019059715331
0	12213	99.300509375357	0.07555963923
0	12221	99.376069014587	0.085100316582
0	12228	99.461169331169	0.003970190738
0	12230	99.465139521907	0.047419917566
0	12238	99.512559439473	0.0447365298
0	12245	99.557295969273	0.014674825475
0	12250	99.571970794748	0.08451676617
0	12256	99.656487560918	0.060216715868
0	12262	99.716704276786	0.19523232655
0	12272	99.911936603336	0.006929323794
0	12274	99.91886592713	0.042237087614
0	12282	99.961103014744	0.026256518497
0	12289	99.987359533241	0.076543790763
0	12297	100.063903324004	0.005062978589
0	12299	100.068966302593	0.06802145629
0	12311	100.136987758883	0.008222453853
0	12316	100.145210212736	0.017458488268
0	12321	100.162668701004	0.018116077178
0	12327	100.180784778182	0.048739850188
0	12332	100.22952462837	0.065996240112
0	12338	100.295520868482	0.005567757387
0	12341	100.301088625869	0.00725822764
0	12346	100.308346853509	0.011192563619
0	12354	100.319539417128	0.150153747726
0	12361	100.469693164854	0.024334452682
0	12366	100.494027617536	0.024219856803
0	12373	100.518247474339	0.077104455546
0	12380	100.595351929885	0.015559796283
0	12386	100.610911726168	0.048817993763
0	12392	100.659729719931	0.013315822513
0	12398	100.673045542444	0.001290648737
0	12400	100.674336191181	0.020382033718
0	12408	100.694718224899	0.071167387027
0	12413	100.765885611926	0.017146717928
0	12418	100.783032329854	0.009576584509
0	12423	100.792608914363	0.006153950761
0	12425	100.798762865124	0.004216720106
0	12430	100.80297958523	0.01078830801
0	12435	100.81376789324	0.102264053197
0	12445	100.916031946437	0.101767498041
0	12452	101.017799444478	0.001526963663
0	12454	101.019326408141	0.050803415676
0	12464	101.070129823817	0.049998965591
0	12471	101.120128789408	0.014903085072
0	12476	101.13503187448	0.041968823216
0	12481	101.177000697696	0.113675545814
0	12486	101.29067624351	0.026379485867
0	12492	101.317055729377	0.061058274647
0	12498	101.378114004024	0.053892803592
0	12503	101.432006807616	0.022687300313
0	12509	101.454694107929	0.041316121377
0	12514	101.496010229306	0.20085430836
0	12523	101.696864537666	0.039022536705
0	12528	101.735887074371	0.015175961852
0	12534	101.751063036223	0.011412524667
0	12539	101.76247556089	0.028373190851
0	12545	101.790848751741	0.018721519085
0	12550	101.809570270826	0.035760364576
0	12555	101.845330635402	0.083035424768
0	12563	101.92836606017	0.12178213577
0	12572	102.05014819594	0.019536618332
0	12579	102.069684814272	0.039556386812
0	12584	102.109241201084	0.110161518592
0	12594	102.219402719676	0.068985638481
0	12601	102.288388358157	0.045012923107
0	12607	102.333401281264	0.006309750221
0	12609	102.339711031485	0.008459305146
0	12614	102.348170336631	0.101044911728
0	12623	102.449215248359	0.020114129522
0	12630	102.469329377881	0.177855944216
0	12636	102.647185322097	0.03463424522
0	12643	102.681819567317	0.109560104937
0	12649	102.791379672254	0.09341386037
0	12656	102.884793532624	0.011642336032
0	12661	102.896435868656	0.040888631323
0	12666	102.937324499979	0.139056223286
0	12674	103.076380723265	0.035508638203
0	12680	103.111889361468	0.018871586597
0	12685	103.130760948065	0.033759983483
0	12691	103.164520931548	0.002754350397
0	12693	103.167275281945	0.152790063275
0	12706	103.32006534522	0.002764990473
0	12708	103.322830335693	0.020775326935
0	12717	103.343605662628	0.183614444921
0	12726	103.527220107549	0.010791913485
0	12731	103.538012021034	0.029991410086
0	12737	103.56800343112	0.056204810563
0	12743	103.624208241683	0.125414872573
0	12750	103.749623114256	0.113501503185
0	12757	103.863124617441	0.00185812028
0	12759	103.864982737721	0.030665311609
0	12768	103.89564804933	0.070913458655
0	12773	103.966561507985	0.032665164064
0	12778	103.999226672049	0.007364158611
0	12782	104.00659083066	0.04289158877
0	12790	104.04948241943	0.018348340944
0	12796	104.067830760374	0.170207754187
0	12806	104.238038514561	0.029774531512
0	12813	104.267813046073	0.010290792682
0	12818	104.278103838755	0.089013114974
0	12824	104.367116953729	0.127991273164
0	12833	104.495108226893	0.103439038146
0	12842	104.598547265039	0.005875588594
0	12844	104.604422853633	0.062710633203
0	12852	104.667133486836	0.107544754186
0	12861	104.774678241022	0.019591494157
0	12866	104.794269735179	0.022647620274
0	12873	104.816917355453	0.086837996544
0	12880	104.903755351997	0.042989934655
0	12886	104.946745286652	0.012038218986
0	12891	104.958783505638	0.027027985782
0	12897	104.98581149142	0.044023224965
0	12902	105.029834716385	0.067834745655
0	12910	105.09766946204	0.001497189761
0	12912	105.099166651801	0.059038075885
0	12921	105.158204727686	0.105381586739
0	12930	105.263586314425	0.00058688343
0	12932	105.264173197855	0.050557781885
0	12940	105.31473097974	0.02423880987
0	12947	105.33896978961	0.013891272047
0	12952	105.352861061657	0.105126142322
0	12957	105.457987203979	0.022013153423
0	12963	105.480000357402	0.068564180639
0	12968	105.548564538041	0.034210945445
0	12973	105.582775483486	0.010104944703
0	12978	105.592880428189	0.078216002116
0	12985	105.671096430305	0.03453282835
0	12990	105.705629258655	0.03340575475
0	12996	105.739035013405	0.113553373395
0	13004	105.8525883868	0.054074391436
0	13010	105.906662778236	0.016910936215
0	13016	105.923573714451	0.000359490984
0	13018	105.923933205435	0.050444492479
0	13027	105.974377697914	0.015713961305
0	13033	105.990091659219	0.109776476552
0	13041	106.099868135771	0.057793142953
0	13046	106.157661278724	0.144351533733
0	13052	106.302012812457	0.2721145099
0	13066	106.574127322357	0.025814849792
0	13072	106.599942172149	0.039892188109
0	13079	106.639834360258	0.019034524369
0	13084	106.658868884627	0.012834878961
0	13089	106.671703763588	0.061439062767
0	13095	106.733142826355	0.054545744961
0	13101	106.787688571316	0.048866209601
0	13106	106.836554780917	0.120488805363
0	13114	106.95704358628	0.049545888931
0	13120	107.006589475211	0.075171554316
0	13125	107.081761029527	0.113601579134
0	13132	107.195362608661	0.007039980231
0	13134	107.202402588892	0.083684941684
0	13143	107.286087530576	0.021472079259
0	13149	107.307559609835	0.027049238764
0	13156	107.334608848599	0.022690810796
0	13161	107.357299659395	0.04863825485
0	13172	107.405937914245	0.136285616886
0	13180	107.542223531131	0.022732787043
0	13185	107.564956318174	0.024324553822
0	13190	107.589280871996	0.040020469037
0	13196	107.629301341033	0.035975649126
0	13204	107.665276990159	0.042370824123
0	13211	107.707647814282	0.022667355238
0	13217	107.73031516952	0.071965635435
0	13226	107.802280804955	0.20041870654
0	13237	108.002699511495	0.085458357125
0	13248	108.08815786862	0.010672515462
0	13253	108.098830384082	0.013724783252
0	13258	108.112555167334	0.008040148376
0	13263	108.12059531571	0.001923609663
0	13265	108.122518925373	0.021096992038
0	13273	108.143615917411	0.006368607144
0	13275	108.149984524555	0.003439425244
0	13280	108.153423949799	0.039063998483
0	13289	108.192487948282	0.067742999104
0	13297	108.260230947386	0.032214901439
0	13305	108.292445848825	0.00377924036
0	13307	108.296225089185	0.010950132739
0	13315	108.307175221924	0.082557672634
0	13323	108.389732894558	0.032274468479
0	13328	108.422007363037	0.154430520651
0	13334	108.576437883688	0.062136569261
0	13342	108.638574452949	0.036772895257
0	13348	108.675347348206	0.02849858359
0	13353	108.703845931796	0.093507879696
0	13362	108.797353811492	0.02012318709
0	13368	108.817476998582	0.051298939165
0	13374	108.868775937747	0.115568866829
0	13387	108.984344804576	0.017522461228
0	13393	109.001867265804	0.066843910586
0	13401	109.06871117639	0.079614493347
0	13409	109.148325669737	0.058251340705
0	13416	109.206577010442	0.166806338317
0	13429	109.373383348759	0.046420648479
0	13434	109.419803997238	0.110214868765
0	13444	109.530018866003	0.08861795006
0	13453	109.618636816063	0.019812765916
0	13458	109.638449581979	0.065388573095
0	13464	109.703838155074	0.033837552264
0	13470	109.737675707338	0.028080977885
0	13476	109.765756685223	0.00198667849
0	13478	109.767743363713	0.00841151839
0	13483	109.776154882103	0.060226727627
0	13492	109.83638160973	0.010762036261
0	13498	109.847143645991	0.015074154699
0	13504	109.86221780069	0.03963620868
0	13509	109.90185400937	0.026174458131
0	13516	109.928028467501	0.01379555982
0	13523	109.941824027321	0.02172176461
0	13528	109.963545791931	0.029219206596
0	13534	109.992764998527	0.005043283125
0	13536	109.997808281652	0.0707007113
0	13547	110.068508992952	0.005554066819
0	13549	110.074063059771	0.034624285131
0	13559	110.108687344902	0.063769783159
0	13566	110.172457128061	0.085738161965
0	13574	110.258195290026	0.034428024492
0	13579	110.292623314518	0.55693822094
0	13602	110.849561535458	0.053038369232
0	13609	110.90259990469	0.014069124757
0	13614	110.916669029447	0.045216926323
0	13620	110.96188595577	0.026207823083
0	13626	110.988093778853	0.026624829241
0	13632	111.014718608094	0.024057619966
0	13637	111.03877622806	0.006765514845
[...]
24	16770	136.769720409914	9828
24	16775	136.802575856078	9836
24	16781	136.861346466914	9276
24	16788	136.891550964472	8940
24	16791	136.899380942101	8852
24	16799	136.929912878799	8648
24	16805	136.970396468415	8655
24	16817	137.134212441502	8685
24	16823	137.188281791078	8695
24	16829	137.214142017975	8699
24	16836	137.306591586714	8716
24	16841	137.331753948013	8721
24	16847	137.354662838686	8725
24	16856	137.527721276491	8776
24	16863	137.610120254945	8800
24	16868	137.645872887481	8810
24	16871	137.65381840394	8813
24	16879	137.71241683936	8830
24	16884	137.755052777308	8842
24	16889	137.77058428004	8847
24	16894	137.778981543772	8849
24	16899	137.822915799841	8862
24	16902	137.830814693996	8864
24	16917	138.033808589053	8835
24	16923	138.068219191757	8826
24	16932	138.190223037142	8796
24	16937	138.207453005137	8792
24	16943	138.241199088399	8783
24	16950	138.256841519765	8775
24	16955	138.283855128631	8371
24	16963	138.329587393073	8546
24	16968	138.342920440667	8575
24	16975	138.359192233404	8611
24	16981	138.373472494418	8643
24	16987	138.394875570458	8690
24	16992	138.407853030534	8719
24	16997	138.429319030571	8766
24	17005	138.469603593984	8855
24	17012	138.509311325751	8943
24	17017	138.537105641991	9005
24	17026	138.675865067895	8892
24	17031	138.683737312609	8821
24	17034	138.691672920817	8750
24	17042	138.716550929915	8528
24	17048	138.735328575461	8383
24	17055	138.799179071809	8498
24	17062	138.857879431869	8603
24	17070	139.031066690281	8912
24	17075	139.047745195564	8942
24	17080	139.060758222668	8965
24	17087	139.161245481361	9145
24	17092	139.232065739714	9272
24	17097	139.248071364915	9300
24	17103	139.310697276647	9412
24	17108	139.319871859088	9429
24	17116	139.453615585575	9668
24	17119	139.460855966212	9681
24	17126	139.475220343085	9707
24	17134	139.534203448564	9657
24	17141	139.613488877758	9354
24	17144	139.620972307307	9351
24	17156	139.69054925858	9320
24	17161	139.727315694216	9303
24	17166	139.751852555609	9292
24	17171	139.759385917641	9289
24	17174	139.766921712667	9285
24	17181	139.792283205588	9274
24	17188	139.871542523237	9238
24	17193	139.891314846521	9229
24	17198	139.946237849485	9205
24	17203	139.994388529166	9183
24	17206	140	9180
24	17749	144	8986
24	18284	148	9327
24	18291	148.154676432829	9392
24	18300	148.162129584447	9395
24	18303	148.169580356134	9398
24	18306	148.177028749409	9401
24	18309	148.18447476579	9404
24	18316	148.276123896997	9442
24	18320	148.283537580539	9445
24	18333	148.381192731939	9485
24	18341	148.458825573634	9516
24	18347	148.515162267217	9539
24	18353	148.569906394941	9562
24	18356	148.577227039158	9565
24	18365	148.599215537512	9574
24	18370	148.610405578524	9578
24	18375	148.638936920573	9590
24	18382	148.714346159867	9621
24	18390	148.830996994094	9668
24	18393	148.838237374731	9671
24	18402	148.975520501081	9728
24	18407	149.030006787571	9750
24	18412	149.03718627475	9753
24	18416	149.044363553536	9756
24	18424	149.119684554232	9786
24	18429	149.17657308113	9810
24	18435	149.259992997402	9844
24	18440	149.275105587655	9850
24	18452	149.596330927779	8865
24	18457	149.678860031832	8656
24	18463	149.714187208192	8567
24	18468	149.757717031596	8457
24	18473	149.801425634576	8347
24	18478	149.819443933932	8301
24	18484	149.886260104779	8245
24	18492	149.945333050024	8240
24	18498	149.997531042773	8236
24	18506	150.006030314264	8236
24	18511	150.014529585755	8235
24	18514	150.023029889337	8234
24	18517	150.031531225261	8234
24	18522	150.040032561185	8233
24	18529	150.095842549038	8228
24	18536	150.147003302807	8224
24	18539	150.155514975959	8224
24	18548	150.213513031215	8219
24	18554	150.30902886324	8212
24	18565	150.513729026101	8845
24	18570	150.524916688638	8813
24	18575	150.536201276514	8781
24	18580	150.576276086973	8667
24	18586	150.596473454361	8609
24	18593	150.655002761193	8442
24	18600	150.67506943816	8385
24	18604	150.683417679066	8361
24	18609	150.691789883348	8337
24	18617	150.712159779443	8279
24	18622	150.722055286547	8251
24	18625	150.73053910669	8226
24	18631	150.739048710386	8201
24	18639	150.807513310546	8193
24	18642	150.816057189467	8226
24	18647	150.824566793163	8258
24	18657	150.928229383125	8652
24	18662	150.950630633219	8738
24	18667	150.962239756466	8782
24	18676	151.142400460076	8990
24	18681	151.16610457491	8978
24	18686	151.192211407012	8964
24	18693	151.311302948812	8901
24	18699	151.320715079538	8896
24	18708	151.459940681214	8907
24	18714	151.511686715179	8962
24	18722	151.643820859429	9074
24	18728	151.665403284401	9073
24	18735	151.74619544966	9070
24	18744	151.882053668339	9065
24	18750	151.932621473681	9064
24	18756	151.964124788344	9062
24	18764	152	9061
24	19287	156	8118
24	19702	160	8375
24	20265	164	9907
24	20268	164.025244970837	9908
24	20275	164.097718503005	9910
24	20280	164.170140054483	9912
24	20287	164.213930086603	9914
24	20292	164.260239991783	9915
24	20299	164.321880917432	9917
24	20304	164.347854937056	9918
24	20309	164.378607541848	9919
24	20312	164.385664704868	9919
24	20319	164.40244504182	9920
24	20324	164.439495228403	9921
24	20331	164.504664143955	9923
24	20334	164.511718462206	9923
24	20342	164.523001313218	9923
24	20345	164.530055631469	9923
24	20353	164.570093847348	9925
24	20358	164.600679698577	9926
24	20367	164.720349256806	9929
24	20372	164.743026537167	9930
24	20379	164.867818262227	9934
24	20386	164.941800899215	9936
24	20389	164.948845987782	9936
24	20396	164.963870660413	9937
24	20401	164.987790687721	9937
24	20404	164.994835067312	9938
24	20411	165.00328585796	9938
24	20417	165.018635988312	9938
24	20425	165.152371934729	9942
24	20433	165.245941999395	9945
24	20438	165.277328549415	9946
24	20443	165.329129018483	9948
24	20451	165.485892315245	9953
24	20457	165.658236414804	9958
24	20462	165.673840465513	9958
24	20468	165.765274498539	9961
24	20473	165.791399051526	9962
24	20478	165.847423500392	9964
24	20483	165.901371553243	9965
24	20490	165.93209597568	9966
24	20496	165.955840040718	9967
24	20501	166.01471434646	9969
24	20512	166.352255820908	9979
24	20519	166.469700743339	9983
24	20524	166.483981340004	9983
24	20532	166.558796770848	9985
24	20537	166.592656368625	9986
24	20542	166.721487394915	9990
24	20547	166.763325562445	9991
24	20552	166.776977989691	9992
24	20557	166.801742450133	9993
24	20563	166.879752958036	9995
24	20566	166.886756459787	9995
24	20575	166.912191730208	9988
24	20578	166.9192001403	9985
24	20585	166.986336992854	9954
24	20590	167.023775048428	9937
24	20596	167.116549900726	9895
24	20599	167.123624180665	9891
24	20606	167.154926402707	9877
24	20609	167.162013574925	9874
24	20616	167.23654861303	9840
24	20621	167.314054278305	9805
24	20627	167.370028546601	9779
24	20634	167.406002950693	9763
24	20641	167.638113311764	9657
24	20649	167.737723729759	9611
24	20655	167.780537893111	9592
24	20661	167.801781806293	9582
24	20667	167.918401016792	9368
24	20673	168	8825
24	21083	172	8499
24	21542	176	8567
24	21929	180	8871
24	22363	184	8204
24	22890	188	8361
24	23386	192	8653
24	23848	196	8366
24	24344	200	9709
24	24832	204	8466
24	25350	208	8855
24	25904	212	8731
24	26387	216	8886
24	26832	220	8275
24	27335	224	8485
24	27798	228	8321
24	28309	232	9185
24	28898	236	9603
24	28901	236.021146191484	9614
24	28907	236.062418271202	9635
24	28912	236.071553993352	9640
24	28917	236.084385149624	9646
24	28924	236.152094322471	9682
24	28935	236.285274531771	9751
24	28941	236.347223890385	9783
24	28946	236.358193794736	9789
24	28952	236.368460932749	9767
24	28957	236.389028034311	9695
24	28962	236.413536203419	9610
24	28969	236.462291367756	9487
24	28974	236.505435927034	9411
24	28980	236.580591964064	9278
24	28986	236.685131311332	9094
24	28991	236.725193641356	9023
24	28997	236.776818973481	8932
24	29002	236.803526935363	8885
24	29007	236.815581009363	8864
24	29010	236.823478121276	8850
24	29019	236.908943328973	8699
24	29024	236.918494496029	8682
24	29030	236.936602149785	8650
24	29035	236.95220431386	8623
24	29040	237.017111464171	8508
24	29052	237.362085727588	8076
24	29061	237.39480330185	8093
24	29067	237.405444842167	8099
24	29072	237.423952635949	8109
24	29078	237.459470826483	8128
24	29087	237.611763592165	8208
24	29093	237.687132504126	8248
24	29102	237.736816472839	8274
24	29108	237.829984643503	8323
24	29111	237.838395072435	8328
24	29118	237.872827432963	8346
24	29123	237.949696889175	8386
24	29127	237.958044134584	8391
24	29134	237.990240938092	8408
24	29139	238.014399267869	8421
24	29142	238.022711819822	8425
24	29150	238.071626755854	8451
24	29155	238.097006449749	8464
24	29160	238.156684955495	8496
24	29166	238.215154684244	8527
24	29171	238.239878606742	8540
24	29177	238.293894147808	8568
24	29184	238.427088146636	8505
24	29189	238.448485729051	8480
24	29194	238.474390271019	8450
24	29200	238.517818889953	8400
24	29207	238.575067616876	8334
24	29212	238.590185776886	8316
24	29223	238.718020571145	9494
24	29231	238.726700625753	9525
24	29234	238.734049707118	9551
24	29242	238.813645724828	9829
24	29250	238.986853453997	9329
24	29256	239.011694634597	9234
24	29262	239.121873242354	8817
24	29267	239.143859654185	8734
24	29273	239.233563633802	8395
24	29279	239.292173017573	8399
24	29288	239.542785516792	8893
24	29294	239.660434708466	9125
24	29299	239.716729719336	9236
24	29304	239.730141059735	9263
24	29310	239.795881212767	9392
24	29315	239.807103990844	9415
24	29320	239.839451949264	9478
24	29323	239.846837473636	9493
24	29331	239.88878737654	9576
24	29338	239.921761264602	9579
24	29345	239.971656641982	9533
24	29350	239.98089155662	9524
24	29353	239.988241409623	9518
24	29360	239.99559589586	9511
24	29363	240	9507
24	29759	244	9687
24	29763	244.007720460435	9688
24	29769	244.106725648018	9699
24	29772	244.113942886909	9700
24	29788	244.283434642921	9719
24	29797	244.43839346105	9737
24	29803	244.473526255267	9741
24	29817	244.660374462048	9753
24	29822	244.673083856976	9746
24	29828	244.736192799483	9710
24	29837	244.893717458702	9620
24	29842	244.926307933411	9602
24	29848	244.933598081297	9598
24	29851	244.940891267377	9594
24	29861	245.024746607707	9546
24	29866	245.041577347223	9537
24	29871	245.069753549949	9521
24	29874	245.077105718839	9516
24	29882	245.187757710764	9454
24	29887	245.208525622201	9442
24	29897	245.341789080519	9366
24	29903	245.380393212159	9344
24	29908	245.40842001903	9328
24	29917	245.490743343115	9282
24	29926	245.550655600759	9248
24	29929	245.558224804911	9243
24	29937	245.587229271255	9227
24	29942	245.598979376577	9220
24	29949	245.672644270178	9178
24	29957	245.706865246661	9159
24	29963	245.75252137351	9133
24	29968	245.806302251084	9102
24	29971	245.813992868531	9098
24	29978	245.865069453507	9069
24	29984	245.889948833767	9055
24	29987	245.897679369383	9051
24	29997	245.918097924897	9039
24	30009	246.018132923299	8982
24	30014	246.065124679249	8956
24	30024	246.105564730114	8967
24	30030	246.129563740343	8980
24	30036	246.163456440904	8997
24	30039	246.171236812139	9002
24	30054	246.40255883542	9064
24	30060	246.464705680036	8917
24	30065	246.477370597155	8887
24	30077	246.558559668455	8695
24	30083	246.568811145159	8671
24	30090	246.62705506999	8541
24	30095	246.6375612713	8537
24	30100	246.650128608309	8532
24	30106	246.68678461477	8518
24	30116	246.83196432443	8463
24	30129	247.03367335137	8390
24	30132	247.042016617163	8387
24	30139	247.075033232565	8375
24	30144	247.137856323961	8352
24	30147	247.146237550015	8349
24	30159	247.219642766214	8322
24	30164	247.238204276532	8316
24	30179	247.431975823558	8246
24	30184	247.441393561652	8242
24	30193	247.511236362043	8217
24	30198	247.525076796498	8212
24	30204	247.616883208315	8179
24	30211	247.640576974064	8170
24	30220	247.755304125733	8129
24	30225	247.78677278426	8117
24	30230	247.797342846165	8114
24	30235	247.810714657255	8109
24	30242	247.83537252691	8100
24	30249	247.866567851445	8088
24	30252	247.875222648675	8085
24	30261	248	8040
24	30720	252	8754
24	31190	256	9136
24	31753	260	8522
24	32281	264	9069
24	32748	268	9377
24	33147	272	9897
24	33152	272.083251086315	9832
24	33160	272.157397453474	9602
24	33166	272.2616363099	9180
24	33171	272.294483045141	9047
24	33177	272.345672415335	8839
24	33183	272.38529305859	8678
24	33188	272.466236013289	8350
24	33191	272.474619246822	8316
24	33200	272.566262100107	8321
24	33205	272.598964103926	8333
24	33209	272.607364439939	8337
24	33220	272.675661648984	8364
24	33225	272.726204604413	8383
24	33230	272.795619517618	8411
24	33239	272.885983078451	8446
24	33244	272.896997771251	8450
24	33249	272.925075519756	8461
24	33257	273.055590344175	8513
24	33263	273.125812616626	8540
24	33268	273.161938403417	8554
24	33274	273.17696982696	8560
24	33280	273.219692727713	8577
24	33285	273.24945262678	8589
24	33291	273.35808207997	8631
24	33296	273.369697457822	8636
24	33301	273.384823058955	8642
24	33306	273.413394905523	8653
24	33311	273.445871820186	8666
24	33318	273.470135968885	8610
24	33326	273.573563053887	8670
24	33333	273.637882246115	8733
24	33339	273.730553569401	8824
24	33343	273.738486479646	8832
24	33350	273.880956683306	8972
24	33357	274.012110878012	9101
24	33363	274.032368238454	9121
24	33372	274.234760102173	9320
24	33377	274.24743355902	9333
24	33380	274.254933826887	9340
24	33388	274.276150874549	9361
24	33393	274.336690973031	9421
24	33398	274.344121182138	9428
24	33401	274.351545874544	9435
24	33408	274.358965058434	9443
24	33411	274.366377956877	9450
24	33418	274.44061958649	9523
24	33423	274.517569477117	9599
24	33429	274.56539972569	9646
24	33436	274.616047278311	9684
24	33443	274.732796461618	9708
24	33451	274.819182462707	9725
24	33464	275.118139958979	9493
24	33470	275.178277735937	9407
24	33475	275.301875069417	9230
24	33480	275.321344343592	9202
24	33486	275.354049719429	9155
24	33492	275.378295586702	9120
24	33502	275.656979813769	8721
24	33510	275.739116570367	9629
24	33517	275.835961357	9596
24	33522	275.848132564993	9592
24	33529	275.868523489739	9585
24	33535	275.885397392661	9579
24	33544	275.969104153439	9550
24	33549	275.980931889093	9546
24	33554	275.996225256154	9541
24	33555	276	9539
24	33561	276.008596619011	9537
24	33566	276.020112137106	9533
24	33572	276.052876465488	9521
24	33575	276.060228634378	9519
24	33584	276.092376784351	9508
24	33589	276.103765186216	9504
24	33595	276.149517392151	9488
24	33601	276.244749487019	9455
24	33607	276.330447877907	9426
24	33610	276.337874145677	9423
24	33619	276.359772291554	9416
24	33624	276.375209662067	9410
24	33629	276.428732780422	9392
24	33634	276.438752432349	9388
24	33639	276.467262935768	9379
24	33646	276.550429741294	9350
24	33653	276.596103454051	9334
24	33662	276.690133715218	9302
24	33667	276.771660646903	9274
24	33672	276.818489234165	9258
24	33677	276.826297602356	9255
24	33682	276.846390485825	9248
24	33685	276.853959689977	9246
24	33692	276.872338269281	9239
24	33697	276.895247601368	9231
24	33702	276.926985734136	9220
24	33707	276.962964108758	9208
24	33711	276.970566193901	9205
24	33719	277.021525012443	9188
24	33725	277.07531660062	9173
24	33730	277.085044338199	9172
24	33737	277.098827355451	9169
24	33745	277.169293151869	9154
24	33750	277.190195292884	9150
24	33755	277.230107155018	9142
24	33760	277.264043828097	9135
24	33765	277.297230027963	9128
24	33770	277.322523873382	9123
24	33773	277.330196787993	9122
24	33778	277.337870543748	9120
24	33785	277.470634645248	9093
24	33794	277.613955331103	9064
24	33800	277.638197274825	9059
24	33803	277.645924397024	9057
24	33808	277.653653225554	9056
24	33817	277.732166047622	9040
24	33825	277.778595270756	9030
24	33830	277.830420185347	9020
24	33836	277.932773071519	8999
24	33839	277.94055171359	8997
24	33846	278.022837483594	8980
24	33851	278.057077505662	8973
24	33856	278.067853233684	8971
24	33861	278.076221389271	8970
24	33867	278.142027033612	8956
24	33872	278.153310269554	8954
24	33879	278.213872027762	8941
24	33884	278.228013505886	8939
24	33887	278.235844359449	8937
24	33894	278.266789261399	8931
24	33900	278.364378091621	8911
24	33907	278.381139066163	9015
24	33911	278.388903902547	9351
24	33920	278.417077607396	9293
24	33927	278.482026951969	9160
24	33931	278.489668873366	9144
24	33936	278.497324166454	9129
24	33943	278.514771858908	9093
24	33949	278.60606194823	8905
24	33954	278.644995430974	8826
24	33960	278.66665055775	8781
24	33965	278.804695695053	8498
24	33970	278.881602794378	8340
24	33975	278.910263793945	8281
24	33984	278.93503096134	8310
24	33989	278.943454547381	8352
24	33993	278.951835773435	8394
24	34001	278.987634821433	8573
24	34006	279.000496738044	8637
24	34013	279.014845718418	8679
24	34016	279.022911163746	8679
24	34023	279.033078450062	8679
24	34026	279.04114389539	8679
24	34037	279.159601097005	8677
24	34043	279.250933108038	8675
24	34049	279.337575559222	8674
24	34055	279.440685854789	8672
24	34063	279.490870498737	8671
24	34068	279.512103801783	8671
24	34078	279.688728951174	8668
24	34088	279.825614428502	8665
24	34094	279.857340562293	8665
24	34099	279.946667508015	8663
24	34102	279.954747849698	8663
24	34109	279.962828191381	8663
24	34112	279.970908533064	8663
24	34121	279.997769278438	8662
24	34122	280	8662
24	34707	284	9337
24	35267	288	8410
24	35757	292	9082
24	36132	296	9359
24	36563	300	9122
24	37016	304	9251
24	37535	308	8336
24	37988	312	9450
24	38542	316	8744
24	38987	320	8161
24	39569	324	9619
24	40129	328	9641
24	40132	328.014248113618	9654
24	40139	328.043128839215	9592
24	40145	328.060729813427	9473
24	40151	328.121488159247	9063
24	40157	328.195018939331	8566
24	40173	328.518143055682	8459
24	40179	328.667818597283	8683
24	40184	328.704173785155	8738
24	40189	328.716462830689	8756
24	40194	328.747614883814	8803
24	40197	328.755566718416	8814
24	40202	328.763508629013	8826
24	40210	328.821707335577	8913
24	40215	328.859754120956	8970
24	40221	328.867637771942	8982
24	40224	328.875431136449	8994
24	40232	328.937032008802	9086
24	40237	328.954852980055	9113
24	40242	328.975645559724	9144
24	40246	328.983300852812	9155
24	40254	329.044572467339	9247
24	40259	329.073539367751	9290
24	40262	329.081074351605	9302
24	40267	329.088599614989	9313
24	40275	329.117194184551	9356
24	40282	329.308390317239	9642
24	40289	329.458816543708	9755
24	40292	329.465992350986	9744
24	40299	329.477551979177	9727
24	40305	329.532330327352	9647
24	40312	329.5692656584	9592
24	40319	329.628657031238	9505
24	40324	329.64883454952	9475
24	40329	329.656869903612	9463
24	40335	329.688479864234	9417
24	40340	329.712479466425	9381
24	40347	329.771508892616	9337
24	40353	329.802301615716	9318
24	40359	329.814927433146	9310
24	40362	329.822446230138	9305
24	40367	329.829969067322	9300
24	40376	329.884186238964	9265
24	40384	329.957970106355	9218
24	40391	330.034252033199	9169
24	40399	330.176928734192	9077
24	40405	330.205042011733	9059
24	40410	330.226786961179	9045
24	40414	330.234526043545	9040
24	40421	330.243044617227	9035
24	40426	330.280075236169	9011
24	40433	330.329224638558	8979
24	40438	330.379120078938	8947
24	40443	330.388377383059	8941
24	40446	330.396206484949	8936
24	40455	330.4375057526	8910
24	40461	330.470975201564	8888
24	40467	330.541824602556	8843
24	40472	330.604067699586	8803
24	40478	330.731279790311	8721
24	40483	330.82879443159	8659
24	40488	330.854294748181	8642
24	40493	330.883293009056	8624
24	40498	330.899923369539	8613
24	40504	330.980632142562	8561
24	40514	331.085172997537	8603
24	40520	331.199287306685	8984
24	40526	331.251739611761	9160
24	40532	331.300454795858	9323
24	40538	331.321655414056	9394
24	40544	331.469157857279	9887
24	40551	331.545515602755	9895
24	40556	331.611786254105	9786
24	40561	331.619702356814	9773
24	40568	331.734007007186	9585
24	40571	331.741310084912	9573
24	40579	331.785447024955	9500
24	40586	331.847906546137	9397
24	40592	331.90477322103	9304
24	40597	331.95623204551	9219
24	40603	332	9147
24	41029	336	8595
24	41519	340	8769
24	42048	344	9269
24	42525	348	9263
24	42994	352	9044
24	43428	356	9340
24	43934	360	8519
24	44448	364	8911
24	44955	368	8427
24	45491	372	8648
24	45886	376	8093
24	46399	380	8994
24	46875	384	9136
24	47314	388	9823
24	47723	392	9090
24	48155	396	9436
24	48682	400	9194

