version 2
run Exponential-capacity-11-20210216-20:01:18-4940
attr configname Exponential-capacity
attr datetime 20210216-20:01:18
attr experiment Exponential-capacity
attr inifile aerocom.ini
attr iterationvars "$0=35, $1=0.5"
attr iterationvarsf 35,0.5-
attr measurement "$0=35, $1=0.5"
attr network Aerocom
attr processid 4940
attr repetition 0
attr replication #0
attr resultdir results
attr runnumber 11
attr seedset 0
param **.t 1s
param **.k 35ms
param **.X 50ms
param **.m 0.5s
param **.tDistribution "\"exponential\""
param **.operationMode 0
param **.s "70 byte"
param **.dimPoolMax 10000
param **.dimPoolMin 8000
param **.nDL 10
param **.nA 1
param **.DLMaxCapacity 0
param **.trasmitting false

vector 0 Aerocom.aircraft[0].dataLink[0] actualCapacity:vector ETV
attr "" ""
attr source computeActualCapacity
vector 1 Aerocom.aircraft[0].dataLink[1] actualCapacity:vector ETV
attr "" ""
attr source computeActualCapacity
vector 2 Aerocom.aircraft[0].dataLink[2] actualCapacity:vector ETV
attr "" ""
attr source computeActualCapacity
vector 3 Aerocom.aircraft[0].dataLink[3] actualCapacity:vector ETV
attr "" ""
attr source computeActualCapacity
vector 4 Aerocom.aircraft[0].dataLink[4] actualCapacity:vector ETV
attr "" ""
attr source computeActualCapacity
vector 5 Aerocom.aircraft[0].dataLink[5] actualCapacity:vector ETV
attr "" ""
attr source computeActualCapacity
vector 6 Aerocom.aircraft[0].dataLink[6] actualCapacity:vector ETV
attr "" ""
attr source computeActualCapacity
vector 7 Aerocom.aircraft[0].dataLink[7] actualCapacity:vector ETV
attr "" ""
attr source computeActualCapacity
vector 8 Aerocom.aircraft[0].dataLink[8] actualCapacity:vector ETV
attr "" ""
attr source computeActualCapacity
vector 9 Aerocom.aircraft[0].dataLink[9] actualCapacity:vector ETV
attr "" ""
attr source computeActualCapacity
vector 10 Aerocom.aircraft[0].packetGenerator arrivalTime:vector ETV
attr "" ""
attr source computeArrivalTime
vector 11 Aerocom.aircraft[0].linkSelector waitingTime:vector ETV
attr "" ""
attr source computeWaitingTime
vector 12 Aerocom.aircraft[0].linkSelector queueLength:vector ETV
attr "" ""
attr source computeQueueLength
vector 13 Aerocom.aircraft[0].linkSelector serviceTime:vector ETV
attr "" ""
attr source computeServiceTime
vector 14 Aerocom.aircraft[0].linkSelector responseTime:vector ETV
attr "" ""
attr source computeResponseTime
vector 15 Aerocom.aircraft[0].dataLink[4] tDistribution:vector ETV
attr "" ""
attr source computeTDistribution
vector 16 Aerocom.aircraft[0].dataLink[5] tDistribution:vector ETV
attr "" ""
attr source computeTDistribution
vector 17 Aerocom.aircraft[0].dataLink[0] tDistribution:vector ETV
attr "" ""
attr source computeTDistribution
vector 18 Aerocom.aircraft[0].dataLink[3] tDistribution:vector ETV
attr "" ""
attr source computeTDistribution
vector 19 Aerocom.aircraft[0].dataLink[8] tDistribution:vector ETV
attr "" ""
attr source computeTDistribution
vector 20 Aerocom.aircraft[0].dataLink[9] tDistribution:vector ETV
attr "" ""
attr source computeTDistribution
vector 21 Aerocom.aircraft[0].dataLink[6] tDistribution:vector ETV
attr "" ""
attr source computeTDistribution
vector 22 Aerocom.aircraft[0].dataLink[1] tDistribution:vector ETV
attr "" ""
attr source computeTDistribution
vector 23 Aerocom.aircraft[0].dataLink[7] tDistribution:vector ETV
attr "" ""
attr source computeTDistribution
vector 24 Aerocom.aircraft[0].dataLink[2] tDistribution:vector ETV
attr "" ""
attr source computeTDistribution
0	1642	10	8687
0	1707	10.5	8843
0	1753	11	8947
0	1838	11.5	9052
0	1918	12	9044
0	2043	12.5	8993
0	2118	13	8943
0	2164	13.5	8892
0	2245	14	8842
0	2319	14.5	8791
0	2418	15	8891
0	2492	15.5	8248
0	2573	16	8506
0	2636	16.5	8824
0	2736	17	9057
0	2843	17.5	9290
0	2938	18	9523
0	3032	18.5	9268
0	3107	19	9369
0	3110	19.066302048369	9387
0	3115	19.120517457139	9402
0	3120	19.193721937181	9421
0	3125	19.226363352115	9430
0	3130	19.24080889745	9434
0	3135	19.249433451227	9436
0	3142	19.363495685428	9467
0	3147	19.38475046053	9473
0	3152	19.393975659479	9476
0	3157	19.467856766582	9495
0	3161	19.5	9504
0	3213	20	9639
0	3219	20.051367734044	9653
0	3224	20.070728482543	9658
0	3233	20.136882041976	9668
0	3238	20.144445409557	9668
0	3243	20.178115826988	9672
0	3251	20.230064313881	9677
0	3254	20.235353213258	9677
0	3265	20.358618704027	9690
0	3270	20.373547457448	9691
0	3279	20.442943669109	9698
0	3282	20.450161652198	9699
0	3289	20.5	9704
0	3292	20.50161777496	9704
0	3300	20.641896012881	9718
0	3306	20.7889610928	9732
0	3312	20.811738999783	9735
0	3317	20.860762649177	9740
0	3322	20.884840670923	9742
0	3325	20.892026053801	9743
0	3333	20.920689190247	9746
0	3338	20.931679116679	9747
0	3343	20.947771812801	9748
0	3348	20.966268165792	9750
0	3352	20.973447652971	9751
0	3359	20.990986310548	9753
0	3363	21	9753
0	3429	21.5	9803
0	3434	21.55	9808
0	3435	21.557137030995	9809
0	3443	21.640856482048	9817
0	3449	21.69529178466	9823
0	3454	21.778255349981	9831
0	3459	21.796804005256	9833
0	3464	21.848864046658	9838
0	3469	21.864444273537	9839
0	3474	21.878625674419	9841
0	3480	21.896475353604	9843
0	3483	21.903587006555	9843
0	3490	21.912010922495	9844
0	3495	21.930314790373	9846
0	3501	21.98255691612	9851
0	3507	21.991806382365	9852
0	3511	22	9853
0	3515	22.083036395446	9861
0	3518	22.09013506698	9862
0	3525	22.101783372734	9863
0	3528	22.108880604813	9864
0	3536	22.210625223038	9700
0	3541	22.255885398096	9620
0	3546	22.263161905373	9607
0	3549	22.270448259073	9594
0	3556	22.283464121494	9571
0	3561	22.334991267024	9480
0	3566	22.347704744686	9458
0	3569	22.355105886576	9445
0	3576	22.428320897232	9315
0	3579	22.43583565837	9302
0	3584	22.443360921754	9289
0	3589	22.45089671678	9275
0	3596	22.484202887667	9217
0	3600	22.5	9189
0	3700	23	8558
0	3811	23.5	8871
0	3910	24	8981
0	3990	24.5	8502
0	4097	25	8289
0	4180	25.5	8377
0	4262	26	8466
0	4336	26.5	8554
0	4398	27	8643
0	4462	27.5	8731
0	4560	28	8513
0	4640	28.5	8282
0	4791	29	8134
0	4850	29.5	8104
0	4935	30	8088
0	5020	30.5	8857
0	5086	31	8791
0	5137	31.5	8725
0	5207	32	8659
0	5287	32.5	8545
0	5399	33	8614
0	5467	33.5	9861
0	5472	33.55	9861
0	5473	33.557098671534	9861
0	5480	33.633874993596	9861
0	5483	33.64097366513	9861
0	5492	33.820303282348	9860
0	5497	33.863378442134	9860
0	5503	33.884418854757	9860
0	5508	33.927632650419	9859
0	5512	33.934732761992	9859
0	5519	33.963318934573	9859
0	5525	33.975444101035	9859
0	5529	34	9859
0	5536	34.05	9859
0	5537	34.057100111573	9859
0	5542	34.064200223146	9859
0	5545	34.071300334719	9859
0	5552	34.10160040975	9859
0	5555	34.108700521323	9859
0	5564	34.123163378627	9859
0	5569	34.155595729637	9858
0	5572	34.162696561449	9858
0	5579	34.176174726715	9858
0	5585	34.289060789645	9858
0	5590	34.368072477321	9858
0	5593	34.375173309133	9857
0	5600	34.490951009379	9857
0	5603	34.498052561575	9857
0	5606	34.5	9857
0	5612	34.555154113771	9857
0	5620	34.655521306107	9856
0	5625	34.666768216707	9856
0	5628	34.673870489434	9856
0	5635	34.703790623621	9856
0	5641	34.714267978724	9856
0	5651	34.793742832483	9856
0	5656	34.802238922791	9856
0	5661	34.820512818445	9856
0	5667	34.850868039104	9856
0	5674	34.878977826121	9855
0	5680	35	9855
0	5688	35.05	9855
0	5691	35.057102993404	9855
0	5694	35.064205986808	9855
0	5697	35.071308980212	9855
0	5706	35.175500453021	9854
0	5712	35.193479449485	9854
0	5715	35.200583163713	9854
0	5720	35.207686877941	9854
0	5727	35.281015978268	9854
0	5732	35.305689204516	9854
0	5737	35.348847309969	9853
0	5742	35.361853861388	9853
0	5747	35.373243446489	9853
0	5752	35.389583698514	9853
0	5758	35.468420948966	9853
0	5763	35.494474188115	9853
0	5767	35.5	9853
0	5773	35.551578623312	9853
0	5774	35.558683058509	9853
0	5781	35.578407206378	9852
0	5786	35.592607628413	9852
0	5791	35.60660046295	9852
0	5801	35.696869422528	9852
0	5810	35.816391794113	9852
0	5817	35.885790234423	9851
0	5820	35.892896111999	9851
0	5825	35.900001989575	9851
0	5836	35.97511224825	9851
0	5841	35.985351519292	9851
0	5846	35.999364872893	9851
0	5847	36	9851
0	5853	36.032218125826	9851
0	5861	36.097055631823	9850
0	5864	36.104162230808	9850
0	5871	36.126066491736	9850
0	5876	36.141061927744	9850
0	5884	36.166074124302	9850
0	5891	36.213234833131	9850
0	5898	36.230353627503	9850
0	5903	36.270290144202	9850
0	5911	36.296722557824	9850
0	5918	36.330808308526	9849
0	5925	36.432137425122	9849
0	5930	36.475526857944	9849
0	5935	36.5	9849
0	5941	36.553704252732	9833
0	5946	36.561730353739	9819
0	5951	36.60129635568	9752
0	5956	36.615929563743	9727
0	5961	36.651592925081	9667
0	5966	36.691064540256	9600
0	5972	36.718885089518	9552
0	5979	36.792871828031	9427
0	5984	36.804015583593	9408
0	5990	36.831475067985	9361
0	5993	36.83895290155	9348
0	6000	36.848721133568	9332
0	6007	36.916622820914	9245
0	6011	36.924194481271	9238
0	6019	36.952977856886	9210
0	6024	36.996344134644	9168
0	6025	37	9165
0	6152	37.5	8685
0	6244	38	8420
0	6289	38.5	8748
0	6363	39	8765
0	6433	39.5	8739
0	6496	40	8713
0	6556	40.5	8210
0	6638	41	8674
0	6748	41.5	8840
0	6861	42	9158
0	6915	42.5	9658
0	6918	42.567179428412	9612
0	6921	42.574461991874	9607
0	6928	42.612056550506	9581
0	6933	42.625968318303	9571
0	6938	42.638110829213	9563
0	6943	42.678029185837	9536
0	6948	42.685855152879	9530
0	6951	42.693200378482	9525
0	6959	42.779128992314	9466
0	6964	42.811839306886	9444
0	6969	42.824788578177	9435
0	6974	42.847517953615	9419
0	6979	42.865585074538	9407
0	6984	42.877277702445	9399
0	6990	42.912367386736	9374
0	6995	42.921899679658	9368
0	7002	42.999362632762	9315
0	7003	43	9314
0	7101	43.5	8971
0	7151	44	8627
0	7201	44.5	8916
0	7298	45	9329
0	7381	45.5	9742
0	7421	46	9219
0	7519	46.5	9386
0	7599	47	9418
0	7689	47.5	9450
0	7772	48	9482
0	7897	48.5	9514
0	7900	48.513562176634	9515
0	7904	48.520918981679	9516
0	7913	48.559196634946	9518
0	7919	48.597544380405	9521
0	7925	48.632798924499	9523
0	7928	48.640149549302	9523
0	7935	48.745769878852	9530
0	7940	48.822798469455	9535
0	7943	48.830139843341	9536
0	7950	48.866727315909	9538
0	7956	48.937380547506	9543
0	7960	49	9547
0	8021	49.5	9230
0	8159	50	8751
0	8249	50.5	8993
0	8351	51	9235
0	8397	51.5	8977
0	8531	52	8702
0	8593	52.5	8428
0	8663	53	8154
0	8744	53.5	8065
0	8809	54	8068
0	8850	54.5	8072
0	8948	55	8076
0	9014	55.5	8079
0	9122	56	8083
0	9180	56.5	8086
0	9285	57	8984
0	9369	57.5	9703
0	9382	57.55	9547
0	9385	57.557332146224	9524
0	9388	57.564681999227	9501
0	9391	57.572049644738	9478
0	9394	57.57943516911	9455
0	9400	57.586838659327	9432
0	9403	57.594260203008	9409
0	9408	57.601699888416	9385
0	9411	57.609158599125	9362
0	9418	57.617583128288	9336
0	9423	57.665442328453	9187
0	9430	57.71078331169	9036
0	9435	57.736979559912	8934
0	9441	57.776648149022	8779
0	9446	57.800056102968	8687
0	9451	57.808114120696	8655
0	9456	57.81620193121	8624
0	9459	57.824318814327	8592
0	9464	57.832465927921	8560
0	9471	57.840643498014	8528
0	9476	57.848851753173	8496
0	9481	57.857090924548	8463
0	9484	57.865362223142	8431
0	9489	57.873664915587	8399
0	9498	57.964205122118	8223
0	9501	57.972717830375	8224
0	9506	57.981229503527	8224
0	9513	58	8225
0	9592	58.5	8254
0	9696	59	8283
0	9771	59.5	8311
0	9824	60	8340
0	9897	60.5	8369
0	10006	61	8318
0	10092	61.5	8294
0	10170	62	8321
0	10218	62.5	8348
0	10305	63	8375
0	10399	63.5	8402
0	10474	64	8429
0	10550	64.5	8978
0	10632	65	9513
0	10635	65.05	9530
0	10642	65.081246383768	9537
0	10647	65.127285471008	9499
0	10653	65.172542988834	9462
0	10658	65.182334476918	9454
0	10661	65.189738750241	9448
0	10668	65.30003536009	9357
0	10673	65.351950517031	9314
0	10678	65.399265157022	9275
0	10683	65.407821148263	9268
0	10688	65.417334971428	9261
0	10693	65.4990455592	9193
0	10694	65.5	9193
0	10784	66	8782
0	10861	66.5	8797
0	10934	67	8937
0	11014	67.5	9076
0	11093	68	9215
0	11165	68.5	9138
0	11196	69	8724
0	11283	69.5	8978
0	11366	70	9420
0	11372	70.017242998963	9438
0	11377	70.024659824562	9446
0	11380	70.032070368708	9454
0	11387	70.039474642031	9461
0	11392	70.046873437084	9469
0	11395	70.054265981175	9477
0	11412	70.110027568676	9721
0	11418	70.134771454418	9716
0	11424	70.176392337026	9707
0	11432	70.223118844977	9697
0	11437	70.232285330647	9695
0	11441	70.239505547253	9693
0	11446	70.246727253639	9691
0	11453	70.265603052877	9687
0	11456	70.272829232293	9686
0	11471	70.364612829179	9665
0	11476	70.387480550531	9660
0	11481	70.39656685082	9658
0	11487	70.427599675531	9652
0	11495	70.467168576585	9643
0	11500	70.5	9636
0	11503	70.54705084636	9625
0	11509	70.578503524774	9618
0	11514	70.667023125173	9599
0	11517	70.674315551467	9597
0	11524	70.68334035062	9595
0	11529	70.705947968995	9590
0	11537	70.79944433246	9570
0	11542	70.842621847176	9560
0	11547	70.870242872978	9554
0	11550	70.877569647104	9553
0	11559	70.901690489818	9547
0	11564	70.975760424499	9531
0	11567	70.983104879436	9529
0	11573	71	9526
0	11587	71.05	9515
0	11588	71.057356805045	9513
0	11591	71.064715156774	9511
0	11594	71.072075055838	9510
0	11597	71.079435728814	9508
0	11600	71.086797950101	9507
0	11607	71.144613191935	9494
0	11612	71.153457355127	9492
0	11617	71.184013721937	9485
0	11622	71.211178033154	9479
0	11625	71.21856277838	9478
0	11632	71.286098507647	9463
0	11637	71.297964831615	9460
0	11643	71.353428831354	9448
0	11648	71.374782341931	9443
0	11653	71.382195240374	9442
0	11656	71.389608923916	9440
0	11663	71.418645727851	9434
0	11668	71.437208841122	9429
0	11671	71.444632746096	9428
0	11678	71.462416034628	9424
0	11683	71.5	9416
0	11740	72	8706
0	11799	72.5	8913
0	11870	73	8935
0	11978	73.5	9106
0	12096	74	9276
0	12189	74.5	9447
0	12283	75	9535
0	12286	75.011643234043	9537
0	12291	75.047489351308	9543
0	12299	75.054824570841	9544
0	12302	75.062159021805	9545
0	12305	75.069492704361	9547
0	12312	75.138664274607	9559
0	12317	75.238120308062	9576
0	12320	75.245430249582	9577
0	12325	75.252739427822	9579
0	12330	75.260047079978	9580
0	12335	75.267353969331	9581
0	12342	75.344095360657	9595
0	12348	75.38525745111	9602
0	12351	75.392547598996	9603
0	12356	75.399836987729	9604
0	12364	75.411797559652	9606
0	12370	75.422556844908	9614
0	12376	75.472513092671	9657
0	12380	75.5	9680
0	12385	75.601756672913	9765
0	12390	75.630726236675	9790
0	12395	75.666431838823	9820
0	12404	75.712320530051	9858
0	12410	75.738058908534	9880
0	12415	75.745557340797	9886
0	12421	75.76331503376	9880
0	12427	75.781904146929	9848
0	12432	75.834034524883	9756
0	12437	75.858182024896	9714
0	12440	75.865388119193	9702
0	12447	75.873272376287	9688
0	12453	75.993026162403	9478
0	12454	76	9466
0	12464	76.209123059956	9100
0	12470	76.278218894117	8980
0	12475	76.317140605139	8912
0	12481	76.350790903845	8853
0	12491	76.426120197485	8722
0	12495	76.434145879668	8740
0	12502	76.445126094361	8765
0	12508	76.487365110106	8861
0	12513	76.5	8889
0	12577	77	9558
0	12656	77.5	9619
0	12664	77.552670949998	9626
0	12670	77.598770324694	9632
0	12678	77.6564235848	9639
0	12683	77.667242703957	9640
0	12686	77.674504114745	9641
0	12696	77.735132644491	9648
0	12704	77.808432005155	9657
0	12711	77.955676186865	9675
0	12715	78	9681
0	12718	78.012911328984	9682
0	12724	78.061223136001	9688
0	12730	78.136564234688	9698
0	12735	78.162179581071	9701
0	12740	78.283951377998	9716
0	12743	78.291155988949	9717
0	12750	78.316164322131	9720
0	12757	78.3385448269	9722
0	12762	78.360008595153	9725
0	12767	78.380193408581	9728
0	12773	78.403421077214	9730
0	12778	78.411353642359	9731
0	12784	78.490407863205	9741
0	12788	78.5	9742
0	12797	78.55	9748
0	12800	78.557180960197	9749
0	12803	78.56436118381	9750
0	12807	78.571540670989	9751
0	12810	78.578719421886	9752
0	12817	78.591974213315	9754
0	12822	78.612353849905	9756
0	12828	78.656415210085	9761
0	12833	78.667086569886	9763
0	12836	78.674256497162	9764
0	12843	78.694957019489	9766
0	12851	78.828787414567	9783
0	12854	78.835942683912	9784
0	12861	78.844132815376	9785
0	12868	78.926975206936	9795
0	12873	78.93505152123	9796
0	12878	78.994369571089	9803
0	12879	79	9804
0	12888	79.051510242312	9810
0	12889	79.058645818255	9811
0	12902	79.181825570105	9843
0	12909	79.248649337253	9870
0	12914	79.287301945644	9885
0	12923	79.402123651912	9931
0	12928	79.411972852615	9935
0	12931	79.4190186503	9938
0	12936	79.426062321059	9941
0	12943	79.458807692821	9954
0	12947	79.465840041626	9957
0	12957	79.5	9868
0	12962	79.678938883192	8869
0	12967	79.694735138687	8780
0	12974	79.849213067334	8247
0	12980	79.909968509663	8349
0	12986	79.942330661855	8403
0	12991	79.953606624694	8421
0	12994	79.961919176647	8435
0	13001	79.97448877338	8456
0	13005	80	8499
0	13079	80.5	9333
0	13186	81	9345
0	13296	81.5	8957
0	13351	82	8569
0	13439	82.5	8182
0	13522	83	8712
0	13601	83.5	9599
0	13657	84	9824
0	13663	84.05	9812
0	13664	84.057134121484	9811
0	13669	84.064268970123	9809
0	13676	84.122391577095	9795
0	13681	84.21446811291	9774
0	13686	84.258894779569	9763
0	13691	84.32946741173	9747
0	13696	84.343139251775	9744
0	13701	84.402416622453	9730
0	13707	84.441720033693	9720
0	13713	84.5	9707
0	13716	84.55	9695
0	13721	84.565710183222	9691
0	13726	84.577030221862	9689
0	13731	84.633775252956	9675
0	13736	84.649920034157	9672
0	13739	84.657157420427	9670
0	13746	84.666647418299	9668
0	13751	84.70311328476	9659
0	13756	84.731883464684	9652
0	13761	84.770994431743	9643
0	13766	84.809609156078	9634
0	13772	84.839756770656	9627
0	13777	84.851582450848	9624
0	13782	84.904162230124	9612
0	13787	84.911444793586	9610
0	13790	84.91872887267	9609
0	13797	84.928106398981	9606
0	13802	84.940655529442	9603
0	13807	84.953568168858	9600
0	13813	85	9589
0	13883	85.5	9472
0	13964	86	9698
0	13974	86.05	9692
0	13975	86.057222451506	9691
0	13978	86.064445648287	9690
0	13981	86.071669590495	9689
0	13988	86.111898942384	9684
0	13991	86.119127360393	9683
0	13998	86.197455901685	9674
0	14005	86.249394063031	9668
0	14008	86.256634443668	9667
0	14015	86.28076204845	9664
0	14022	86.386288256135	9652
0	14026	86.5	9638
0	14078	87	9579
0	14179	87.5	9519
0	14292	88	9765
0	14358	88.5	8541
0	14402	89	9089
0	14480	89.5	9371
0	14516	90	8459
0	14560	90.5	8484
0	14639	91	8509
0	14747	91.5	8534
0	14824	92	8559
0	14891	92.5	8584
0	14938	93	8609
0	15016	93.5	9218
0	15101	94	9895
0	15106	94.080361257767	9893
0	15111	94.135439947546	9891
0	15116	94.187608630344	9889
0	15122	94.215582677044	9888
0	15127	94.396029313276	9883
0	15132	94.422628718139	9882
0	15139	94.456015722957	9881
0	15144	94.471696334657	9880
0	15151	94.4787813549	9880
0	15154	94.485866375143	9880
0	15157	94.492951395386	9879
0	15161	94.5	9879
0	15168	94.621081020962	9875
0	15173	94.635735808783	9875
0	15180	94.707102657926	9873
0	15187	94.767802254415	9871
0	15192	94.775853696111	9870
0	15199	94.846235940634	9868
0	15204	94.865595455261	9868
0	15214	94.978974389446	9864
0	15218	95	9863
0	15224	95.036070902017	9649
0	15225	95.043325539803	9540
0	15232	95.05	9439
0	15233	95.050663066008	9429
0	15243	95.058202272307	9315
0	15250	95.143781199169	8711
0	15255	95.157488585209	8711
0	15260	95.17022545723	8710
0	15266	95.224543559008	8709
0	15271	95.253118150313	8708
0	15274	95.261156735522	8707
0	15283	95.400807123829	8703
0	15286	95.408850327322	8702
0	15293	95.421690753633	8702
0	15298	95.446886222035	8701
0	15303	95.485254248314	8700
0	15308	95.494010115341	8699
0	15309	95.5	8699
0	15418	96	8682
0	15523	96.5	8665
0	15614	97	8648
0	15666	97.5	8631
0	15732	98	8667
0	15802	98.5	8714
0	15909	99	8762
0	15973	99.5	8810
0	16035	100	8857
0	16095	100.5	8905
0	16197	101	8952
0	16252	101.5	9025
0	16338	102	9251
0	16414	102.5	9462
0	16476	103	9560
0	16568	103.5	9209
0	16654	104	8478
0	16716	104.5	8502
0	16787	105	8426
0	16856	105.5	8350
0	16965	106	8274
0	17039	106.5	9368
0	17091	107	9323
0	17186	107.5	9279
0	17262	108	9234
0	17324	108.5	9190
0	17399	109	8752
0	17476	109.5	8142
0	17555	110	8340
0	17620	110.5	8536
0	17716	111	8722
0	17776	111.5	8894
0	17835	112	8811
0	17916	112.5	8984
0	18021	113	9743
0	18029	113.052582180989	9823
0	18030	113.059708313535	9834
0	18034	113.066826475016	9801
0	18041	113.092401536493	9450
0	18046	113.102837338141	9307
0	18049	113.109708313535	9212
0	18061	113.151417610418	8640
0	18069	113.200120103671	8358
0	18075	113.234759792828	8386
0	18081	113.288358245415	8431
0	18087	113.339764813193	8474
0	18093	113.357337288935	8489
0	18100	113.408611899438	8531
0	18107	113.456274011177	8571
0	18112	113.5	8608
0	18187	114	9024
0	18255	114.5	9374
0	18345	115	9397
0	18393	115.5	9419
0	18491	116	9331
0	18593	116.5	9081
0	18657	117	8906
0	18752	117.5	8730
0	18821	118	8555
0	18873	118.5	8379
0	18965	119	8204
0	19031	119.5	8370
0	19116	120	9829
0	19119	120.05	9818
0	19124	120.070502174622	9814
0	19130	120.175817948278	9793
0	19137	120.227420936258	9783
0	19142	120.259649193846	9776
0	19147	120.271217574925	9774
0	19153	120.330198154102	9762
0	19158	120.346775572291	9759
0	19165	120.499821356556	9728
0	19166	120.5	9728
0	19172	120.59096305176	9709
0	19177	120.645163546528	9699
0	19184	120.704809601852	9687
0	19189	120.72847150027	9682
0	19194	120.761820041183	9675
0	19201	120.792895822464	9669
0	19206	120.801658900822	9667
0	19212	120.831463126651	9661
0	19217	120.838708753398	9660
0	19220	120.84595513021	9658
0	19228	120.854573997676	9656
0	19234	120.871605249918	9653
0	19242	120.91068819313	9645
0	19250	120.929891268596	9641
0	19259	120.991598308719	9629
0	19262	120.998868014815	9627
0	19265	121	9627
0	19371	121.5	9526
0	19478	122	9306
0	19568	122.5	8877
0	19654	123	8449
0	19732	123.5	8395
0	19831	124	8918
0	19942	124.5	9281
0	20075	125	9585
0	20161	125.5	9666
0	20247	126	9748
0	20251	126.05	9756
0	20256	126.111222743296	9766
0	20261	126.140491640087	9771
0	20266	126.150868344448	9773
0	20272	126.173541137328	9777
0	20279	126.22556795883	9785
0	20284	126.259607208885	9791
0	20290	126.296972309116	9797
0	20295	126.323304507637	9801
0	20300	126.341159224849	9804
0	20305	126.363339331839	9808
0	20312	126.406224490879	9815
0	20318	126.456093484058	9823
0	20323	126.467575258743	9825
0	20326	126.474699940677	9826
0	20333	126.486896922004	9828
0	20337	126.494019429127	9829
0	20340	126.5	9830
0	20353	126.551141211607	9838
0	20355	126.558256478938	9839
0	20360	126.565371023099	9840
0	20363	126.572484844237	9841
0	20370	126.592115370516	9844
0	20373	126.599226301032	9845
0	20381	126.611733574906	9846
0	20394	126.676865767572	9855
0	20401	126.744568486711	9641
0	20406	126.796251905058	9470
0	20412	126.831329841349	9354
0	20419	126.858808002756	9263
0	20429	126.944640293113	9096
0	20433	127	9069
0	20496	127.5	8823
0	20562	128	8652
0	20614	128.5	8541
0	20697	129	8429
0	20760	129.5	9409
0	20796	130	8734
0	20850	130.5	8648
0	20917	131	8561
0	21006	131.5	8475
0	21082	132	8389
0	21168	132.5	8437
0	21239	133	8578
0	21359	133.5	8752
0	21443	134	9180
0	21525	134.5	9058
0	21607	135	8937
0	21701	135.5	8999
0	21780	136	9086
0	21851	136.5	8692
0	21930	137	8299
0	22018	137.5	8986
0	22091	138	8922
0	22192	138.5	9087
0	22266	139	9252
0	22366	139.5	9417
0	22424	140	9583
0	22506	140.5	8168
0	22574	141	8273
0	22651	141.5	8378
0	22724	142	8483
0	22806	142.5	8587
0	22899	143	8914
0	22978	143.5	9492
0	23122	144	9238
0	23220	144.5	8763
0	23290	145	8690
0	23362	145.5	8616
0	23446	146	8542
0	23508	146.5	8469
0	23567	147	8395
0	23673	147.5	8367
0	23785	148	8624
0	23862	148.5	8814
0	23945	149	8914
0	24029	149.5	9153
0	24090	150	9391
0	24188	150.5	9630
0	24192	150.55	9653
0	24198	150.601769425453	9678
0	24201	150.609002324812	9682
0	24206	150.616232235987	9685
0	24211	150.623459907644	9688
0	24218	150.632903823039	9693
0	24223	150.675471357055	9713
0	24228	150.718599617934	9734
0	24233	150.755057098504	9751
0	24238	150.772516128932	9760
0	24243	150.788741481627	9767
0	24248	150.795908472515	9771
0	24251	150.803072529418	9774
0	24258	150.812557324882	9779
0	24263	150.824032124424	9784
0	24269	150.90764500746	9824
0	24272	150.914770414626	9827
0	24279	150.928302722328	9834
0	24283	151	9868
0	24286	151.086535935652	9909
0	24291	151.100670328531	9916
0	24296	151.142277626968	9936
0	24302	151.301834633045	9774
0	24307	151.321625231384	9737
0	24312	151.357814969931	9669
0	24317	151.44609753397	9505
0	24322	151.462047146508	9475
0	24328	151.491217353723	9449
0	24331	151.498625545066	9445
0	24334	151.5	9445
0	24340	151.556036873811	9418
0	24345	151.592729482922	9400
0	24351	151.617466753684	9388
0	24359	151.660560788012	9368
0	24366	151.721861558056	9339
0	24374	151.811110421726	9296
0	24383	151.952597976083	9228
0	24388	151.961172089303	9224
0	24393	151.979765692579	9215
0	24396	151.987362002943	9212
0	24401	151.994960787138	9208
0	24404	152	9206
0	24515	152.5	8967
0	24600	153	9099
0	24652	153.5	9508
0	24656	153.579424029583	9573
0	24661	153.592484856031	9584
0	24666	153.602865328669	9592
0	24671	153.612853866406	9600
0	24677	153.660139548636	9586
0	24683	153.671536970053	9574
0	24686	153.678848438614	9567
0	24694	153.691705369839	9553
0	24700	153.714056157071	9530
0	24706	153.759746678513	9483
0	24711	153.792453002525	9449
0	24716	153.821926571921	9419
0	24719	153.829358358735	9411
0	24727	153.883317161448	9356
0	24732	153.911046597957	9327
0	24738	153.973105583371	9263
0	24742	154	9235
0	24817	154.5	8720
0	24879	155	8450
0	24944	155.5	9858
0	24953	155.55	9843
0	24954	155.557111652951	9841
0	24957	155.564224751213	9839
0	24960	155.571339295374	9837
0	24968	155.608662094111	9825
0	24973	155.625848248283	9820
0	24978	155.660917683433	9809
0	24981	155.668053986828	9807
0	24988	155.692354241832	9800
0	24994	155.699791129704	9798
0	24997	155.70693544487	9795
0	25005	155.758596519955	9780
0	25010	155.785791984	9771
0	25015	155.808157649774	9765
0	25020	155.843137066002	9754
0	25028	155.906786302365	9735
0	25032	156	9706
0	25037	156.05	9691
0	25038	156.057223196781	9689
0	25043	156.064447884571	9687
0	25050	156.07738467746	9683
0	25056	156.197205826276	9646
0	25062	156.259666571275	9627
0	25068	156.373761575426	9592
0	25071	156.381059323549	9590
0	25078	156.41297634062	9580
0	25085	156.473076525536	9562
0	25090	156.49775269837	9555
0	25091	156.5	9554
0	25099	156.555078705696	9537
0	25100	156.562418540025	9535
0	25105	156.569759913911	9533
0	25117	156.64237393553	9225
0	25123	156.669014067328	8983
0	25126	156.676806564267	8912
0	25138	156.724521081399	8509
0	25142	156.732747665016	8517
0	25150	156.77965959057	8567
0	25154	156.787830478862	8575
0	25162	156.813409469299	8602
0	25169	156.862914439019	8654
0	25175	156.893334447828	8686
0	25180	156.907858986928	8701
0	25187	156.954255586967	8750
0	25194	156.989816432868	8787
0	25198	157	8798
0	25274	157.5	9114
0	25369	158	9248
0	25442	158.5	8975
0	25504	159	8444
0	25558	159.5	8775
0	25631	160	9105
0	25707	160.5	9435
0	25756	161	9766
0	25823	161.5	9784
0	25892	162	9335
0	25966	162.5	8694
0	26039	163	9366
0	26102	163.5	9116
0	26167	164	8678
0	26248	164.5	8374
0	26341	165	8499
0	26396	165.5	8624
0	26464	166	8750
0	26538	166.5	8875
0	26637	167	8694
0	26703	167.5	8404
0	26774	168	8113
0	26860	168.5	8009
0	26946	169	8013
0	27000	169.5	8017
0	27058	170	8022
0	27156	170.5	8212
0	27254	171	9655
0	27264	171.052041900501	9556
0	27267	171.059367141187	9542
0	27270	171.066703129449	9529
0	27273	171.074049125881	9515
0	27278	171.081405930926	9501
0	27281	171.088773576437	9487
0	27295	171.18384470043	9307
0	27300	171.213266612477	9251
0	27305	171.224000972656	9230
0	27311	171.251664372105	9178
0	27317	171.274045875963	9136
0	27323	171.284586746116	9116
0	27332	171.342967366624	9005
0	27335	171.350740825813	8990
0	27343	171.40766613602	8882
0	27349	171.423747069282	8852
0	27355	171.472315450882	8760
0	27360	171.5	8707
0	27437	172	8390
0	27501	172.5	9239
0	27667	173	9100
0	27735	173.5	8961
0	27814	174	8775
0	27876	174.5	8555
0	27931	175	8551
0	27992	175.5	8758
0	28079	176	8796
0	28162	176.5	8490
0	28233	177	8184
0	28348	177.5	8953
0	28419	178	8844
0	28490	178.5	8779
0	28597	179	8794
0	28686	179.5	9075
0	28752	180	8868
0	28823	180.5	9131
0	28923	181	8246
0	28987	181.5	8680
0	29057	182	8667
0	29142	182.5	8655
0	29198	183	8642
0	29252	183.5	8878
0	29365	184	9120
0	29421	184.5	9327
0	29503	185	9534
0	29588	185.5	9544
0	29701	186	9489
0	29755	186.5	9435
0	29827	187	9380
0	29832	187.05	9374
0	29834	187.057467463196	9373
0	29841	187.072862848984	9372
0	29846	187.093335974356	9369
0	29851	187.114607942737	9367
0	29856	187.135054143026	9365
0	29859	187.142528782642	9364
0	29867	187.223014431965	9355
0	29872	187.244252216651	9353
0	29880	187.34336344126	9342
0	29885	187.415305177538	9334
0	29888	187.422804641862	9333
0	29896	187.436794456757	9332
0	29901	187.447292233984	9331
0	29906	187.454794109453	9330
0	29909	187.462296788981	9329
0	29917	187.481184813785	9327
0	29921	187.5	9325
0	29924	187.555808495508	9319
0	29931	187.747602889781	9298
0	29937	187.774186176422	9295
0	29942	187.833673172661	9288
0	29945	187.841209779035	9287
0	29952	187.873434807699	9284
0	29957	187.935550836003	9277
0	29963	188	9270
0	30055	188.5	9215
0	30133	189	9160
0	30211	189.5	9105
0	30285	190	9197
0	30350	190.5	9324
0	30454	191	9451
0	30457	191.05	9464
0	30462	191.097844919442	9476
0	30468	191.144232436329	9488
0	30473	191.163021094323	9493
0	30478	191.182061527729	9498
0	30483	191.206905518005	9504
0	30486	191.21427083787	9506
0	30494	191.267467451227	9519
0	30499	191.311013304971	9530
0	30504	191.331802829343	9536
0	30507	191.33914343337	9538
0	30514	191.452273401625	9566
0	30519	191.476670064564	9573
0	30523	191.5	9579
0	30526	191.55	9591
0	30532	191.63650932975	9613
0	30538	191.697800512112	9629
0	30543	191.712958536652	9633
0	30549	191.820667057945	9660
0	30554	191.866973251962	9672
0	30559	191.88420773746	9676
0	30565	191.979717977625	9701
0	30569	192	9706
0	30574	192.05	9718
0	30577	192.057203128216	9720
0	30580	192.064404774307	9722
0	30587	192.08868884961	9728
0	30593	192.127860785764	9738
0	30598	192.156846483596	9746
0	30603	192.263815715383	9773
0	30609	192.287629521679	9778
0	30614	192.299535371638	9771
0	30619	192.324577977357	9758
0	30624	192.33663232039	9752
0	30629	192.354440565408	9742
0	30634	192.441978708137	9696
0	30637	192.449198180084	9692
0	30643	192.5	9666
0	30734	193	9402
0	30831	193.5	8110
0	30897	194	8283
0	30989	194.5	8503
0	31053	195	8792
0	31159	195.5	9082
0	31224	196	9371
0	31316	196.5	9032
0	31366	197	8944
0	31409	197.5	9029
0	31494	198	8903
0	31591	198.5	8339
0	31736	199	9380
0	31801	199.5	9616
0	31892	200	8266
0	31969	200.5	8753
0	32041	201	9240
0	32095	201.5	9727
0	32100	201.637827111025	9773
0	32105	201.68044236912	9759
0	32110	201.694324119312	9755
0	32116	201.746259486145	9738
0	32122	201.788801055987	9724
0	32127	201.797914575319	9722
0	32132	201.812209436029	9717
0	32138	201.879865586148	9695
0	32141	201.887085802754	9693
0	32148	201.907357359589	9687
0	32153	201.924812549391	9681
0	32158	201.934088929178	9678
0	32163	201.962159020036	9669
0	32167	202	9657
0	32171	202.080936838368	9631
0	32174	202.088205034817	9629
0	32181	202.175084573257	9601
0	32188	202.234768270106	9582
0	32193	202.278891900121	9568
0	32198	202.302967954537	9560
0	32203	202.330178109014	9552
0	32208	202.339525670226	9549
0	32214	202.355535931763	9544
0	32219	202.386978235832	9534
0	32224	202.46185630712	9510
0	32228	202.5	9497
0	32298	203	9372
0	32373	203.5	8328
0	32443	204	8553
0	32535	204.5	9117
0	32608	205	9634
0	32612	205.015115356673	9565
0	32617	205.035892217736	9470
0	32620	205.0432839812	9437
0	32629	205.08793101731	9233
0	32634	205.217766302628	8641
0	32640	205.322556970695	8162
0	32647	205.365214599993	8170
0	32653	205.424664920698	8213
0	32656	205.433187993875	8219
0	32663	205.5	8267
0	32770	206	8628
0	32915	206.5	8989
0	32990	207	9158
0	33052	207.5	9113
0	33110	208	9243
0	33185	208.5	9192
0	33278	209	9200
0	33343	209.5	9207
0	33396	210	9214
0	33498	210.5	9221
0	33505	210.53960289887	9222
0	33507	210.54719344322	9222
0	33510	210.55	9222
0	33513	210.55478398757	9222
0	33523	210.580620152154	9223
0	33528	210.647464061731	9224
0	33533	210.66447522536	9224
0	33538	210.702202231377	9224
0	33544	210.795429529706	9226
0	33550	210.85677169107	9227
0	33555	210.869784687052	9227
0	33560	210.907572985109	9227
0	33566	210.991129950373	9229
0	33571	211	9229
0	33649	211.5	9296
0	33711	212	9384
0	33795	212.5	9479
0	33866	213	9725
0	33972	213.5	9899
0	33982	213.556131700752	9864
0	33984	213.563228213323	9840
0	33992	213.592518340466	9603
0	33998	213.614836934068	9422
0	34004	213.631336204352	9288
0	34013	213.690873070094	9102
0	34019	213.723644698437	9057
0	34024	213.744729403028	9028
0	34028	213.752483058323	9017
0	34040	213.873454093826	8850
0	34045	213.924364271326	8779
0	34052	213.95166725096	8742
0	34057	213.959674571939	8730
0	34060	213.967692899545	8719
0	34067	214	8675
0	34165	214.5	9022
0	34229	215	9169
0	34292	215.5	9315
0	34402	216	9447
0	34490	216.5	9484
0	34547	217	9522
0	34553	217.050420389199	9525
0	34554	217.057769470564	9526
0	34557	217.065117780453	9526
0	34564	217.077445606263	9527
0	34572	217.123245080727	9531
0	34580	217.205609909561	9537
0	34583	217.21294974389	9538
0	34590	217.231462447541	9539
0	34593	217.23880074296	9539
0	34602	217.275553634746	9542
0	34609	217.326143665527	9546
0	34612	217.332889623008	9546
0	34620	217.346940212625	9548
0	34625	217.355627584007	9548
0	34636	217.431236341311	9554
0	34639	217.438563115437	9554
0	34646	217.45873280607	9556
0	34652	217.490904680212	9558
0	34657	217.5	9559
0	34660	217.53158582178	9561
0	34665	217.539288381563	9562
0	34672	217.585199184609	9565
0	34675	217.592517532753	9566
0	34682	217.611788096618	9567
0	34687	217.624382257871	9568
0	34692	217.696850783184	9574
0	34697	217.736427412603	9577
0	34702	217.76929728737	9579
0	34707	217.799482235376	9581
0	34710	217.806788362085	9582
0	34717	217.819808142428	9583
0	34722	217.841476462337	9585
0	34727	217.904218622085	9589
0	34730	217.911518653371	9590
0	34735	217.918817923444	9590
0	34741	218	9596
0	34835	218.5	9634
0	34839	218.55	9638
0	34844	218.56899361212	9639
0	34850	218.665679206463	9646
0	34855	218.744308633612	9652
0	34860	218.796340126869	9656
0	34865	218.920321692535	9665
0	34870	218.938530785606	9667
0	34875	218.985160693996	9670
0	34879	219	9671
0	34939	219.5	9709
0	34942	219.55	9712
0	34948	219.573534879023	9714
0	34954	219.692591951494	9723
0	34959	219.705914776143	9724
0	34964	219.722011563784	9725
0	34970	219.775568585406	9729
0	34973	219.782763569474	9730
0	34980	219.815272680338	9732
0	34985	219.82705938464	9733
0	34990	219.880709534593	9737
0	34993	219.887898607203	9738
0	35000	219.901108966623	9739
0	35003	219.908296562885	9739
0	35010	219.94956613965	9742
0	35013	219.956751522528	9743
0	35020	219.969211932559	9744
0	35024	220	9746
0	35107	220.5	9784
0	35112	220.55	9787
0	35113	220.557152344947	9788
0	35120	220.59369172877	9791
0	35126	220.613030386928	9792
0	35132	220.706156565609	9799
0	35138	220.77538235892	9804
0	35143	220.80461442105	9806
0	35149	220.860802100151	9811
0	35154	220.881574641993	9812
0	35159	220.889383204466	9813
0	35165	220.952761564718	9817
0	35169	221	9821
0	35176	221.05	9825
0	35177	221.057124681934	9825
0	35182	221.064249363868	9826
0	35185	221.071373320717	9826
0	35190	221.078497277566	9827
0	35198	221.096704823442	9828
0	35201	221.103827330565	9829
0	35208	221.115195289677	9830
0	35211	221.122316347663	9830
0	35218	221.147496919668	9832
0	35223	221.187471321824	9835
0	35228	221.211806901502	9837
0	35233	221.30170052772	9844
0	35239	221.328392656958	9845
0	35245	221.352167370295	9833
0	35248	221.359286255681	9829
0	35256	221.418698688423	9799
0	35261	221.428219686469	9794
0	35266	221.483473217121	9765
0	35271	221.497537430342	9758
0	35272	221.5	9757
0	35280	221.55471103149	9728
0	35281	221.561906755174	9725
0	35290	221.673504412978	9667
0	35295	221.705443300011	9651
0	35301	221.762158623001	9621
0	35305	221.769434373962	9617
0	35312	221.779888976368	9612
0	35315	221.78717153983	9608
0	35325	221.839829579601	9581
0	35331	221.863220688617	9569
0	35339	221.904513899248	9549
0	35345	221.924618382664	9540
0	35350	221.94246931669	9532
0	35356	221.97794401585	9516
0	35359	221.981955908869	9515
0	35367	222	9506
0	35422	222.5	9224
0	35516	223	8778
0	35632	223.5	9030
0	35710	224	9282
0	35792	224.5	8201
0	35871	225	8207
0	35939	225.5	8214
0	36017	226	8220
0	36108	226.5	8226
0	36165	227	8342
0	36301	227.5	8108
0	36381	228	8691
0	36445	228.5	9547
0	36448	228.55	9633
0	36455	228.61485019461	9685
0	36461	228.650038174176	9684
0	36466	228.658869264995	9684
0	36471	228.689043205974	9684
0	36476	228.704192184453	9683
0	36481	228.736426190778	9683
0	36486	228.748331182146	9683
0	36491	228.818627394308	9681
0	36497	228.838114308489	9681
0	36502	228.855305777484	9681
0	36508	228.903060806151	9680
0	36513	228.958584343849	9679
0	36516	228.965816495931	9679
0	36522	229	9678
0	36526	229.05	9678
0	36531	229.07763992704	9677
0	36536	229.090352877186	9677
0	36541	229.11903884725	9676
0	36544	229.126273241628	9676
0	36552	229.138720623763	9676
0	36557	229.146967360881	9676
0	36560	229.154201755259	9676
0	36567	229.194029550923	9675
0	36573	229.227323479637	9675
0	36578	229.257660201512	9674
0	36583	229.27103618848	9674
0	36588	229.282272054662	9674
0	36593	229.328192284763	9673
0	36598	229.348131635575	9673
0	36605	229.479008848091	9670
0	36609	229.5	9670
0	36731	230	9662
0	36829	230.5	9653
0	36867	231	9649
0	36957	231.5	9647
0	37021	232	9645
0	37085	232.5	9642
0	37188	233	9628
0	37242	233.5	9558
0	37311	234	9487
0	37393	234.5	9417
0	37497	235	9347
0	37555	235.5	9277
0	37636	236	9206
0	37708	236.5	9438
0	37771	237	9868
0	37872	237.5	8443
0	37944	238	8537
0	38021	238.5	8907
0	38083	239	9129
0	38147	239.5	9150
0	38252	240	9172
0	38334	240.5	9193
0	38378	241	9214
0	38428	241.5	9235
0	38521	242	9256
0	38580	242.5	9286
0	38591	242.55	9292
0	38592	242.557533362032	9293
0	38597	242.565065913415	9294
0	38600	242.572597654323	9295
0	38603	242.580128584931	9296
0	38610	242.623982861541	9302
0	38615	242.692832705998	9311
0	38620	242.708719401931	9313
0	38625	242.74144000604	9317
0	38630	242.761688368466	9320
0	38636	242.861153587634	9332
0	38641	242.97366332683	9347
0	38646	242.984305195185	9348
0	38650	243	9350
0	38732	243.5	9414
0	38811	244	9478
0	38819	244.053621837073	9485
0	38820	244.061001910874	9486
0	38827	244.07212323285	9487
0	38836	244.170868482413	9500
0	38839	244.178236903466	9501
0	38844	244.185604548977	9502
0	38851	244.195432498437	9503
0	38854	244.202798593354	9504
0	38866	244.268019577645	9512
0	38869	244.27537870296	9513
0	38877	244.332170722314	9520
0	38883	244.339538513935	9521
0	38888	244.387573713761	9527
0	38895	244.415849586555	9531
0	38898	244.423194041492	9532
0	38905	244.44177329064	9534
0	38908	244.444921252336	9535
0	38917	244.474281708539	9538
0	38923	244.48734332596	9540
0	38928	244.495199603901	9541
0	38930	244.5	9542
0	39027	245	9270
0	39118	245.5	8859
0	39192	246	8610
0	39323	246.5	8851
0	39417	247	9091
0	39489	247.5	9332
0	39538	248	9572
0	39612	248.5	9695
0	39616	248.55	9496
0	39619	248.557371524853	9438
0	39628	248.633750847987	9345
0	39633	248.693257677867	9352
0	39636	248.700742707807	9353
0	39644	248.746696189333	9358
0	39649	248.761948081208	9359
0	39655	248.781445040654	9361
0	39661	248.80200876911	9364
0	39664	248.809484206957	9365
0	39673	248.89372982858	9374
0	39682	249	9385
0	39763	249.5	9440
0	39816	250	9472
0	39897	250.5	9339
0	39965	251	9206
0	40029	251.5	9074
0	40102	252	8941
0	40213	252.5	8808
0	40329	253	8675
0	40438	253.5	8542
0	40533	254	8418
0	40619	254.5	9262
0	40677	255	9843
0	40681	255.05	9821
0	40684	255.057127583749	9818
0	40692	255.106458359937	9795
0	40697	255.120493813337	9789
0	40702	255.132993519007	9783
0	40707	255.153052614407	9774
0	40712	255.186626481888	9759
0	40719	255.255606456393	9728
0	40724	255.268484692313	9722
0	40729	255.275684856888	9719
0	40732	255.282887243965	9715
0	40737	255.290092596513	9712
0	40744	255.347910197557	9686
0	40750	255.471479255378	9631
0	40754	255.5	9625
0	40759	255.55	9615
0	40760	255.557280291212	9614
0	40767	255.564609055566	9612
0	40772	255.582805484293	9609
0	40777	255.590090321425	9607
0	40780	255.597376675125	9606
0	40787	255.605914358436	9604
0	40793	255.651592143293	9595
0	40798	255.72483372258	9580
0	40804	255.823942050785	8930
0	40808	255.831780796586	8853
0	40816	255.872058917702	8462
0	40819	255.88033119376	8382
0	40827	255.911268102162	8200
0	40830	255.919804687528	8200
0	40836	256	8202
0	40927	256.5	8217
0	41000	257	8232
0	41054	257.5	8246
0	41127	258	8261
0	41243	258.5	8276
0	41319	259	8596
0	41420	259.5	8251
0	41489	260	8481
0	41557	260.5	8711
0	41637	261	8941
0	41721	261.5	9234
0	41793	262	9840
0	41798	262.05	9854
0	41804	262.057103714228	9853
0	41807	262.064208149425	9851
0	41812	262.071314027001	9850
0	41820	262.133832113755	9838
0	41823	262.140947381086	9836
0	41830	262.155175156827	9834
0	41837	262.217176637673	9822
0	41842	262.224305789649	9820
0	41848	262.26071402172	9813
0	41853	262.294855839436	9806
0	41859	262.346282648528	9796
0	41864	262.37147494856	9792
0	41869	262.393736866893	9787
0	41874	262.429560951386	9780
0	41880	262.5	9766
0	41990	263	8984
0	42071	263.5	8801
0	42155	264	8691
0	42222	264.5	8740
0	42359	265	9101
0	42459	265.5	9360
0	42551	266	9407
0	42616	266.5	9453
0	42619	266.55	9457
0	42622	266.5574019245	9458
0	42627	266.56480306639	9459
0	42634	266.633889508376	9465
0	42639	266.641285176627	9466
0	42642	266.648680063591	9466
0	42651	266.733947901401	9474
0	42656	266.786283798084	9479
0	42661	266.817921313456	9482
0	42664	266.825303722231	9483
0	42671	266.896622562026	9489
0	42677	266.933841344002	9493
0	42682	266.946656502693	9494
0	42685	266.954029580426	9495
0	42691	267	9499
0	42755	267.5	9545
0	42796	268	9591
0	42845	268.5	9637
0	42929	269	9684
0	43015	269.5	9730
0	43019	269.625638289777	9741
0	43025	269.658624630129	9744
0	43031	269.699448408222	9748
0	43034	269.706629368419	9749
0	43041	269.731159109288	9751
0	43046	269.765959565195	9754
0	43049	269.773136108152	9755
0	43056	269.784108339237	9756
0	43062	269.794838715782	9757
0	43069	269.904588944443	9767
0	43075	269.964576713171	9773
0	43080	269.982116259605	9774
0	43083	269.989278117596	9775
0	43090	270	9776
0	43164	270.5	9822
0	43168	270.55	9827
0	43174	270.583367586984	9830
0	43180	270.600646563608	9831
0	43185	270.622075216363	9833
0	43188	270.629194101749	9834
0	43196	270.688568161176	9840
0	43201	270.73895067815	9844
0	43206	270.760874583073	9846
0	43211	270.87835212301	9857
0	43215	270.885453675206	9858
0	43222	270.954460391598	9864
0	43227	270.963451488328	9865
0	43232	270.998563804428	9868
0	43233	271	9868
0	43241	271.179881496321	9458
0	43244	271.187282638211	9439
0	43251	271.197652748746	9411
0	43256	271.229046236713	9328
0	43261	271.236550524878	9309
0	43264	271.237282638211	9307
0	43275	271.293081094458	9159
0	43284	271.324456160517	9076
0	43287	271.332168809261	9056
0	43297	271.388860015992	8906
0	43302	271.396719885743	8885
0	43310	271.438608951606	8775
0	43317	271.450968732917	8742
0	43323	271.484440172146	8654
0	43328	271.492528917235	8632
0	43331	271.496586159583	8622
0	43332	271.5	8612
0	43410	272	8401
0	43512	272.5	8718
0	43591	273	9080
0	43660	273.5	9332
0	43726	274	9147
0	43824	274.5	8961
0	43935	275	9920
0	43941	275.055914138896	9933
0	43946	275.068193963615	9936
0	43951	275.076303407835	9938
0	43954	275.083347078594	9939
0	43961	275.111927135489	9946
0	43967	275.124898878943	9949
0	43973	275.132623301579	9951
0	43981	275.165442585129	9867
0	43989	275.193172521096	9774
0	43996	275.243530313099	9605
0	44002	275.265995499617	9530
0	44007	275.293236874854	9438
0	44014	275.302109489649	9409
0	44021	275.351805125432	9242
0	44027	275.382473684922	9139
0	44031	275.390133166266	9114
0	44036	275.397813657817	9088
0	44044	275.427850502664	8987
0	44051	275.452735982816	8904
0	44058	275.5	8789
0	44130	276	8839
0	44201	276.5	8890
0	44308	277	9280
0	44386	277.5	9694
0	44489	278	9268
0	44575	278.5	9298
0	44649	279	8895
0	44741	279.5	8492
0	44852	280	8135
0	44992	280.5	8481
0	45062	281	8377
0	45160	281.5	9344
0	45213	282	9460
0	45271	282.5	9576
0	45363	283	9692
0	45460	283.5	9808
0	45465	283.55	9820
0	45466	283.557128309572	9822
0	45473	283.592368938017	9830
0	45478	283.644467243064	9842
0	45483	283.738973332747	9864
0	45488	283.76166726595	9869
0	45493	283.774570314051	9872
0	45497	283.781661075801	9868
0	45504	283.791527335745	9812
0	45507	283.798661457229	9772
0	45515	283.821973883511	9640
0	45520	283.858040625454	9436
0	45523	283.86545902308	9395
0	45528	283.872909794767	9352
0	45535	283.882193092733	9300
0	45541	283.958853391502	9197
0	45544	283.96646456906	9194
0	45551	283.98527321042	9189
0	45555	284	9185
0	45631	284.5	9205
0	45696	285	9515
0	45777	285.5	9393
0	45849	286	9271
0	45987	286.5	9149
0	46086	287	8991
0	46136	287.5	8820
0	46195	288	8650
0	46256	288.5	8415
0	46328	289	8514
0	46434	289.5	8292
0	46506	290	9279
0	46644	290.5	9283
0	46719	291	9095
0	46813	291.5	8730
0	46878	292	8610
0	46948	292.5	9874
0	46953	292.55	9874
0	46954	292.557089325501	9874
0	46959	292.564178651002	9874
0	46967	292.605348279251	9874
0	46972	292.663591866304	9874
0	46977	292.676198535292	9874
0	46983	292.694049833279	9874
0	46988	292.703515632321	9873
0	46993	292.719865261521	9873
0	46998	292.786881815147	9873
0	47003	292.800164139279	9873
0	47009	292.884191792145	9873
0	47014	292.904055803666	9872
0	47019	292.918974746178	9872
0	47024	292.990894490137	9872
0	47028	293	9872
0	47035	293.05	9872
0	47036	293.05709076175	9872
0	47041	293.0641815235	9872
0	47044	293.07127228525	9872
0	47051	293.11532006876	9871
0	47056	293.124182280055	9871
0	47061	293.198755019896	9871
0	47068	293.228592502551	9871
0	47074	293.242022421262	9871
0	47077	293.249113901355	9871
0	47084	293.282219974082	9871
0	47087	293.289311454175	9871
0	47095	293.358497607876	9870
0	47100	293.365872261678	9870
0	47103	293.37296446026	9870
0	47111	293.5	9870
0	47203	294	9867
0	47318	294.5	9906
0	47321	294.62432022591	9935
0	47327	294.638445470339	9938
0	47334	294.689669666886	9950
0	47340	294.714668225241	9869
0	47345	294.726422327264	9768
0	47350	294.735541192146	9689
0	47355	294.759909015619	9478
0	47360	294.767634288464	9411
0	47365	294.785869106039	9253
0	47370	294.832217951189	8852
0	47375	294.858307328062	8626
0	47380	294.875363412619	8479
0	47386	294.916530130402	8368
0	47391	294.925794736907	8376
0	47398	294.980043026116	8422
0	47402	295	8439
0	47473	295.5	8864
0	47524	296	9224
0	47615	296.5	8562
0	47712	297	8525
0	47834	297.5	9765
0	47897	298	8845
0	48010	298.5	9408
0	48074	299	9859
0	48174	299.5	9550
0	48242	300	9241
0	48329	300.5	8932
0	48405	301	8775
0	48478	301.5	8656
0	48541	302	8538
0	48614	302.5	8644
0	48733	303	8914
0	48838	303.5	9183
0	48915	304	9453
0	48985	304.5	8635
0	49097	305	9053
0	49179	305.5	9472
0	49279	306	9729
0	49282	306.039568871225	9707
0	49291	306.18059828118	9628
0	49296	306.212085913251	9611
0	49301	306.235756049448	9597
0	49304	306.243049995473	9593
0	49311	306.278187606627	9574
0	49316	306.302598594406	9560
0	49321	306.5	9450
0	49391	307	9171
0	49473	307.5	8891
0	49552	308	8612
0	49634	308.5	9326
0	49725	309	8945
0	49849	309.5	8563
0	49932	310	8181
0	50031	310.5	8179
0	50109	311	8192
0	50198	311.5	8204
0	50320	312	8216
0	50418	312.5	9272
0	50490	313	9346
0	50578	313.5	9426
0	50642	314	9486
0	50647	314.065348734821	9525
0	50653	314.122110221534	9563
0	50658	314.140204624725	9575
0	50662	314.147515329686	9580
0	50670	314.181032097982	9602
0	50675	314.220065536928	9628
0	50680	314.313109728043	9690
0	50685	314.326822253837	9699
0	50692	314.413890600781	9189
0	50698	314.4546018842	9089
0	50704	314.467734016873	9093
0	50709	314.5	9102
0	50809	315	9245
0	50879	315.5	9389
0	50959	316	9532
0	50962	316.053066788202	9547
0	50967	316.061034033696	9549
0	50973	316.103660806935	9562
0	50979	316.213880564097	9593
0	50986	316.271435057688	9495
0	50990	316.278807358899	9480
0	50995	316.286191325144	9465
0	51002	316.354686078839	9326
0	51007	316.384452092478	9265
0	51012	316.395061783234	9244
0	51017	316.408768671989	9216
0	51021	316.4163641581	9210
0	51028	316.448048092114	9194
0	51033	316.480457917927	9177
0	51038	316.5	9167
0	51133	317	8779
0	51211	317.5	8389
0	51299	318	8174
0	51372	318.5	8251
0	51443	319	8310
0	51485	319.5	8321
0	51611	320	8332
0	51699	320.5	8400
0	51788	321	8481
0	51860	321.5	8706
0	51961	322	9131
0	52040	322.5	9556
0	52132	323	9402
0	52194	323.5	9151
0	52278	324	9263
0	52375	324.5	9492
0	52456	325	9732
0	52533	325.5	9971
0	52542	325.66064801677	9293
0	52548	325.686875716397	9243
0	52555	325.718388421123	9260
0	52561	325.740409477712	9273
0	52569	325.838252318591	9327
0	52574	325.848058263846	9333
0	52582	325.915633533696	9371
0	52588	325.986000843309	9410
0	52591	325.993439738102	9414
0	52594	326	9418
0	52676	326.5	9697
0	52680	326.533352447431	9716
0	52683	326.540557058382	9720
0	52691	326.55978484874	9731
0	52694	326.566978354032	9735
0	52701	326.596230113338	9751
0	52707	326.631824733348	9771
0	52712	326.638988790251	9775
0	52715	326.646149915571	9779
0	52722	326.653308111706	9783
0	52726	326.660463381051	9787
0	52733	326.680012375809	9798
0	52738	326.699905493198	9809
0	52743	326.774339697077	9851
0	52748	326.824151784036	9879
0	52754	326.847318961007	9869
0	52759	326.862519784517	9853
0	52764	326.893957677036	9821
0	52769	326.970090498921	9742
0	52772	326.977275881799	9735
0	52777	326.984466431362	9728
0	52783	327	9712
0	52786	327.09591274753	9613
0	52792	327.104809219661	9604
0	52797	327.12854325113	9580
0	52800	327.135850140483	9572
0	52805	327.143163136722	9565
0	52812	327.193669338173	9513
0	52817	327.208157851406	9498
0	52822	327.259190624166	9446
0	52828	327.284394909634	9420
0	52834	327.376431526656	9325
0	52837	327.383938229069	9317
0	52845	327.44974012828	9250
0	52850	327.457403757748	9242
0	52853	327.464977875904	9234
0	52859	327.5	9198
0	52945	328	8685
0	53029	328.5	9763
0	53111	329	9191
0	53209	329.5	8629
0	53243	330	8360
0	53358	330.5	8431
0	53451	331	8656
0	53544	331.5	9294
0	53635	332	9701
0	53695	332.5	9853
0	53794	333	9165
0	53870	333.5	9070
0	53983	334	9032
0	54073	334.5	8994
0	54146	335	8996
0	54266	335.5	9013
0	54411	336	9030
0	54474	336.5	8878
0	54569	337	9819
0	54642	337.5	9155
0	54752	338	8949
0	54880	338.5	8817
0	54955	339	8923
0	55045	339.5	9884
0	55049	339.55	9848
0	55052	339.557108042242	9842
0	55057	339.564220417775	9837
0	55062	339.571336408423	9832
0	55069	339.584660365833	9822
0	55075	339.611361358096	9803
0	55081	339.640431040877	9781
0	55086	339.664255295235	9764
0	55091	339.723024694079	9721
0	55096	339.754335952803	9698
0	55101	339.787084236022	9674
0	55106	339.826952132582	9645
0	55109	339.834209779031	9640
0	55117	339.903190672874	9589
0	55122	339.912989153559	9582
0	55127	339.922135431562	9575
0	55132	339.938385067773	9563
0	55137	339.95520303114	9551
0	55142	339.978568373187	9534
0	55145	339.985910517093	9529
0	55151	340	9518
0	55154	340.056087236893	9477
0	55159	340.090339930189	9452
0	55165	340.100253502332	9446
0	55170	340.195792343083	9446
0	55178	340.287726192988	9446
0	55183	340.305383954285	9446
0	55188	340.357352959506	9446
0	55195	340.482187464664	9446
0	55200	340.495660610997	9446
0	55201	340.5	9446
0	55207	340.553071155143	9446
0	55213	340.646728217057	9446
0	55218	340.655033776307	9446
0	55223	340.671137615394	9446
0	55228	340.69752835051	9446
0	55237	340.737346609329	9446
0	55243	340.773108830835	9446
0	55251	340.869623516388	9446
0	55256	340.908033617952	9446
0	55263	340.962525433073	9446
0	55270	340.99809336296	9446
0	55271	341	9446
0	55363	341.5	9446
0	55465	342	9446
0	55534	342.5	9446
0	55587	343	9400
0	55596	343.055421751878	9385
0	55597	343.062880462587	9383
0	55604	343.079327276469	9379
0	55611	343.132119598608	9366
0	55617	343.177960523304	9354
0	55624	343.2159451225	9344
0	55629	343.229084387221	9341
0	55632	343.235443952853	9339
0	55645	343.307381304419	9321
0	55651	343.447327125691	9285
0	55654	343.454866167156	9283
0	55662	343.463030760677	9281
0	55667	343.47894039928	9277
0	55672	343.489269683901	9274
0	55676	343.5	9271
0	55721	344	9143
0	55849	344.5	9015
0	55887	345	8887
0	55985	345.5	8549
0	56055	346	9612
0	56058	346.073154630611	9768
0	56064	346.107861849228	9841
0	56071	346.14596415112	9876
0	56076	346.161084577413	9876
0	56082	346.179856829398	9875
0	56087	346.194472042184	9875
0	56094	346.309375220533	9871
0	56099	346.351104983457	9870
0	56104	346.377090533329	9870
0	56108	346.5	9866
0	56193	347	9852
0	56202	347.05	9851
0	56205	347.057105877576	9851
0	56210	347.064211755152	9851
0	56213	347.071317632728	9850
0	56216	347.078424231713	9850
0	56219	347.085530830698	9850
0	56226	347.109589173698	9849
0	56229	347.116696494238	9849
0	56237	347.149409947973	9848
0	56243	347.15682717672	9848
0	56248	347.216573209216	9846
0	56253	347.254846679586	9845
0	56258	347.302649873048	9844
0	56264	347.310745439936	9843
0	56268	347.317857092887	9843
0	56275	347.385242243784	9841
0	56280	347.414746143327	9840
0	56283	347.421859964465	9840
0	56290	347.439394162125	9840
0	56294	347.5	9838
0	56347	348	9823
0	56442	348.5	9809
0	56543	349	9794
0	56600	349.5	9780
0	56603	349.563462008034	9778
0	56608	349.651071645051	9775
0	56613	349.69251363241	9774
0	56618	349.722814339899	9773
0	56623	349.734788032671	9773
0	56628	349.750943827591	9772
0	56634	349.772000407221	9772
0	56639	349.82840197965	9770
0	56644	349.85053742286	9769
0	56649	349.940966117148	9767
0	56653	350	9765
0	56658	350.05	9763
0	56659	350.057169927276	9763
0	56667	350.167087520015	9760
0	56672	350.176276382498	9760
0	56678	350.207756560759	9759
0	56683	350.267631012185	9757
0	56686	350.274805348559	9757
0	56693	350.289529691095	9756
0	56699	350.394066889002	9753
0	56704	350.435978776266	9752
0	56710	350.5	9750
0	56715	350.615170912962	9732
0	56721	350.638488620505	9727
0	56726	350.656110469029	9723
0	56732	350.755088040469	9703
0	56738	350.81626150633	9690
0	56741	350.823485448538	9689
0	56748	350.838653523439	9685
0	56751	350.845881195096	9684
0	56758	350.88619485905	9676
0	56763	350.89376804809	9674
0	56766	350.901003938104	9672
0	56771	350.908241324374	9671
0	56779	350.981480141477	9656
0	56784	350.990875491996	9654
0	56787	350.99812637246	9652
0	56792	351	9652
0	56914	351.5	9888
0	56920	351.516388866961	9902
0	56923	351.523458145895	9908
0	56931	351.530648291736	9914
0	56942	351.584391561605	9841
0	56948	351.634770161817	9688
0	56955	351.732293643354	9392
0	56958	351.739746794972	9370
0	56967	351.790597173944	9273
0	56972	351.797217445986	9266
0	56973	351.798145971528	9265
0	56983	351.807724282183	9255
0	56993	351.865566759388	9194
0	56998	351.877456785971	9182
0	57003	351.912869053073	9144
0	57012	351.978416517951	9075
0	57016	352	9052
0	57109	352.5	8524
0	57162	353	9718
0	57252	353.5	8490
0	57354	354	8560
0	57445	354.5	8801
0	57524	355	9039
0	57585	355.5	8945
0	57659	356	8851
0	57720	356.5	8758
0	57791	357	8664
0	57829	357.5	8570
0	57876	358	8476
0	57940	358.5	8382
0	58025	359	8850
0	58138	359.5	9328
0	58201	360	9805
0	58205	360.05	9853
0	58211	360.147647647332	9887
0	58216	360.186239197664	9852
0	58222	360.236070540733	9807
0	58227	360.25711908382	9788
0	58232	360.271855945235	9775
0	58237	360.283212059617	9765
0	58242	360.296399391327	9753
0	58248	360.303576670113	9748
0	58251	360.31075763031	9747
0	58256	360.317939327242	9746
0	58263	360.325121761061	9744
0	58266	360.332305669107	9743
0	58273	360.37284672868	9736
0	58278	360.392522553047	9733
0	58283	360.411277626145	9730
0	58288	360.42023499877	9728
0	58291	360.427430722454	9727
0	58298	360.468760727225	9720
0	58303	360.481123798429	9718
0	58309	360.489827957751	9716
0	58313	360.5	9715
0	58319	360.55	9706
0	58320	360.557212033794	9705
0	58328	360.633696625359	9692
0	58334	360.697574864061	9681
0	58340	360.809738408925	9662
0	58345	360.816983285762	9660
0	58348	360.824229662574	9659
0	58355	360.864797845855	9652
0	58360	360.874231742845	9651
0	58365	360.96701968039	9635
0	58370	360.998994978865	9629
0	58371	361	9629
0	58377	361.056264684961	9619
0	58382	361.088048056714	9614
0	58388	361.116755970785	9609
0	58397	361.256392433017	9585
0	58402	361.277426782552	9582
0	58408	361.3228822638	9574
0	58414	361.378987575502	9564
0	58420	361.397552033057	9561
0	58425	361.431739477124	9555
0	58434	361.5	9544
0	58443	361.55	9535
0	58444	361.557341373886	9534
0	58447	361.564683517792	9533
0	58450	361.57202643188	9531
0	58455	361.579370886817	9530
0	58464	361.595950332623	9527
0	58469	361.619491893753	9523
0	58474	361.698078929054	9510
0	58480	361.750989225219	9501
0	58486	361.833509024639	9487
0	58493	361.880067322456	9479
0	58496	361.887452067682	9477
0	58503	361.902093046537	9475
0	58509	361.971076649253	9463
0	58514	361.978473880575	9462
0	58517	361.98587189368	9461
0	58523	362	9458
0	58591	362.5	9485
0	58595	362.576638687014	9518
0	58598	362.583993173251	9521
0	58607	362.788348030807	9609
0	58612	362.8172218506	9622
0	58617	362.84136742265	9632
0	58623	362.84967118518	9636
0	58630	362.962654017962	9684
0	58636	362.996696063189	9699
0	58637	363	9700
0	58644	363.055940394813	9724
0	58649	363.070203458536	9731
0	58655	363.119627330973	9752
0	58659	363.126805345739	9755
0	58667	363.140548405026	9761
0	58675	363.286169523896	9824
0	58682	363.352658816794	9690
0	58687	363.362724955195	9604
0	58695	363.45073872863	8853
0	58698	363.458645652836	8785
0	58705	363.499327496355	8438
0	58706	363.5	8432
0	58840	364	8658
0	58917	364.5	9015
0	59016	365	9018
0	59099	365.5	9277
0	59169	366	9185
0	59250	366.5	8997
0	59337	367	9122
0	59424	367.5	9281
0	59492	368	9440
0	59567	368.5	9600
0	59617	369	9759
0	59620	369.051983805548	9775
0	59625	369.075331186357	9783
0	59630	369.097522671541	9790
0	59634	369.104672824759	9774
0	59641	369.184362028851	9538
0	59646	369.192378164206	9514
0	59652	369.211347614046	9458
0	59655	369.218748755936	9436
0	59662	369.241617841748	9368
0	59667	369.264520465711	9300
0	59673	369.342978517782	9067
0	59678	369.469925214775	8691
0	59684	369.491545627823	8627
0	59688	369.5	8602
0	59802	370	9518
0	59876	370.5	9531
0	59953	371	9235
0	60030	371.5	9702
0	60035	371.534275268728	9734
0	60036	371.541466556996	9741
0	60044	371.581836571685	9778
0	60051	371.691519793165	9856
0	60055	371.698622065892	9850
0	60063	371.741182821864	9810
0	60070	371.86993786104	9690
0	60075	371.880637059354	9680
0	60079	372	9568
0	60154	372.5	9101
0	60249	373	8854
0	60350	373.5	8918
0	60456	374	8982
0	60530	374.5	9045
0	60568	375	9109
0	60650	375.5	9173
0	60699	376	9743
0	60705	376.05	9581
0	60706	376.057306126709	9557
0	60713	376.064630600916	9533
0	60716	376.071973515004	9509
0	60723	376.081189986662	9479
0	60732	376.266974364321	8874
0	60737	376.288825077724	8803
0	60743	376.405320129699	8424
0	60750	376.460719985694	8244
0	60755	376.482789234744	8172
0	60759	376.5	8116
0	60843	377	8409
0	60940	377.5	8808
0	61023	378	9006
0	61117	378.5	8719
0	61191	379	9559
0	61194	379.044874304019	9593
0	61201	379.07720459127	9618
0	61208	379.163942926239	9565
0	61213	379.184658589838	9530
0	61216	379.192003815441	9518
0	61223	379.223426771303	9465
0	61228	379.272611451146	9383
0	61233	379.306760431748	9326
0	61239	379.375133782965	9211
0	61244	379.386128412672	9193
0	61248	379.5	9002
0	61351	380	9008
0	61406	380.5	9224
0	61515	381	8860
0	61607	381.5	8816
0	61685	382	8950
0	61785	382.5	9084
0	61844	383	9218
0	61911	383.5	8969
0	61979	384	8429
0	62054	384.5	8344
0	62157	385	8399
0	62251	385.5	8455
0	62325	386	8532
0	62406	386.5	9082
0	62502	387	9426
0	62568	387.5	9229
0	62645	388	9033
0	62726	388.5	8836
0	62844	389	8639
0	62952	389.5	8783
0	63018	390	9036
0	63108	390.5	9288
0	63176	391	9884
0	63180	391.05	9871
0	63185	391.110973231279	9855
0	63191	391.148145893522	9845
0	63196	391.159044867031	9842
0	63201	391.172038674987	9839
0	63206	391.186530653654	9835
0	63209	391.193648091376	9833
0	63216	391.217090203544	9827
0	63221	391.249539354479	9819
0	63224	391.256668390022	9817
0	63232	391.301459508702	9805
0	63238	391.358458498565	9791
0	63243	391.419295251841	9775
0	63248	391.429448735589	9772
0	63253	391.441204379172	9769
0	63256	391.448369902767	9767
0	63262	391.5	9754
0	63265	391.55	9741
0	63270	391.56287454693	9738
0	63276	391.593068413164	9730
0	63281	391.620652365454	9723
0	63286	391.665594946529	9711
0	63292	391.758488566216	9687
0	63298	391.816271885325	9672
0	63303	391.869689051129	9658
0	63308	391.96341008671	9634
0	63311	391.970676019863	9632
0	63316	391.977943461723	9630
0	63322	392	9624
0	63421	392.5	9494
0	63469	393	9365
0	63557	393.5	9235
0	63627	394	9105
0	63722	394.5	8988
0	63807	395	8942
0	63887	395.5	8897
0	63957	396	8852
0	64043	396.5	9750
0	64049	396.605239543841	9686
0	64054	396.64352178578	9663
0	64057	396.650765912863	9659
0	64065	396.799457816047	9570
0	64070	396.836337789711	9548
0	64076	396.900884540078	9509
0	64079	396.908245987128	9504
0	64086	396.951792456411	9478
0	64089	396.959177980783	9474
0	64097	396.971900519169	9466
0	64102	397	9449
0	64173	397.5	9149
0	64242	398	8849
0	64328	398.5	8549
0	64379	399	8571
0	64454	399.5	8700
0	64502	400	8830
1	1642	10	8906
1	1707	10.5	8735
1	1753	11	8564
1	1838	11.5	8393
1	1918	12	8222
1	2043	12.5	8115
1	2118	13	9310
1	2164	13.5	9436
1	2245	14	9420
1	2319	14.5	9403
1	2418	15	9387
1	2492	15.5	9405
1	2573	16	9451
1	2636	16.5	9497
1	2736	17	9543
1	2843	17.5	9431
1	2938	18	9030
1	3032	18.5	8693
1	3107	19	8595
1	3161	19.5	8511
1	3213	20	8446
1	3289	20.5	8382
1	3363	21	8404
1	3429	21.5	8932
1	3511	22	9394
1	3600	22.5	9165
1	3700	23	8937
1	3811	23.5	8709
1	3910	24	8480
1	3990	24.5	8252
1	4097	25	8974
1	4180	25.5	9019
1	4262	26	8873
1	4336	26.5	8726
1	4398	27	8579
1	4462	27.5	8297
1	4560	28	8511
1	4640	28.5	8726
1	4791	29	8941
1	4850	29.5	9146
1	4935	30	9258
1	5020	30.5	9369
1	5086	31	9481
1	5137	31.5	9416
1	5207	32	9092
1	5287	32.5	8664
1	5399	33	8411
1	5467	33.5	9105
1	5529	34	9005
1	5606	34.5	8830
1	5680	35	8654
1	5767	35.5	8959
1	5847	36	9280
1	5935	36.5	9602
1	6025	37	9839
1	6039	37.053979387698	9825
1	6040	37.061104069632	9823
1	6043	37.068230202178	9822
1	6048	37.075357060252	9820
1	6051	37.082485369824	9818
1	6054	37.089615131486	9816
1	6061	37.102903853204	9813
1	6073	37.192240530478	9790
1	6078	37.207923609371	9786
1	6081	37.215076685194	9785
1	6088	37.23565538315	9779
1	6094	37.25388264342	9775
1	6099	37.26104376874	9773
1	6102	37.265076685194	9772
1	6111	37.279981369065	9768
1	6117	37.294663145386	9765
1	6128	37.377483304621	9744
1	6134	37.411554843649	9735
1	6137	37.418745393212	9733
1	6142	37.425937420336	9731
1	6152	37.5	9713
1	6244	38	9587
1	6289	38.5	9461
1	6363	39	9335
1	6433	39.5	9209
1	6496	40	9438
1	6556	40.5	9672
1	6638	41	9906
1	6647	41.053873706272	9681
1	6648	41.061104364262	9594
1	6656	41.110168404826	9059
1	6663	41.140604942455	9010
1	6666	41.148374087849	8997
1	6671	41.156154459084	8984
1	6679	41.190109003138	8929
1	6685	41.204421116662	8906
1	6692	41.224731252241	8873
1	6698	41.259109588695	8818
1	6701	41.262280986413	8812
1	6709	41.277586069854	8788
1	6717	41.319314898327	8720
1	6729	41.403981697123	8727
1	6734	41.413929388146	8733
1	6742	41.48770170069	8776
1	6745	41.495677999687	8781
1	6748	41.5	8784
1	6861	42	9078
1	6915	42.5	9373
1	7003	43	9668
1	7011	43.0568773939	9701
1	7014	43.064093144854	9706
1	7018	43.071305178648	9710
1	7028	43.152739174122	9758
1	7033	43.174080850172	9770
1	7038	43.205464854452	9789
1	7044	43.219874374678	9797
1	7050	43.239658309524	9809
1	7061	43.362968606467	9880
1	7066	43.394412689292	9880
1	7069	43.401497709535	9880
1	7076	43.414746384758	9880
1	7079	43.42005362671	9880
1	7088	43.455762819364	9880
1	7094	43.470486187898	9880
1	7101	43.5	9880
1	7104	43.512847839607	9881
1	7110	43.538755328778	9881
1	7116	43.599109044769	9881
1	7122	43.636782710849	9881
1	7127	43.654823375099	9882
1	7133	43.672542613947	9882
1	7136	43.679626200266	9882
1	7146	43.927054117717	9883
1	7151	44	9884
1	7154	44.073194643865	9884
1	7160	44.088374125329	9884
1	7165	44.109180435913	9885
1	7171	44.153910510434	9885
1	7177	44.251026922189	9886
1	7182	44.286550485732	9886
1	7187	44.325570825624	9886
1	7192	44.384263541279	9887
1	7197	44.395120405593	9887
1	7201	44.5	9887
1	7204	44.55	9888
1	7207	44.557079288026	9888
1	7215	44.632238753094	9888
1	7220	44.742313667439	9889
1	7225	44.792934432464	9889
1	7228	44.800013004615	9889
1	7235	44.839085770411	9890
1	7240	44.850207697359	9890
1	7245	44.864512815257	9890
1	7248	44.871590671678	9890
1	7253	44.878668528099	9890
1	7261	44.923828800798	9890
1	7266	44.930906657219	9890
1	7271	44.93798451364	9890
1	7276	44.945062370061	9890
1	7279	44.952140226482	9890
1	7286	44.96153481341	9890
1	7291	44.972103238532	9891
1	7297	44.997938024521	9891
1	7298	45	9891
1	7305	45.069638435002	9891
1	7312	45.121549504283	9892
1	7316	45.128625929677	9892
1	7326	45.240046062191	9892
1	7332	45.25992213145	9893
1	7335	45.266997841548	9893
1	7342	45.278052494724	9893
1	7345	45.285128204822	9893
1	7353	45.312660919291	9893
1	7363	45.343840802357	9893
1	7370	45.440308260069	9894
1	7375	45.488190150817	9894
1	7381	45.5	9894
1	7387	45.587118489787	9895
1	7394	45.653088751284	9895
1	7397	45.660163031223	9895
1	7405	45.751095360217	9896
1	7411	45.782835568973	9896
1	7417	45.926333269216	9897
1	7421	46	9898
1	7427	46.05	9898
1	7429	46.057072135785	9898
1	7436	46.075175918656	9898
1	7441	46.091926098643	9898
1	7446	46.100244404132	9898
1	7449	46.107316539917	9898
1	7456	46.156527565937	9899
1	7461	46.196951674612	9899
1	7466	46.204286431612	9899
1	7471	46.241713018655	9899
1	7478	46.321872021352	9900
1	7483	46.391205456716	9900
1	7488	46.398276163787	9900
1	7493	46.405346870858	9900
1	7496	46.412417577929	9900
1	7503	46.422515317374	9900
1	7509	46.456305570363	9901
1	7515	46.486758367226	9901
1	7519	46.5	9901
1	7529	46.55	9901
1	7530	46.55706999293	9901
1	7533	46.56413998586	9901
1	7536	46.57120997879	9902
1	7544	46.670173779051	9902
1	7549	46.738883094185	9903
1	7554	46.818297012217	9903
1	7557	46.825365577298	9903
1	7563	46.832434142379	9903
1	7570	46.853738208242	9903
1	7575	46.876170248054	9904
1	7578	46.883238099427	9904
1	7585	46.903349978066	9904
1	7590	46.924726374186	9904
1	7595	46.949578836284	9904
1	7599	47	9904
1	7689	47.5	9211
1	7772	48	8505
1	7897	48.5	8687
1	7960	49	9123
1	8021	49.5	8954
1	8159	50	8300
1	8249	50.5	8296
1	8351	51	8347
1	8397	51.5	8361
1	8531	52	8376
1	8593	52.5	8390
1	8663	53	8470
1	8744	53.5	8604
1	8809	54	8739
1	8850	54.5	8873
1	8948	55	9007
1	9014	55.5	9141
1	9122	56	9275
1	9127	56.05	9289
1	9128	56.057535795026	9291
1	9135	56.077371568186	9296
1	9143	56.207742171279	9331
1	9148	56.240787115101	9340
1	9153	56.335165834988	9365
1	9156	56.342640474604	9367
1	9163	56.352663284474	9370
1	9169	56.446498112615	9395
1	9174	56.456203876128	9398
1	9179	56.495416444024	9408
1	9180	56.5	9410
1	9285	57	9544
1	9289	57.054598032868	9558
1	9294	57.07587913977	9564
1	9299	57.091060956403	9568
1	9305	57.123148041912	9577
1	9311	57.20288888291	9598
1	9317	57.24004324898	9614
1	9322	57.291476915035	9644
1	9327	57.307817441246	9653
1	9333	57.323296932861	9662
1	9339	57.361913318456	9685
1	9345	57.395932492214	9684
1	9351	57.41729766622	9674
1	9357	57.429214402924	9668
1	9360	57.436454783561	9665
1	9369	57.5	9634
1	9513	58	9395
1	9592	58.5	9156
1	9696	59	8916
1	9771	59.5	8677
1	9824	60	8850
1	9897	60.5	8850
1	10006	61	8462
1	10092	61.5	8703
1	10170	62	8943
1	10218	62.5	9089
1	10305	63	9191
1	10399	63.5	9294
1	10474	64	9396
1	10550	64.5	9535
1	10553	64.55	9551
1	10558	64.582919562849	9562
1	10563	64.612788236867	9571
1	10568	64.626008216561	9575
1	10577	64.72749066944	9640
1	10583	64.764974096063	9696
1	10588	64.79369046094	9739
1	10593	64.819184950079	9777
1	10599	64.848292453424	9821
1	10604	64.871515712397	9856
1	10607	64.878617985124	9867
1	10617	64.954353747011	9617
1	10620	64.961632524176	9534
1	10627	64.986511273245	9249
1	10632	65	9095
1	10694	65.5	8866
1	10784	66	9259
1	10861	66.5	9260
1	10934	67	9153
1	11014	67.5	9047
1	11093	68	8941
1	11165	68.5	8907
1	11196	69	8936
1	11283	69.5	8965
1	11366	70	8993
1	11500	70.5	9022
1	11573	71	9051
1	11683	71.5	9020
1	11740	72	8988
1	11799	72.5	9198
1	11870	73	9652
1	11978	73.5	9361
1	12096	74	8841
1	12189	74.5	8492
1	12283	75	9016
1	12380	75.5	9140
1	12454	76	8212
1	12513	76.5	8821
1	12577	77	9307
1	12656	77.5	9445
1	12715	78	9582
1	12788	78.5	9508
1	12879	79	8645
1	12957	79.5	8509
1	13005	80	8853
1	13079	80.5	9222
1	13186	81	9553
1	13296	81.5	8077
1	13351	82	9123
1	13439	82.5	9312
1	13522	83	9227
1	13601	83.5	9266
1	13657	84	9324
1	13713	84.5	9381
1	13813	85	9439
1	13883	85.5	9496
1	13964	86	9554
1	14026	86.5	9370
1	14078	87	8820
1	14179	87.5	9106
1	14292	88	9391
1	14358	88.5	9677
1	14402	89	9222
1	14480	89.5	8518
1	14516	90	9843
1	14519	90.056046485402	9836
1	14524	90.093661419043	9832
1	14530	90.229355040165	9817
1	14535	90.322643991248	9807
1	14541	90.391857959112	9799
1	14546	90.427949755437	9795
1	14551	90.443520460878	9793
1	14556	90.453429959248	9792
1	14560	90.5	9787
1	14565	90.55	9781
1	14566	90.55715673244	9780
1	14573	90.578826309174	9778
1	14578	90.660475230278	9769
1	14583	90.680149194445	9767
1	14588	90.769477974902	9757
1	14591	90.776652311276	9756
1	14599	90.806300322778	9753
1	14607	90.857758484601	9747
1	14610	90.864940181533	9746
1	14617	90.885772229399	9744
1	14622	90.896354024276	9743
1	14629	90.950347141883	9737
1	14632	90.957536214493	9736
1	14639	91	9731
1	14747	91.5	9674
1	14750	91.609074253506	9661
1	14755	91.61710421676	9660
1	14758	91.624350593572	9659
1	14766	91.719048214021	9647
1	14771	91.733096092726	9645
1	14777	91.749440309999	9643
1	14780	91.756699461715	9642
1	14787	91.766372641767	9641
1	14792	91.780455704162	9639
1	14797	91.802676027695	9637
1	14802	91.816191012585	9635
1	14807	91.833730940175	9633
1	14814	91.936415049598	9620
1	14819	91.950867070245	9618
1	14824	92	9612
1	14891	92.5	9550
1	14898	92.634024172356	9533
1	14903	92.722891346212	9522
1	14906	92.730242742977	9521
1	14911	92.737594911867	9520
1	14918	92.806864769036	9511
1	14923	92.847683062228	9506
1	14928	92.859881161132	9505
1	14934	92.991549919536	9488
1	14938	93	9487
1	15016	93.5	9425
1	15101	94	8182
1	15161	94.5	9824
1	15218	95	9800
1	15309	95.5	9224
1	15418	96	8647
1	15523	96.5	8190
1	15614	97	8279
1	15666	97.5	8369
1	15732	98	8318
1	15802	98.5	8266
1	15909	99	8214
1	15973	99.5	8162
1	16035	100	8110
1	16095	100.5	8533
1	16197	101	9030
1	16252	101.5	9528
1	16255	101.569678349182	9597
1	16259	101.576972295207	9604
1	16266	101.584260924945	9611
1	16273	101.591544246139	9619
1	16276	101.598821509888	9626
1	16279	101.606093481631	9633
1	16286	101.659079028841	9686
1	16291	101.672399636714	9699
1	16294	101.679616875605	9706
1	16301	101.687495567372	9714
1	16310	101.801805582621	9797
1	16315	101.812111566295	9794
1	16321	101.862101365621	9783
1	16327	101.910696880105	9772
1	16332	101.928834700777	9768
1	16338	102	9752
1	16414	102.5	9638
1	16417	102.581757291509	9619
1	16422	102.605558946366	9614
1	16428	102.626985429354	9609
1	16433	102.664440755641	9600
1	16438	102.689586195715	9595
1	16443	102.711220846254	9590
1	16448	102.794935075705	9571
1	16454	102.89068949364	9549
1	16459	102.900590875969	9547
1	16467	102.976218183335	9529
1	16472	102.98691550195	9527
1	16476	103	9524
1	16568	103.5	9412
1	16654	104	9299
1	16716	104.5	9187
1	16787	105	9074
1	16856	105.5	8962
1	16965	106	8722
1	17039	106.5	9637
1	17091	107	9495
1	17101	107.138055483513	9484
1	17106	107.155157803056	9483
1	17109	107.162539433342	9482
1	17117	107.206114059336	9479
1	17123	107.213646208607	9478
1	17126	107.219921842117	9477
1	17131	107.222515388828	9477
1	17144	107.349056943582	9467
1	17149	107.356451049423	9467
1	17153	107.363845155264	9466
1	17158	107.371240042228	9466
1	17166	107.407369710586	9463
1	17174	107.428090536662	9461
1	17180	107.442927225352	9460
1	17186	107.5	9456
1	17262	108	9416
1	17324	108.5	9377
1	17399	109	9338
1	17476	109.5	9299
1	17555	110	9302
1	17559	110.055741574879	9304
1	17565	110.128648627341	9307
1	17571	110.1701396652	9309
1	17574	110.177659269884	9309
1	17581	110.225539793587	9311
1	17586	110.249173236116	9312
1	17592	110.304066036811	9314
1	17597	110.348316094923	9316
1	17603	110.408989733945	9319
1	17610	110.45588936155	9320
1	17615	110.472753063133	9321
1	17620	110.5	9322
1	17716	111	9343
1	17776	111.5	9363
1	17835	112	9383
1	17916	112.5	9404
1	17924	112.55	9406
1	17925	112.557442058261	9406
1	17932	112.564884116522	9406
1	17935	112.572326174783	9407
1	17940	112.579767441924	9407
1	17945	112.587208709065	9407
1	17948	112.594649976206	9408
1	17956	112.694820401827	9412
1	17961	112.710330370316	9412
1	17966	112.748712419243	9414
1	17971	112.768703750231	9415
1	17976	112.822933369823	9417
1	17981	112.854218504426	9418
1	17986	112.87958771021	9419
1	17993	112.924441732815	9421
1	17998	112.940399559772	9422
1	18003	112.953776069703	9422
1	18008	112.970014763459	9423
1	18013	112.983976866795	9423
1	18018	112.995154337186	9424
1	18021	113	9424
1	18112	113.5	9444
1	18115	113.524240178798	9445
1	18120	113.541499668242	9446
1	18126	113.586093398086	9448
1	18131	113.599354963147	9448
1	18137	113.734586314286	9454
1	18142	113.743984175776	9454
1	18147	113.824165876042	9458
1	18152	113.881166118178	9460
1	18158	113.912092926449	9461
1	18161	113.919491721502	9461
1	18168	113.944174863865	9462
1	18173	113.953738625786	9463
1	18176	113.961135857108	9463
1	18181	113.96853308843	9463
1	18187	114	9465
1	18190	114.19571651986	9473
1	18195	114.228460838198	9474
1	18198	114.235849480799	9474
1	18205	114.252816752596	9475
1	18210	114.30001109973	9477
1	18215	114.338086023414	9478
1	18220	114.398301927371	9481
1	18223	114.405685114798	9481
1	18231	114.420046893603	9482
1	18236	114.434773571562	9482
1	18241	114.442446143607	9483
1	18246	114.468820605008	9484
1	18249	114.476201456969	9484
1	18255	114.5	9485
1	18345	115	9505
1	18348	115.063181812606	9508
1	18354	115.201257082729	9514
1	18360	115.364796687702	9520
1	18365	115.38392164963	9521
1	18370	115.391683241828	9521
1	18375	115.422517943532	9523
1	18380	115.459952321372	9524
1	18385	115.491258356279	9525
1	18390	115.498607437644	9526
1	18393	115.5	9526
1	18399	115.555955747533	9528
1	18401	115.563302514955	9528
1	18408	115.578785148963	9529
1	18417	115.640254804249	9531
1	18423	115.692684478182	9534
1	18429	115.733060197255	9535
1	18435	115.779378046197	9537
1	18442	115.798282935098	9538
1	18445	115.805621999891	9538
1	18452	115.820742019099	9539
1	18458	115.841914112585	9540
1	18464	115.859394098863	9540
1	18470	115.877107699714	9541
1	18477	115.908289041502	9542
1	18483	115.925346957071	9543
1	18491	116	9546
1	18593	116.5	8225
1	18657	117	8695
1	18752	117.5	9858
1	18755	117.55	9825
1	18760	117.572013221557	9810
1	18763	117.5791487975	9805
1	18770	117.631744650332	9770
1	18775	117.737375491202	9699
1	18778	117.744592730093	9695
1	18783	117.751812946699	9690
1	18790	117.764567862198	9681
1	18795	117.791666144589	9663
1	18800	117.817353971043	9646
1	18806	117.919275871538	9578
1	18811	117.94031534799	9564
1	18816	117.961995727611	9549
1	18821	118	9524
1	18826	118.05	9490
1	18827	118.057376185458	9486
1	18834	118.135505483478	9433
1	18840	118.256736947459	9352
1	18845	118.312884555731	9315
1	18850	118.333910134218	9301
1	18853	118.341436206683	9296
1	18860	118.395926974321	9259
1	18865	118.453131862148	9221
1	18870	118.493185094136	9194
1	18873	118.5	9190
1	18965	119	8856
1	19031	119.5	8732
1	19116	120	9098
1	19166	120.5	9675
1	19265	121	9335
1	19371	121.5	8995
1	19478	122	8655
1	19568	122.5	8315
1	19654	123	8152
1	19732	123.5	8152
1	19831	124	8152
1	19942	124.5	8204
1	20075	125	9388
1	20161	125.5	9465
1	20247	126	9542
1	20340	126.5	9376
1	20433	127	9111
1	20496	127.5	9209
1	20562	128	9274
1	20614	128.5	9018
1	20697	129	8763
1	20760	129.5	8508
1	20796	130	8253
1	20850	130.5	8364
1	20917	131	8614
1	21006	131.5	8863
1	21082	132	9113
1	21168	132.5	8612
1	21239	133	8427
1	21359	133.5	8586
1	21443	134	8968
1	21525	134.5	8692
1	21607	135	8629
1	21701	135.5	8896
1	21780	136	9182
1	21851	136.5	9434
1	21930	137	9548
1	22018	137.5	9663
1	22091	138	9777
1	22095	138.05	9789
1	22101	138.084277069494	9796
1	22106	138.105112428647	9801
1	22111	138.140417569407	9809
1	22114	138.147553872802	9811
1	22122	138.181963819313	9731
1	22125	138.189157324605	9615
1	22130	138.196437615817	9497
1	22137	138.207004924208	9325
1	22143	138.256582285523	8912
1	22149	138.33244052243	8618
1	22154	138.356073251753	8526
1	22157	138.364283432377	8495
1	22162	138.372523573637	8463
1	22170	138.429805914325	8241
1	22175	138.442871764866	8190
1	22179	138.451418773413	8185
1	22186	138.477314519135	8245
1	22191	138.498712190775	8294
1	22192	138.5	8297
1	22266	139	9453
1	22366	139.5	9124
1	22424	140	9111
1	22506	140.5	9098
1	22574	141	9085
1	22651	141.5	8947
1	22724	142	8727
1	22806	142.5	8508
1	22899	143	8288
1	22978	143.5	8069
1	23122	144	8057
1	23220	144.5	8105
1	23290	145	8377
1	23362	145.5	9063
1	23446	146	9749
1	23453	146.05	9818
1	23454	146.057129761662	9827
1	23457	146.064252993574	9837
1	23464	146.082292143231	9862
1	23470	146.211088535576	8910
1	23475	146.223665560444	8806
1	23478	146.23161468604	8741
1	23485	146.24946750241	8594
1	23491	146.344313659222	8039
1	23498	146.424278462669	8073
1	23504	146.434480769876	8077
1	23508	146.5	8105
1	23567	147	8319
1	23673	147.5	8532
1	23785	148	8746
1	23862	148.5	8959
1	23945	149	8929
1	24029	149.5	8817
1	24090	150	8704
1	24188	150.5	8591
1	24283	151	8478
1	24334	151.5	8365
1	24404	152	8473
1	24515	152.5	8997
1	24600	153	9268
1	24652	153.5	8752
1	24742	154	8237
1	24817	154.5	8402
1	24879	155	8659
1	24944	155.5	8917
1	25032	156	9120
1	25091	156.5	9124
1	25198	157	9128
1	25274	157.5	8672
1	25369	158	8520
1	25442	158.5	8634
1	25504	159	9158
1	25558	159.5	9627
1	25565	159.55	9634
1	25569	159.557265933153	9635
1	25572	159.564531112188	9636
1	25575	159.571795537261	9637
1	25583	159.670580307772	9650
1	25588	159.681922492217	9651
1	25593	159.737723372779	9659
1	25596	159.744970499811	9660
1	25603	159.75760486575	9661
1	25609	159.779369259912	9664
1	25614	159.845991515242	9673
1	25620	159.932705580015	9684
1	25626	159.968561287055	9689
1	25631	160	9693
1	25638	160.05	9699
1	25643	160.057217238891	9700
1	25646	160.064433733736	9701
1	25649	160.07164948469	9702
1	25652	160.078864491905	9703
1	25659	160.166376334244	9715
1	25664	160.17769204525	9716
1	25669	160.189828537226	9718
1	25674	160.20559616625	9720
1	25680	160.244367006521	9725
1	25685	160.296848161317	9732
1	25691	160.353923135905	9739
1	25698	160.473322662424	9755
1	25703	160.490359147083	9757
1	25707	160.5	9758
1	25712	160.55	9765
1	25713	160.557168458781	9766
1	25720	160.569985567978	9768
1	25725	160.605964888813	9772
1	25730	160.79072600511	9797
1	25736	160.821743042254	9801
1	25741	160.869661864394	9807
1	25746	160.915909216943	9813
1	25752	160.951298496549	9818
1	25756	161	9824
1	25763	161.05	9831
1	25764	161.057120333638	9832
1	25769	161.064239943077	9832
1	25772	161.071359552516	9833
1	25779	161.175017765103	9847
1	25787	161.260640538757	9858
1	25792	161.272193426917	9860
1	25797	161.280047468958	9861
1	25800	161.287146140492	9862
1	25808	161.347400287604	9870
1	25813	161.364378182575	9872
1	25818	161.406090933352	9877
1	25823	161.5	9831
1	25828	161.55	9761
1	25829	161.557171396373	9751
1	25836	161.5890247546	9707
1	25841	161.615389108686	9670
1	25846	161.623063421017	9659
1	25851	161.650456118007	9621
1	25857	161.786865537408	9431
1	25862	161.830683841004	9370
1	25867	161.873106054554	9311
1	25872	161.898544742881	9275
1	25878	161.954741612001	9197
1	25883	161.962352789559	9187
1	25886	161.969972251843	9176
1	25892	162	9134
1	25966	162.5	8437
1	26039	163	8092
1	26102	163.5	8571
1	26167	164	9704
1	26248	164.5	9785
1	26341	165	9308
1	26396	165.5	9842
1	26464	166	8129
1	26538	166.5	8231
1	26637	167	8528
1	26703	167.5	8824
1	26774	168	9121
1	26860	168.5	9156
1	26946	169	8865
1	27000	169.5	9253
1	27058	170	9586
1	27061	170.050344926925	9600
1	27066	170.059593281561	9602
1	27073	170.109178739083	9616
1	27078	170.124440981461	9620
1	27084	170.146748698521	9626
1	27089	170.157424389603	9629
1	27094	170.180963777493	9635
1	27099	170.19664477039	9640
1	27104	170.203906181178	9641
1	27109	170.211166838786	9643
1	27113	170.218425990502	9645
1	27120	170.225694542767	9647
1	27127	170.248001381525	9653
1	27133	170.324583202837	9674
1	27138	170.336758128337	9677
1	27143	170.34917131464	9681
1	27152	170.489423948154	9719
1	27156	170.5	9722
1	27162	170.55	9735
1	27163	170.557190549563	9737
1	27171	170.611181110538	9752
1	27176	170.63583250003	9758
1	27182	170.681449665072	9771
1	27185	170.688613721975	9773
1	27193	170.707250260275	9773
1	27199	170.718386089427	9725
1	27204	170.770936774627	9497
1	27209	170.779832310017	9459
1	27212	170.787232669463	9427
1	27219	170.816951519249	9298
1	27225	170.83881029213	9204
1	27231	170.915191033906	9042
1	27234	170.922932683983	9044
1	27241	170.948845778422	9051
1	27246	170.958158394011	9053
1	27251	170.994317336387	9062
1	27254	171	9064
[...]
23	49551	307.987599800091	0.55895739720434
23	49643	308.546557197295	1.0263212538081
23	49857	309.572878451103	0.55837282414016
23	49963	310.131251275243	0.5785309012101
23	50055	310.709782176453	0.32466061734193
23	50112	311.034442793795	4.2615685077941
23	50844	315.296011301589	0.517538354055
23	50927	315.813549655644	0.27882963253486
23	50971	316.092379288179	4.630933818017
23	51742	320.723313106196	0.84543106870632
23	51876	321.568744174902	0.58975630804491
23	51974	322.158500482947	1.425492140159
23	52208	323.583992623106	0.5183302827941
23	52295	324.1023229059	0.26497494524904
23	52349	324.367297851149	0.67788637243832
23	52461	325.045184223587	0.13278845117369
23	52507	325.177972674761	1.3512587130827
23	52678	326.529231387844	0.5754570948023
23	52790	327.104688482646	0.84352752051243
23	52938	327.948216003158	0.021864909637454
23	52944	327.970080912795	0.60230434367264
23	53042	328.572385256468	0.33861933965901
23	53095	328.911004596127	0.45233368372738
23	53171	329.363338279854	0.5852866115323
23	53241	329.948624891386	4.746309517976
23	54101	334.694934409362	0.20672061599297
23	54140	334.901655025355	1.6139552336879
23	54477	336.515610259043	0.74411958513031
23	54614	337.259729844173	0.98503870975712
23	54821	338.24476855393	0.027455464941022
23	54829	338.272224018871	1.3577046061901
23	55079	339.629928625061	0.6472881294183
23	55175	340.277216754479	0.0081198671748602
23	55176	340.285336621654	1.0132907083054
23	55328	341.298627329959	0.59914789807117
23	55452	341.89777522803	1.408230117987
23	55643	343.306005346017	0.72617607225663
23	55729	344.032181418274	0.6548199859832
23	55870	344.687001404257	0.91209028285143
23	55996	345.599091687108	0.11524233257907
23	56012	345.714334019687	1.0228765555257
23	56142	346.737210575213	1.9962373149076
23	56484	348.733447890121	0.17021467250113
23	56526	348.903662562622	1.5468095761447
23	56708	350.450472138767	0.56602689336054
23	56798	351.016499032128	0.033439875726896
23	56801	351.049938907855	0.34007282905863
23	56877	351.390011736914	0.47363325734462
23	56990	351.863644994259	0.090785769099708
23	57009	351.954430763359	1.8265866338605
23	57294	353.78101739722	0.094352484795462
23	57320	353.875369882015	1.0511333437237
23	57507	354.926503225739	0.17500759288793
23	57537	355.101510818627	0.4986761719883
23	57594	355.600186990615	0.11180903654053
23	57624	355.711996027156	0.47975445988931
23	57683	356.191750487045	0.27881425264275
23	57714	356.470564739688	1.0088564673468
23	57822	357.479421207035	0.0094297455291515
23	57825	357.488850952564	0.27731784998994
23	57848	357.766168802554	0.57459928934381
23	57914	358.340768091898	0.83765261516914
23	58063	359.178420707067	3.0747713588692
23	58542	362.253192065936	2.2815816397705
23	58920	364.534773705707	0.30854419027933
23	59000	364.843317895986	2.6218223263402
23	59417	367.465140222326	0.63031172488637
23	59512	368.095451947212	0.85270331730344
23	59611	368.948155264515	0.77376400468018
23	59726	369.721919269195	0.078639366660445
23	59739	369.800558635855	0.11981330170305
23	59775	369.920371937558	0.67106998074287
23	59895	370.591441918301	0.86018950827604
23	60021	371.451631426577	0.044944678907242
23	60029	371.496576105484	1.0401903620623
23	60163	372.536766467546	0.56378927749546
23	60273	373.100555745041	0.62075277463987
23	60397	373.721308519681	0.74260640570068
23	60524	374.463914925382	0.3992392274992
23	60561	374.863154152881	1.852328525256
23	60789	376.715482678137	1.2686556552804
23	61022	377.984138333417	1.5897698638956
23	61261	379.573908197313	0.4210678388266
23	61350	379.99497603614	4.9306444668776
23	62145	384.925620503018	0.35923964885634
23	62195	385.284860151874	1.10915280706
23	62394	386.394012958934	1.3745705658817
23	62608	387.768583524816	2.8208554080057
23	63123	390.589438932822	0.45157763164851
23	63179	391.041016564471	1.6618504877112
23	63445	392.702867052182	2.5752290277002
23	63868	395.278096079882	1.8137552924469
23	64114	397.091851372329	0.18171281510329
23	64150	397.273564187432	1.3113902506107
23	64337	398.584954438043	2.7772557168719
24	2365	14.694997286335	0.43967405442543
24	2427	15.13467134076	0.87391368060988
24	2574	16.00858502137	2.458953234254
24	3026	18.467538255624	1.0831760170536
24	3164	19.550714272678	0.14381749864963
24	3175	19.694531771328	0.64787444522696
24	3263	20.342406216555	0.91374390912158
24	3402	21.256150125677	0.42501177435329
24	3447	21.68116190003	2.2551838808788
24	3894	23.936345780909	0.7688490026619
24	4023	24.705194783571	1.2023761550254
24	4246	25.907570938596	0.33631747386842
24	4306	26.243888412464	0.026738453737199
24	4307	26.270626866201	0.79739014047039
24	4406	27.068017006671	1.0308922230364
24	4574	28.098909229707	1.6038809522826
24	4882	29.70279018199	0.019167659521677
24	4884	29.721957841512	1.1039074314704
24	5059	30.825865272982	0.95517338546873
24	5174	31.781038658451	1.3620390347451
24	5417	33.143077693196	1.5010455147374
24	5618	34.644123207933	0.5352208710624
24	5707	35.179344078995	1.3340835296095
24	5936	36.513427608604	1.8451455877055
24	6269	38.358573196309	3.3461597666097
24	6799	41.704732962919	0.13378121731505
24	6821	41.838514180234	1.6354305130042
24	7096	43.473944693238	1.4106403630445
24	7256	44.884585056283	0.25956152164633
24	7322	45.144146577929	0.19169675516239
24	7360	45.335843333091	0.1609628772843
24	7379	45.496806210375	1.0284868503347
24	7528	46.52529306071	0.30040318238211
24	7560	46.825696243092	1.1789525800171
24	7776	48.004648823109	1.4368942026365
24	8019	49.441543025746	0.23145140511917
24	8057	49.672994430865	1.9083310872842
24	8419	51.581325518149	1.3021846350405
24	8649	52.88351015319	0.45552742292915
24	8729	53.339037576119	1.1846688142406
24	8853	54.52370639036	1.0982746432218
24	9023	55.621981033582	0.56586821992889
24	9141	56.187849253511	0.62259414149864
24	9258	56.81044339501	0.30207856352281
24	9303	57.112521958533	0.28710848763945
24	9346	57.399630446172	2.894239018021
24	9877	60.293869464193	0.47481906243599
24	9946	60.768688526629	1.1819955072578
24	10162	61.950684033887	0.44241683776017
24	10215	62.393100871647	0.45454931891953
24	10296	62.847650190567	0.22646036263016
24	10317	63.074110553197	0.29202058535558
24	10363	63.366131138553	1.4689553163513
24	10597	64.835086454904	0.32887675279091
24	10651	65.163963207695	1.4887143856679
24	10895	66.652677593363	0.74059383642616
24	11000	67.393271429789	1.0636546405962
24	11158	68.456926070385	2.3252868339298
24	11535	70.782212904315	0.10366043279066
24	11557	70.885873337106	2.3418059020736
24	11911	73.22767923918	0.10102625884345
24	11933	73.328705498023	0.17695610968153
24	11982	73.505661607705	0.26730608724886
24	12050	73.772967694954	0.35599127566208
24	12119	74.128958970616	1.540569013254
24	12396	75.66952798387	0.01893631190737
24	12402	75.688464295777	0.036440956845967
24	12408	75.724905252623	0.4173503927332
24	12462	76.142255645356	0.61278315833401
24	12547	76.75503880369	0.71631084956748
24	12645	77.471349653257	0.66275855237338
24	12728	78.13410820563	0.19938836478075
24	12754	78.333496570411	0.38257680013063
24	12847	78.716073370542	2.4027359873877
24	13219	81.11880935793	3.3088835253282
24	13705	84.427692883258	0.045799947292815
24	13712	84.473492830551	0.79051522104153
24	13840	85.264008051593	0.45950411592172
24	13923	85.723512167515	0.83036033772336
24	14030	86.553872505238	0.41206628109016
24	14076	86.965938786328	0.56935441232993
24	14185	87.535293198658	1.6196347301959
24	14431	89.154927928854	1.0601953145557
24	14528	90.21512324341	3.0219480392146
24	14973	93.237071282625	1.2610668953184
24	15160	94.498138177943	0.89619174981765
24	15281	95.394329927761	0.99652273358377
24	15503	96.390852661345	0.70122360129927
24	15623	97.092076262644	0.22800043211589
24	15654	97.32007669476	2.5647648599224
24	16013	99.884841554682	0.2194257901292
24	16054	100.104267344811	0.075074174006745
24	16076	100.179341518818	1.8715023302867
24	16341	102.050843849105	1.6740708157717
24	16599	103.724914664877	0.34313596820716
24	16662	104.068050633084	0.50651879387211
24	16728	104.574569426956	0.80047788627469
24	16834	105.375047313231	0.023379542739996
24	16835	105.398426855971	0.22076592246664
24	16891	105.619192778438	0.61520895590748
24	17004	106.234401734345	0.81563957813097
24	17095	107.050041312476	0.31363213314067
24	17152	107.363673445617	2.0828179506439
24	17471	109.446491396261	0.53071900523094
24	17553	109.977210401492	1.2025960267008
24	17746	111.179806428193	3.3847585772752
24	18267	114.564565005468	1.0970666756907
24	18421	115.661631681159	0.37668555152446
24	18497	116.038317232683	1.0293998116844
24	18674	117.067717044367	0.35904213878779
24	18743	117.426759183155	1.6546686111387
24	18969	119.081427794294	0.8645233433949
24	19105	119.945951137689	0.97827579882918
24	19247	120.924226936518	0.15014531699878
24	19283	121.074372253517	0.22096165563113
24	19339	121.295333909148	0.16655150753998
24	19370	121.461885416688	0.96661869152468
24	19551	122.428504108213	0.12062524160867
24	19572	122.549129349822	1.2619321597628
24	19769	123.811061509585	0.42076903418356
24	19903	124.231830543769	0.59753499212284
24	20006	124.829365535892	0.8900862005824
24	20221	125.719451736474	0.79972053180049
24	20347	126.519172268274	0.002064370661587
24	20348	126.521236638936	0.11136726403573
24	20389	126.632603902972	3.4465875157536
24	20803	130.079191418726	1.7328147055348
24	21056	131.812006124261	1.9551261244179
24	21406	133.767132248679	0.19550659096755
24	21442	133.962638839647	0.46043680483943
24	21520	134.423075644486	0.10039243872885
24	21531	134.523468083215	2.2021118775762
24	21884	136.725579960791	2.4909005567922
24	22332	139.216480517583	0.69920832050737
24	22422	139.91568883809	1.5821694797552
24	22650	141.497858317845	0.19892737080419
24	22683	141.696785688649	0.23957348415343
24	22712	141.936359172802	0.56160576231797
24	22805	142.49796493512	0.99236575872442
24	22975	143.490330693844	4.5408052440417
24	23788	148.031135937886	2.8359861518048
24	24267	150.867122089691	0.7829032118118
24	24356	151.650025301503	2.0518178415507
24	24698	153.701843143054	0.21175914948661
24	24733	153.913602292541	0.34369635332662
24	24784	154.257298645868	0.25374506976215
24	24821	154.51104371563	0.90129391528681
24	24926	155.412337630917	0.75680430359851
24	25054	156.169141934516	0.54432891150694
24	25135	156.713470846023	1.3768623351454
24	25385	158.090333181168	0.50079110488677
24	25473	158.591124286055	1.0713025409
24	25581	159.662426826955	0.24098539849751
24	25618	159.903412225453	0.07284780326741
24	25630	159.97626002872	0.46009424076122
24	25696	160.436354269481	1.4939741345013
24	25876	161.930328403982	1.5469250630909
24	26100	163.477253467073	0.55150367927992
24	26168	164.028757146353	0.090216255147249
24	26178	164.1189734015	0.78864422907128
24	26313	164.907617630571	0.0022114824650703
24	26314	164.909829113036	0.38967957484725
24	26380	165.299508687883	0.63769673071544
24	26450	165.937205418598	0.69746982640828
24	26554	166.634675245006	0.2786331023127
24	26616	166.913308347319	1.4191716668678
24	26828	168.332480014187	1.7716304889801
24	27070	170.104110503167	0.33573195325522
24	27148	170.439842456422	0.013087224662335
24	27149	170.452929681084	0.26129694828606
24	27194	170.71422662937	1.243939162538
24	27436	171.958165791908	0.24326237809894
24	27470	172.201428170007	0.62928176437138
24	27605	172.830709934378	0.13888299362812
24	27663	172.969592928006	0.75121394833068
24	27780	173.720806876337	0.17549031122213
24	27800	173.896297187559	0.25206058943553
24	27826	174.148357776995	3.1601748860203
24	28266	177.308532663015	0.5094635773275
24	28404	177.817996240342	0.74674600786
24	28500	178.564742248202	0.36860803612323
24	28578	178.933350284325	2.0355456767714
24	28920	180.968895961096	1.8784569217655
24	29174	182.847352882862	0.014343611822061
24	29182	182.861696494684	0.94619426153017
24	29308	183.807890756214	0.29386985076195
24	29367	184.101760606976	0.14062126264717
24	29386	184.242381869623	0.23701520978002
24	29420	184.479397079403	0.51290908775787
24	29502	184.992306167161	1.5966678297238
24	29763	186.588973996885	2.9183480702779
24	30215	189.507322067163	1.036747706949
24	30353	190.544069774112	0.44460122537837
24	30453	190.98867099949	0.11285081626084
24	30463	191.101521815751	1.9186828718499
24	30741	193.020204687601	4.1020930957407
24	31369	197.122297783342	1.1439714823622
24	31546	198.266269265704	0.0077133535963422
24	31548	198.2739826193	0.42563441205148
24	31626	198.699617031351	0.07978549046651
24	31666	198.779402521818	3.8911892172735
24	32250	202.670591739091	0.90327891175312
24	32375	203.573870650844	0.66969492051196
24	32485	204.243565571356	0.021341669000509
24	32488	204.264907240357	0.60021525656953
24	32570	204.865122496927	0.86715030005066
24	32717	205.732272796978	0.22992400611357
24	32760	205.962196803092	1.1844831858359
24	33012	207.146679988928	2.0847152987308
24	33301	209.231395287659	0.36300440413605
24	33350	209.594399691795	1.438281901161
24	33572	211.032681592956	0.88520887666374
24	33705	211.91789046962	0.55867712065575
24	33789	212.476567590276	0.025339160955372
24	33796	212.501906751231	4.1017514687894
24	34508	216.60365822002	1.4240492266165
24	34743	218.027707446636	1.536770162383
24	34946	219.564477609019	0.57840377377262
24	35068	220.142881382792	0.59084662944018
24	35136	220.733728012232	1.8122246800499
24	35425	222.545952692282	0.20571318473858
24	35467	222.751665877021	5.2881247296081
24	36386	228.039790606629	1.736366380609
24	36688	229.776156987238	0.89037256484805
24	36852	230.666529552086	0.56651810619065
24	36911	231.233047658277	0.14435578748677
24	36939	231.377403445764	0.7711589101986
24	37038	232.148562355963	1.1613581055114
24	37223	233.309920461474	0.41517290763806
24	37270	233.725093369112	3.8587749080143
24	37885	237.583868277126	0.48501731725522
24	37954	238.068885594381	2.0975816350447
24	38282	240.166467229426	1.2333321209811
24	38422	241.399799350407	1.9450689312616
24	38718	243.344868281669	1.7837545334246
24	39046	245.128622815094	0.92474056271148
24	39199	246.053363377805	0.65734173890445
24	39365	246.710705116709	1.607263945392
24	39577	248.317969062101	0.46617650174654
24	39656	248.784145563848	1.4147091881407
24	39845	250.198854751989	4.1487862986853
24	40595	254.347641050674	0.040019514874955
24	40601	254.387660565549	0.28424401404152
24	40647	254.671904579591	0.023442162593833
24	40649	254.695346742185	0.53883627326766
24	40716	255.234183015453	2.6126667692375
24	41101	257.84684978469	0.095183037582624
24	41117	257.942032822273	0.018965354411358
24	41121	257.960998176684	0.301439627901
24	41205	258.262437804585	1.5689851925308
24	41468	259.831422997116	0.30779299851768
24	41501	260.139215995634	0.37954596121533
24	41563	260.518761956849	3.8050220379814
24	42190	264.32378399483	2.3850012454905
24	42648	266.70878524032	0.22497486266822
24	42675	266.933760102988	1.629010148057
24	42860	268.562770251045	0.45414349797611
24	42932	269.016913749021	2.5625231541937
24	43343	271.579436903215	1.4916391247187
24	43594	273.071076027934	1.6850318563572
24	43894	274.756107884291	0.16172219826826
24	43916	274.917830082559	0.37688421433784
24	44008	275.294714296897	1.5125375378966
24	44281	276.807251834794	1.1695016278856
24	44487	277.97675346268	0.7406399304006
24	44617	278.717393393081	0.1358840676564
24	44638	278.853277460737	0.18194380669387
24	44650	279.035221267431	1.4773792075242
24	44995	280.512600474955	0.49749715049356
24	45063	281.010097625449	0.68524779171804
24	45185	281.695345417167	0.20708425032232
24	45201	281.902429667489	1.2895874497844
24	45408	283.192017117273	0.25326462217148
24	45444	283.445281739444	0.86350039528516
24	45611	284.308782134729	3.5073362183197
24	46174	287.816118353049	0.9639987344029
24	46292	288.780117087452	0.022089883200136
24	46305	288.802206970652	1.5310954843819
24	46574	290.333302455034	0.7346670150558
24	46733	291.06796947009	0.057519463365696
24	46748	291.125488933456	1.0699167774418
24	46907	292.195405710898	0.48936231999092
24	46981	292.684768030889	1.946945755157
24	47325	294.631713786046	1.6221585710215
24	47558	296.253872357067	0.50749174265349
24	47662	296.76136409972	0.6615304535558
24	47805	297.422894553276	3.2078941238656
24	48346	300.630788677142	0.011079071763467
24	48350	300.641867748905	0.32942060628504
24	48403	300.97128835519	0.66001416475114
24	48501	301.631302519941	1.669403694743
24	48812	303.300706214684	0.18962289904295
24	48835	303.490329113727	0.57338799281005
24	48924	304.063717106537	4.7677442572192
24	49696	308.831461363756	1.0787262407006
24	49901	309.910187604457	1.293825823103
24	50136	311.20401342756	0.4554909917481
24	50220	311.659504419308	1.4212390930873
24	50507	313.080743512395	1.3773879856937
24	50699	314.458131498089	3.6632412009744
24	51311	318.121372699063	0.2665354679025
24	51368	318.387908166965	0.21524959759701
24	51384	318.603157764562	1.4326897741784
24	51615	320.03584753874	1.9052929502416
24	51947	321.941140488982	0.70008762335905
24	52067	322.641228112341	0.99967892331654
24	52224	323.640907035658	0.1436517099835
24	52248	323.784558745641	1.2562885250057
24	52460	325.040847270647	2.373320571098
24	52843	327.414167841745	0.36620863377908
24	52898	327.780376475524	0.7124305782309
24	53028	328.492807053755	3.3157478971422
24	53611	331.808554950897	0.00090222306082665
24	53612	331.809457173958	1.2732047157466
24	53817	333.082661889705	0.040118023567567
24	53823	333.122779913273	0.061931472949913
24	53829	333.184711386223	0.66927000394999
24	53954	333.853981390173	1.486589417964
24	54242	335.340570808137	0.27178677620853
24	54293	335.612357584346	3.7934258613122
24	55028	339.405783445658	1.6602100890288
24	55277	341.065993534687	0.63175168053391
24	55408	341.697745215221	0.36197155631365
24	55480	342.059716771535	0.97418794417099
24	55595	343.033904715706	0.20974448128438
24	55639	343.24364919699	1.5594645591906
24	55876	344.803113756181	0.077723082809
24	55878	344.88083683899	0.8896160953299
24	56018	345.77045293432	0.32228241076551
24	56062	346.092735345086	1.2234940387595
24	56267	347.316229383846	3.409458060408
24	56730	350.725687444254	0.22386105096209
24	56777	350.949548495216	2.5564183181861
24	57253	353.505966813402	0.35053678800919
24	57311	353.856503601411	0.19342304202463
24	57361	354.049926643436	0.77102407563944
24	57485	354.820950719075	0.82252851030624
24	57605	355.643479229381	1.2855917792049
24	57789	356.929071008586	1.7733347708792
24	57970	358.702405779465	0.16995933561021
24	57999	358.872365115075	0.48610203345879
24	58114	359.358467148534	1.124410363339
24	58304	360.482877511873	1.0973677775434
24	58459	361.580245289416	0.61862690288173
24	58541	362.198872192298	0.92426228263046
24	58656	363.123134474928	1.0778993872494
24	58866	364.201033862177	3.8874537730683
24	59509	368.088487635245	2.977356381902
24	59963	371.065844017147	3.3728779077365
24	60520	374.438721924884	0.099630004666494
24	60533	374.53835192955	1.3017368666694
24	60679	375.840088796219	0.91150966237242
24	60791	376.751598458591	2.3197351225496
24	61199	379.071333581141	0.63148868194099
24	61288	379.702822263082	0.010527525332926
24	61294	379.713349788415	2.6363555599883
24	61756	382.349705348403	0.48949562505167
24	61812	382.839200973455	0.10050730321371
24	61842	382.939708276669	0.4051681124685
24	61882	383.344876389137	0.050667824391983
24	61890	383.395544213529	0.39547500514541
24	61946	383.791019218674	0.76468179852956
24	62065	384.555701017204	2.1448087596557
24	62442	386.70050977686	0.11026853266299
24	62464	386.810778309523	2.0728173181838
24	62817	388.883595627707	1.1658847216272
24	63021	390.049480349334	0.12128791935148
24	63043	390.170768268685	0.27137072165627
24	63103	390.442138990341	1.6817965604144
24	63340	392.123935550755	0.62268557893382
24	63461	392.746621129689	0.31556510829077
24	63480	393.06218623798	0.66095247382854
24	63581	393.723138711809	1.0476162640535
24	63768	394.770754975862	0.98372595101264
24	63928	395.754480926875	0.90546094481904
24	64063	396.659941871694	0.61537260438181
24	64151	397.275314476076	1.1814623719697
24	64321	398.456776848046	0.17141433155207
24	64340	398.628191179598	2.7404127243163

