version 2
run Exponential-capacity-44-20210216-13:46:25-23500
attr configname Exponential-capacity
attr datetime 20210216-13:46:25
attr experiment Exponential-capacity
attr inifile aerocom.ini
attr iterationvars "$0=2, $1=50, $2=4, $3=0.5"
attr iterationvarsf 2,50,4,0.5-
attr measurement "$0=2, $1=50, $2=4, $3=0.5"
attr network Aerocom
attr processid 23500
attr repetition 2
attr replication #2
attr resultdir results
attr runnumber 44
attr seedset 2
param **.t 2s
param **.k 50ms
param **.X 4s
param **.m 0.5s
param **.tDistribution "\"exponential\""
param **.operationMode 0
param **.s "70 byte"
param **.dimPoolMax 10000
param **.dimPoolMin 8000
param **.nDL 10
param **.nA 1
param **.DLMaxCapacity 0
param **.trasmitting false

vector 0 Aerocom.aircraft[0].dataLink[0] actualCapacity:vector ETV
attr "" ""
attr source computeActualCapacity
vector 1 Aerocom.aircraft[0].dataLink[1] actualCapacity:vector ETV
attr "" ""
attr source computeActualCapacity
vector 2 Aerocom.aircraft[0].dataLink[2] actualCapacity:vector ETV
attr "" ""
attr source computeActualCapacity
vector 3 Aerocom.aircraft[0].dataLink[3] actualCapacity:vector ETV
attr "" ""
attr source computeActualCapacity
vector 4 Aerocom.aircraft[0].dataLink[4] actualCapacity:vector ETV
attr "" ""
attr source computeActualCapacity
vector 5 Aerocom.aircraft[0].dataLink[5] actualCapacity:vector ETV
attr "" ""
attr source computeActualCapacity
vector 6 Aerocom.aircraft[0].dataLink[6] actualCapacity:vector ETV
attr "" ""
attr source computeActualCapacity
vector 7 Aerocom.aircraft[0].dataLink[7] actualCapacity:vector ETV
attr "" ""
attr source computeActualCapacity
vector 8 Aerocom.aircraft[0].dataLink[8] actualCapacity:vector ETV
attr "" ""
attr source computeActualCapacity
vector 9 Aerocom.aircraft[0].dataLink[9] actualCapacity:vector ETV
attr "" ""
attr source computeActualCapacity
vector 10 Aerocom.aircraft[0].packetGenerator arrivalTime:vector ETV
attr "" ""
attr source computeArrivalTime
vector 11 Aerocom.aircraft[0].linkSelector waitingTime:vector ETV
attr "" ""
attr source computeWaitingTime
vector 12 Aerocom.aircraft[0].linkSelector queueLength:vector ETV
attr "" ""
attr source computeQueueLength
vector 13 Aerocom.aircraft[0].linkSelector serviceTime:vector ETV
attr "" ""
attr source computeServiceTime
vector 14 Aerocom.aircraft[0].linkSelector responseTime:vector ETV
attr "" ""
attr source computeResponseTime
vector 15 Aerocom.aircraft[0].dataLink[0] tDistribution:vector ETV
attr "" ""
attr source computeTDistribution
vector 16 Aerocom.aircraft[0].dataLink[5] tDistribution:vector ETV
attr "" ""
attr source computeTDistribution
vector 17 Aerocom.aircraft[0].dataLink[2] tDistribution:vector ETV
attr "" ""
attr source computeTDistribution
vector 18 Aerocom.aircraft[0].dataLink[9] tDistribution:vector ETV
attr "" ""
attr source computeTDistribution
vector 19 Aerocom.aircraft[0].dataLink[8] tDistribution:vector ETV
attr "" ""
attr source computeTDistribution
vector 20 Aerocom.aircraft[0].dataLink[1] tDistribution:vector ETV
attr "" ""
attr source computeTDistribution
vector 21 Aerocom.aircraft[0].dataLink[6] tDistribution:vector ETV
attr "" ""
attr source computeTDistribution
vector 22 Aerocom.aircraft[0].dataLink[3] tDistribution:vector ETV
attr "" ""
attr source computeTDistribution
vector 23 Aerocom.aircraft[0].dataLink[7] tDistribution:vector ETV
attr "" ""
attr source computeTDistribution
vector 24 Aerocom.aircraft[0].dataLink[4] tDistribution:vector ETV
attr "" ""
attr source computeTDistribution
0	1069	10	8593
0	1139	10.5	8604
0	1190	11	8588
0	1240	11.5	8572
0	1289	12	8798
0	1346	12.5	8832
0	1379	13	8826
0	1413	13.5	8853
0	1441	14	8896
0	1463	14.5	8940
0	1480	15	8983
0	1701	15.5	8985
0	1721	16	8939
0	1753	16.5	8893
0	1774	17	8847
0	1930	17.5	8801
0	1981	18	8755
0	2048	18.5	8709
0	2134	19	8663
0	2158	19.5	8617
0	2242	20	8571
0	2290	20.5	8525
0	2346	21	8479
0	2376	21.5	8433
0	2487	22	8388
0	2506	22.5	8342
0	2590	23	8296
0	2627	23.5	8250
0	2657	24	8204
0	2691	24.5	8196
0	2715	25	8217
0	2745	25.5	8239
0	2764	26	8260
0	2802	26.5	8282
0	2830	27	8304
0	3054	27.5	8325
0	3166	28	8347
0	3234	28.5	8368
0	3284	29	8390
0	3344	29.5	8411
0	3398	30	8433
0	3446	30.5	8455
0	3523	31	8476
0	3540	31.5	8498
0	3620	32	8549
0	3647	32.5	8705
0	3668	33	8861
0	3688	33.5	9017
0	3716	34	9173
0	3748	34.5	9310
0	3937	35	9234
0	3952	35.5	9157
0	3978	36	9080
0	4010	36.5	9003
0	4135	37	8927
0	4210	37.5	8850
0	4263	38	8798
0	4315	38.5	8750
0	4339	39	8701
0	4364	39.5	8653
0	4471	40	8605
0	4529	40.5	8556
0	4551	41	8508
0	4569	41.5	8460
0	4594	42	8412
0	4636	42.5	8330
0	4810	43	8053
0	4852	43.5	8041
0	4882	44	8044
0	4912	44.5	8048
0	4943	45	8051
0	5089	45.5	8055
0	5148	46	8058
0	5176	46.5	8061
0	5200	47	8065
0	5227	47.5	9248
0	5260	48	9458
0	5379	48.5	9667
0	5448	49	9841
0	5467	49.5	9802
0	5500	50	9585
0	5522	50.5	9369
0	5683	51	9153
0	5734	51.5	8937
0	5797	52	8721
0	5813	52.5	8505
0	5844	53	8289
0	5867	53.5	8072
0	5963	54	9982
0	5966	54.123055354344	9979
0	5972	54.24595767307	9976
0	5978	54.273209228592	9976
0	5981	54.280226069009	9976
0	5988	54.323605492224	9975
0	5994	54.5	9971
0	6023	55	9959
0	6024	55	9959
0	6053	55.5	9909
0	6054	55.5	9909
0	6088	56	9786
0	6089	56.001920195386	9786
0	6090	56.009073271209	9784
0	6093	56.01622780923	9782
0	6096	56.023383810048	9781
0	6099	56.030540542488	9779
0	6102	56.037698738623	9777
0	6107	56.044858399051	9775
0	6112	56.052019524371	9774
0	6115	56.059181382362	9772
0	6118	56.066344706144	9770
0	6121	56.073509496318	9768
0	6124	56.080675753484	9767
0	6127	56.087842744372	9765
0	6130	56.095011203153	9763
0	6133	56.102181130429	9761
0	6136	56.109352526802	9760
0	6139	56.11652465795	9758
0	6142	56.123698259098	9756
0	6145	56.130873330849	9754
0	6149	56.138049873806	9752
0	6152	56.145227888572	9751
0	6155	56.152406639469	9749
0	6158	56.159586863082	9747
0	6161	56.166768560014	9745
0	6167	56.173951730871	9744
0	6172	56.181135638917	9742
0	6175	56.188321021795	9740
0	6178	56.195507880111	9738
0	6181	56.202696214471	9737
0	6184	56.209885287081	9735
0	6187	56.217075836644	9733
0	6192	56.224267863768	9731
0	6195	56.23146136906	9730
0	6198	56.238655613664	9728
0	6201	56.245851337348	9726
0	6204	56.25304854072	9724
0	6208	56.260247224389	9722
0	6211	56.267447388964	9721
0	6214	56.274648294221	9719
0	6217	56.281850681298	9717
0	6224	56.289054550805	9715
0	6227	56.296259903353	9714
0	6234	56.320472962765	9708
0	6240	56.355260150234	9699
0	6245	56.372431744636	9695
0	6250	56.42748352789	9681
0	6254	56.5	9663
0	6258	56.532778906407	9655
0	6261	56.540029035874	9654
0	6268	56.640089315036	9629
0	6273	56.683728753824	9618
0	6276	56.691006774202	9617
0	6283	56.758751710687	9600
0	6288	56.789780700724	9592
0	6293	56.814137552294	9586
0	6298	56.86828950609	9573
0	6303	56.955616064366	9551
0	6308	56.98783160641	9544
0	6313	56.997134365296	9541
0	6314	57	9541
0	6357	57.5	9418
0	6389	58	9295
0	6411	58.5	9172
0	6424	59	9049
0	6546	59.5	8926
0	6589	60	8803
0	6611	60.5	8680
0	6643	61	8181
0	6769	61.5	8435
0	6802	62	8738
0	6897	62.5	8814
0	6963	63	8783
0	6994	63.5	8752
0	7025	64	8721
0	7048	64.5	8689
0	7193	65	8658
0	7233	65.5	8627
0	7335	66	8595
0	7346	66.5	8564
0	7383	67	8533
0	7409	67.5	8502
0	7538	68	8470
0	7574	68.5	8439
0	7590	69	8408
0	7646	69.5	8450
0	7670	70	8540
0	7694	70.5	8506
0	7812	71	8453
0	7868	71.5	8400
0	7882	72	8348
0	7914	72.5	8295
0	7938	73	8242
0	7962	73.5	8190
0	7998	74	8137
0	8157	74.5	9185
0	8186	75	9329
0	8212	75.5	9189
0	8235	76	9049
0	8371	76.5	8908
0	8431	77	8743
0	8474	77.5	9209
0	8512	78	9157
0	8537	78.5	9104
0	8568	79	9052
0	8724	79.5	9000
0	8770	80	8948
0	8798	80.5	8895
0	8823	81	8843
0	8845	81.5	8791
0	8874	82	8739
0	8904	82.5	8686
0	9098	83	8634
0	9121	83.5	8582
0	9149	84	8530
0	9176	84.5	8478
0	9311	85	8425
0	9349	85.5	8373
0	9401	86	8321
0	9450	86.5	8683
0	9489	87	9143
0	9509	87.5	9094
0	9638	88	9046
0	9683	88.5	8997
0	9715	89	9008
0	9753	89.5	9203
0	9777	90	9398
0	9813	90.5	9592
0	9841	91	9787
0	9842	91.007285595337	9790
0	9843	91.014435748555	9793
0	9846	91.021583711386	9795
0	9849	91.028730214704	9798
0	9854	91.03587452987	9801
0	9857	91.043016658224	9804
0	9860	91.050156601104	9806
0	9863	91.057295087745	9809
0	9868	91.06443139114	9812
0	9871	91.071565512624	9815
0	9874	91.078697453531	9818
0	9877	91.085827215193	9820
0	9882	91.092955524765	9823
0	9885	91.100081657311	9826
0	9888	91.10720561416	9829
0	9891	91.11432739664	9831
0	9894	91.121447730278	9834
0	9897	91.128565891759	9837
0	9900	91.135681882407	9840
0	9903	91.142795703545	9843
0	9906	91.149907356496	9845
0	9909	91.157017564724	9848
0	9912	91.164125606966	9851
0	9915	91.171231484542	9854
0	9918	91.17833519877	9856
0	9921	91.185437471497	9859
0	9924	91.19253758307	9862
0	9927	91.199635534804	9865
0	9930	91.206731328012	9867
0	9933	91.213825682932	9870
0	9936	91.220917881514	9873
0	9939	91.228007925067	9876
0	9942	91.235095814901	9878
0	9947	91.242182269649	9881
0	9950	91.249266572857	9884
0	9959	91.256348725832	9887
0	9962	91.263428729878	9889
0	9965	91.270507302029	9892
0	9968	91.277583727423	9895
0	9973	91.284658007362	9898
0	9976	91.291730143147	9900
0	9979	91.298800850218	9903
0	9983	91.305869415299	9906
0	9986	91.312935839688	9909
0	9989	91.320000124681	9911
0	9992	91.32706298413	9914
0	9995	91.334123706341	9917
0	9998	91.341182292607	9920
0	10001	91.34823874422	9922
0	10005	91.355293773448	9925
0	10008	91.362346670173	9928
0	10011	91.369397435685	9931
0	10014	91.376446071271	9933
0	10017	91.383493287621	9936
0	10020	91.390538376188	9939
0	10023	91.397581338257	9942
0	10026	91.404622175111	9944
0	10029	91.411661595867	9947
0	10032	91.418698893545	9950
0	10035	91.425734069424	9953
0	10038	91.432767124784	9955
0	10041	91.439798767175	9958
0	10045	91.446828291176	9961
0	10048	91.453855698063	9964
0	10051	91.460880989111	9966
0	10059	91.5	9964
0	10079	92	9857
0	10080	92.000544356881	9857
0	10081	92.007645909077	9855
0	10084	92.014688731124	9854
0	10085	92.014748902481	9854
0	10088	92.021792445352	9852
0	10091	92.021852616709	9852
0	10094	92.028897601665	9851
0	10105	92.086035248025	9838
0	10111	92.309340053935	9790
0	10115	92.316490207153	9789
0	10122	92.328043584671	9786
0	10131	92.440556427391	9762
0	10135	92.5	9749
0	10138	92.531764127396	9742
0	10145	92.64250524581	9719
0	10150	92.679424474279	9711
0	10155	92.851610282285	9674
0	10160	92.888841703779	9666
0	10165	92.897647917096	9664
0	10168	92.904891294579	9662
0	10175	92.915061583394	9660
0	10180	92.945329632758	9654
0	10185	92.967246779467	9649
0	10189	93	9642
0	10222	93.5	9534
0	10286	94	9482
0	10340	94.5	9448
0	10397	95	9415
0	10422	95.5	9381
0	10448	96	9347
0	10477	96.5	9314
0	10503	97	9280
0	10537	97.5	9246
0	10560	98	9213
0	10588	98.5	9179
0	10617	99	9145
0	10636	99.5	9112
0	10868	100	9078
0	11006	100.5	9044
0	11083	101	9093
0	11145	101.5	9171
0	11192	102	9247
0	11246	102.5	9319
0	11280	103	9390
0	11327	103.5	9461
0	11350	104	9533
0	11351	104.000915806658	9533
0	11354	104.008258720746	9534
0	11357	104.014290794107	9535
0	11358	104.015600864652	9535
0	11361	104.021322436498	9536
0	11362	104.021632167993	9536
0	11365	104.022942238538	9536
0	11368	104.028354785303	9537
0	11369	104.028663040525	9537
0	11372	104.02897277202	9537
0	11375	104.030282842565	9537
0	11394	104.04948241943	9540
0	11401	104.067830760374	9542
0	11426	104.238038514561	9567
0	11431	104.267813046073	9571
0	11436	104.278103838755	9572
0	11445	104.367116953729	9585
0	11451	104.495108226893	9603
0	11452	104.5	9604
0	11459	104.598547265039	9618
0	11463	104.605825285417	9619
0	11472	104.667133486836	9628
0	11481	104.774678241022	9643
0	11487	104.794269735179	9646
0	11495	104.816917355453	9649
0	11501	104.903755351997	9662
0	11508	104.946745286652	9668
0	11513	104.958783505638	9669
0	11518	104.98581149142	9673
0	11523	105	9675
0	11548	105.5	9747
0	11549	105.503164767327	9747
0	11550	105.510346464259	9748
0	11553	105.517527424456	9749
0	11556	105.524707648069	9750
0	11559	105.531887135248	9751
0	11562	105.539065886145	9752
0	11565	105.546243900911	9753
0	11570	105.553421179697	9754
0	11573	105.560597722654	9755
0	11576	105.567773529932	9756
0	11579	105.574948601683	9757
0	11582	105.582122938057	9758
0	11587	105.589296539205	9759
0	11592	105.596469405277	9760
0	11599	105.671096430305	9771
0	11606	105.705629258655	9776
0	11611	105.739035013405	9781
0	11622	105.8525883868	9797
0	11627	105.906662778236	9805
0	11632	105.923573714451	9807
0	11636	105.930711473195	9806
0	11645	105.974377697914	9788
0	11650	105.990091659219	9781
0	11655	106	9777
0	11664	106.5	9574
0	11665	106.5	9574
0	11691	107	9370
0	11718	107.5	9167
0	11742	108	9185
0	11780	108.5	9451
0	11959	109	9717
0	11976	109.5	8170
0	12018	110	8492
0	12035	110.5	8814
0	12144	111	9136
0	12206	111.5	9417
0	12250	112	9563
0	12267	112.5	9708
0	12286	113	9853
0	12307	113.5	9876
0	12394	114	9774
0	12479	114.5	9672
0	12492	115	9570
0	12493	115	9570
0	12517	115.5	9468
0	12518	115.5	9468
0	12549	116	9366
0	12580	116.5	9263
0	12600	117	9161
0	12788	117.5	9059
0	12802	118	8957
0	12833	118.5	8855
0	12856	119	8753
0	12955	119.5	8651
0	13035	120	8549
0	13093	120.5	8685
0	13136	121	8756
0	13167	121.5	8827
0	13185	122	8897
0	13304	122.5	8968
0	13346	123	8860
0	13379	123.5	8816
0	13415	124	8843
0	13579	124.5	8870
0	13599	125	8897
0	13616	125.5	8924
0	13721	126	8951
0	13736	126.5	8978
0	13756	127	9005
0	13786	127.5	9032
0	13894	128	9059
0	13928	128.5	9085
0	13958	129	9112
0	14094	129.5	9139
0	14128	130	9166
0	14146	130.5	9193
0	14257	131	9220
0	14301	131.5	9247
0	14318	132	9274
0	14345	132.5	9301
0	14448	133	9328
0	14468	133.5	9354
0	14501	134	9065
0	14604	134.5	8616
0	14629	135	8706
0	14665	135.5	8863
0	14689	136	9230
0	14840	136.5	9324
0	14879	137	9418
0	14899	137.5	9432
0	15017	138	9353
0	15049	138.5	9275
0	15073	139	9197
0	15204	139.5	9145
0	15272	140	9187
0	15302	140.5	9229
0	15322	141	9272
0	15426	141.5	9314
0	15442	142	9356
0	15477	142.5	9399
0	15579	143	9441
0	15596	143.5	9483
0	15620	144	9525
0	15726	144.5	9568
0	15797	145	9610
0	15813	145.5	9652
0	15823	146	9695
0	15904	146.5	9616
0	15938	147	9432
0	16022	147.5	9247
0	16072	148	9062
0	16094	148.5	8877
0	16121	149	8693
0	16143	149.5	8508
0	16262	150	8323
0	16290	150.5	8258
0	16337	151	8963
0	16355	151.5	9668
0	16376	152	9809
0	16377	152	9809
0	16390	152.5	9505
0	16580	153	9151
0	16645	153.5	8789
0	16683	154	9751
0	16684	154.004590340877	9748
0	16685	154.011771301074	9745
0	16688	154.018954471931	9741
0	16691	154.026140592453	9737
0	16696	154.033329665063	9733
0	16699	154.040521692187	9730
0	16704	154.047715936791	9726
0	16707	154.054913140163	9722
0	16710	154.062113304738	9718
0	16713	154.069316432954	9715
0	16716	154.076521785502	9711
0	16719	154.083730105963	9707
0	16722	154.090941396784	9704
0	16725	154.098154916982	9700
0	16728	154.105371411827	9696
0	16731	154.112590883774	9692
0	16736	154.11981333528	9689
0	16739	154.12703802307	9685
0	16743	154.134265694727	9681
0	16750	154.190060732661	9652
0	16755	154.253244825567	9619
0	16758	154.260522089316	9616
0	16763	154.267801623426	9612
0	16770	154.310057285693	9590
0	16775	154.329155714265	9580
0	16780	154.336888665852	9576
0	16785	154.352418107096	9568
0	16790	154.486701006993	9499
0	16794	154.5	9492
0	16856	155	9233
0	16924	155.5	9495
0	16974	156	9465
0	17058	156.5	9312
0	17075	157	9160
0	17097	157.5	9007
0	17125	158	8859
0	17142	158.5	8713
0	17167	159	8567
0	17195	159.5	8421
0	17216	160	8275
0	17426	160.5	8151
0	17451	161	8208
0	17536	161.5	8265
0	17599	162	8322
0	17665	162.5	8379
0	17705	163	8219
0	17769	163.5	8373
0	17813	164	8527
0	17837	164.5	8680
0	17942	165	8834
0	17963	165.5	8988
0	17987	166	9141
0	18003	166.5	9295
0	18123	167	9449
0	18148	167.5	9602
0	18163	168	9756
0	18164	168	9756
0	18186	168.5	9744
0	18187	168.5	9744
0	18214	169	9525
0	18366	169.5	9305
0	18418	170	9086
0	18458	170.5	8866
0	18473	171	8760
0	18484	171.5	8821
0	18558	172	8882
0	18588	172.5	8943
0	18620	173	9004
0	18648	173.5	9065
0	18758	174	9126
0	18791	174.5	9187
0	18822	175	9248
0	18938	175.5	9309
0	18960	176	9370
0	18984	176.5	9431
0	19016	177	9492
0	19136	177.5	9553
0	19160	178	9614
0	19181	178.5	9631
0	19274	179	9554
0	19295	179.5	9478
0	19307	180	9401
0	19401	180.5	9324
0	19445	181	9247
0	19467	181.5	9170
0	19495	182	9093
0	19587	182.5	9017
0	19607	183	8851
0	19615	183.5	8583
0	19680	184	8560
0	19707	184.5	8723
0	19745	185	8887
0	19773	185.5	9050
0	19943	186	8199
0	19951	186.5	8555
0	19985	187	8911
0	20099	187.5	9267
0	20126	188	9623
0	20152	188.5	9648
0	20246	189	9390
0	20297	189.5	9133
0	20315	190	8875
0	20338	190.5	8618
0	20460	191	8360
0	20505	191.5	8930
0	20528	192	9634
0	20529	192.007099391481	9644
0	20530	192.014357790486	9655
0	20533	192.021607919953	9665
0	20536	192.028850547992	9675
0	20539	192.036085690111	9685
0	20542	192.043313361768	9695
0	20547	192.050533578374	9706
0	20550	192.057745612168	9716
0	20553	192.064950223119	9726
0	20557	192.072147426491	9733
0	20560	192.079339453615	9724
0	20563	192.086538137284	9715
0	20566	192.093743489832	9705
0	20569	192.100956266751	9696
0	20572	192.108175738698	9687
0	20575	192.115401918114	9678
0	20578	192.122634817473	9668
0	20581	192.12987519811	9659
0	20584	192.137122325142	9650
0	20587	192.144376211152	9640
0	20590	192.15163762194	9631
0	20593	192.158905818389	9622
0	20596	192.166180813193	9613
0	20600	192.173462619081	9603
0	20605	192.180752007814	9594
0	20608	192.188048234622	9585
0	20611	192.195351312348	9575
0	20614	192.202662017309	9566
0	20619	192.209979600416	9556
0	20622	192.217304841102	9547
0	20625	192.224636987326	9538
0	20632	192.234294289827	9525
0	20638	192.264583420375	9486
0	20643	192.277988584372	9469
0	20648	192.311861202136	9426
0	20653	192.32967976912	9403
0	20658	192.337151694852	9393
0	20665	192.46431131587	9286
0	20668	192.471849545463	9284
0	20675	192.5	9276
0	20700	193	9130
0	20732	193.5	8984
0	20763	194	8839
0	20892	194.5	8693
0	20915	195	8547
0	20936	195.5	8402
0	21034	196	8296
0	21063	196.5	8291
0	21083	197	8286
0	21185	197.5	8282
0	21232	198	8277
0	21258	198.5	8272
0	21294	199	8267
0	21426	199.5	8262
0	21445	200	8274
0	21463	200.5	8660
0	21557	201	9046
0	21588	201.5	9152
0	21614	202	8844
0	21636	202.5	8535
0	21773	203	8226
0	21800	203.5	8223
0	21834	204	8424
0	21959	204.5	8625
0	21980	205	8826
0	22075	205.5	9027
0	22143	206	9216
0	22215	206.5	9280
0	22233	207	9345
0	22234	207	9345
0	22270	207.5	9409
0	22271	207.507109486086	9410
0	22272	207.514548380879	9411
0	22277	207.521986485225	9412
0	22280	207.529423799292	9413
0	22283	207.536860323248	9414
0	22286	207.544296057261	9414
0	22291	207.551731791274	9415
0	22294	207.559166735512	9416
0	22299	207.566600890142	9417
0	22304	207.574034255333	9418
0	22307	207.581466831251	9419
0	22310	207.588898618065	9420
0	22313	207.596329615942	9421
0	22316	207.603759825049	9422
0	22319	207.611189245554	9423
0	22322	207.618617877624	9424
0	22325	207.626045721427	9425
0	22328	207.63347277713	9426
0	22331	207.6408990449	9427
0	22334	207.648324524904	9428
0	22337	207.65574921731	9429
0	22340	207.663173122284	9430
0	22343	207.670596239993	9431
0	22346	207.678018570605	9432
0	22349	207.685440114286	9433
0	22354	207.692860871203	9434
0	22362	207.86203650636	9455
0	22368	208	9473
0	22396	208.5	9537
0	22397	208.5	9537
0	22429	209	9602
0	22461	209.5	9666
0	22490	210	9730
0	22687	210.5	9794
0	22720	211	9818
0	22825	211.5	9445
0	22846	212	9072
0	22868	212.5	8755
0	22953	213	8884
0	23024	213.5	8610
0	23075	214	8326
0	23109	214.5	8190
0	23217	215	8802
0	23245	215.5	9395
0	23259	216	9295
0	23338	216.5	9196
0	23352	217	9097
0	23375	217.5	8998
0	23413	218	8929
0	23451	218.5	8861
0	23482	219	8794
0	23505	219.5	8726
0	23704	220	8659
0	23735	220.5	8591
0	23759	221	8524
0	23875	221.5	8457
0	23951	222	8389
0	23988	222.5	8322
0	24050	223	8254
0	24104	223.5	8366
0	24130	224	8502
0	24154	224.5	8660
0	24261	225	8852
0	24284	225.5	9044
0	24379	226	9237
0	24443	226.5	9429
0	24519	227	9622
0	24543	227.5	9814
0	24544	227.505339115022	9816
0	24545	227.512470329366	9819
0	24548	227.519599364909	9821
0	24551	227.526726948658	9824
0	24554	227.533852355824	9827
0	24557	227.540975587736	9830
0	24560	227.548096645722	9832
0	24563	227.555216255161	9835
0	24566	227.562333692883	9838
0	24569	227.569448960214	9841
0	24577	227.601934046349	9853
0	24582	227.627308246472	9863
0	24587	227.744662272568	9908
0	24595	227.87055546174	9873
0	24599	228	9832
0	24602	228.068041415917	9811
0	24605	228.075176264556	9809
0	24612	228.121650650429	9794
0	24617	228.14236381312	9788
0	24620	228.149515427341	9785
0	24627	228.162451546011	9781
0	24633	228.216707249371	9764
0	24638	228.325618316708	9730
0	24643	228.376849497149	9714
0	24648	228.385948090216	9711
0	24653	228.444941372514	9692
0	24658	228.5	9675
0	24681	229	9518
0	24682	229	9518
0	24715	229.5	9361
0	24739	230	9203
0	24767	230.5	9046
0	24790	231	8889
0	24820	231.5	8732
0	24856	232	8712
0	24889	232.5	8740
0	24912	233	8768
0	25144	233.5	8796
0	25327	234	8824
0	25390	234.5	8851
0	25468	235	8879
0	25516	235.5	8907
0	25594	236	8935
0	25657	236.5	8963
0	25723	237	8991
0	25737	237.5	9018
0	25855	238	9046
0	25882	238.5	9074
0	25903	239	9102
0	25920	239.5	9130
0	25956	240	9158
0	25978	240.5	9186
0	25998	241	8935
0	26024	241.5	8474
0	26056	242	8155
0	26073	242.5	8119
0	26299	243	8083
0	26377	243.5	8047
0	26407	244	8011
0	26441	244.5	8175
0	26484	245	8439
0	26539	245.5	8703
0	26607	246	8967
0	26657	246.5	9231
0	26676	247	9321
0	26765	247.5	9344
0	26791	248	9330
0	26831	248.5	9316
0	26855	249	9302
0	26876	249.5	9307
0	26898	250	9376
0	26928	250.5	9445
0	26958	251	9514
0	26978	251.5	9584
0	26998	252	9653
0	27220	252.5	9722
0	27303	253	9791
0	27306	253.032944489127	9796
0	27311	253.055510640728	9799
0	27316	253.064664316222	9800
0	27320	253.071807173365	9801
0	27326	253.078949301719	9802
0	27331	253.086090701433	9803
0	27338	253.109588185077	9806
0	27343	253.143374425999	9811
0	27349	253.179568774853	9816
0	27352	253.186699989197	9817
0	27359	253.239705428745	9824
0	27364	253.270752152403	9829
0	27367	253.277873934883	9830
0	27372	253.284994992869	9831
0	27379	253.394387649148	9846
0	27384	253.405442838969	9847
0	27389	253.430762301461	9851
0	27392	253.437868179037	9852
0	27399	253.489367098087	9859
0	27403	253.5	9861
0	27406	253.543134018162	9866
0	27411	253.553164535897	9868
0	27414	253.560258171892	9869
0	27425	253.721180207235	9891
0	27428	253.72825734807	9892
0	27433	253.735333773464	9893
0	27441	253.896980473377	9915
0	27444	253.904040483463	9916
0	27451	253.951402990106	9923
0	27457	253.972627665834	9926
0	27461	254	9930
0	27464	254.078035512575	9941
0	27469	254.087745229161	9942
0	27475	254.162286708828	9952
0	27480	254.220124285968	9960
0	27484	254.227152398418	9954
0	27489	254.234184747223	9946
0	27496	254.254086606534	9923
0	27499	254.261140924785	9914
0	27508	254.345151911319	9816
0	27513	254.415632527074	9733
0	27519	254.499804952629	9634
0	27520	254.5	9634
0	27526	254.507202387077	9626
0	27529	254.51447435882	9617
0	27537	254.529897087114	9599
0	27543	254.604330822663	9512
0	27548	254.684640830991	9417
0	27553	254.751382801739	9339
0	27560	254.851516315253	9269
0	27565	254.8680187004	9307
0	27571	254.886647579155	9350
0	27576	254.899739723004	9380
0	27581	254.937051799381	9466
0	27585	255	9611
0	27589	255.111351488746	9868
0	27595	255.121615774196	9892
0	27603	255.266143059328	9883
0	27609	255.337043369589	9839
0	27614	255.372413613573	9817
0	27619	255.411530264	9793
0	27624	255.435934741751	9778
0	27629	255.443212732256	9773
0	27634	255.453282263793	9767
0	27639	255.476294247078	9753
0	27643	255.5	9738
0	27648	255.681407948123	9626
0	27653	255.698227672425	9615
0	27659	255.845260688756	9524
0	27664	255.862272007402	9514
0	27669	255.873076728716	9507
0	27675	256	9428
0	27692	256.5	9118
0	27822	257	8809
0	27849	257.5	8499
0	27887	258	8189
0	27900	258.5	8263
0	28035	259	8568
0	28062	259.5	8873
0	28081	260	9178
0	28115	260.5	9229
0	28132	261	8679
0	28164	261.5	8129
0	28356	262	9940
0	28360	262.052301495899	9937
0	28365	262.081324024264	9935
0	28370	262.122468642251	9932
0	28375	262.140467145937	9931
0	28380	262.332447500542	9919
0	28385	262.369595923948	9916
0	28390	262.392741739355	9915
0	28395	262.412771041496	9914
0	28400	262.480735336278	9909
0	28405	262.5	9908
0	28432	263	9876
0	28433	263	9876
0	28466	263.5	9843
0	28467	263.507500267867	9843
0	28468	263.514611920818	9842
0	28471	263.521724296351	9842
0	28474	263.528836671884	9841
0	28477	263.535949770146	9841
0	28482	263.543062868408	9840
0	28487	263.550176689546	9840
0	28492	263.557290510684	9839
0	28495	263.564405054845	9839
0	28500	263.571519599006	9839
0	28503	263.578634143167	9838
0	28506	263.585749410498	9838
0	28509	263.592864677829	9837
0	28512	263.599980668477	9837
0	28517	263.607096659125	9836
0	28520	263.614213373236	9836
0	28523	263.621330087347	9835
0	28526	263.628447525069	9835
0	28529	263.635564962791	9834
0	28532	263.642683124272	9834
0	28535	263.649801285753	9833
0	28538	263.656920171139	9833
0	28543	263.664039056525	9833
0	28546	263.671157941911	9832
0	28549	263.67827755135	9832
0	28554	263.685397160789	9831
0	28558	263.692517494427	9831
0	28561	263.699637828065	9830
0	28564	263.706758886051	9830
0	28570	263.713879944037	9829
0	28573	263.721001726517	9829
0	28576	263.728123508997	9828
0	28579	263.73524601612	9828
0	28586	263.763143749499	9826
0	28593	263.820546915928	9822
0	28598	263.828243833001	9822
0	28603	263.874569090907	9819
0	28608	263.894061240915	9818
0	28615	263.983683171122	9812
0	28619	264	9811
0	28622	264.015254902979	9810
0	28627	264.027736206041	9809
0	28632	264.103849443458	9804
0	28637	264.113345238447	9803
0	28642	264.140715800819	9802
0	28647	264.15510676269	9801
0	28652	264.166335947035	9800
0	28659	264.266785365542	9794
0	28664	264.301688755439	9791
0	28670	264.319917621829	9790
0	28675	264.463083614396	9781
0	28680	264.490111280609	9779
0	28684	264.5	9778
0	28687	264.532653797901	9776
0	28692	264.549153224096	9775
0	28697	264.569940883718	9774
0	28702	264.613633712536	9771
0	28707	264.621103245474	9771
0	28712	264.664683302571	9768
0	28715	264.671849559737	9767
0	28722	264.7322153059	9763
0	28725	264.739385233176	9763
0	28732	264.778668868033	9760
0	28737	264.795416322679	9759
0	28742	264.82803185925	9757
0	28747	264.869961712518	9754
0	28752	264.909434952858	9752
0	28757	264.966710073784	9748
0	28762	265	9746
0	28765	265.007409886957	9746
0	28770	265.07178901778	9741
0	28776	265.120993468865	9738
0	28782	265.184589180945	9734
0	28788	265.284191876689	9728
0	28793	265.302937712054	9726
0	28799	265.5	9714
0	28816	266	9681
0	28817	266	9681
0	28847	266.5	9670
0	28848	266.5	9670
0	28864	267	9698
0	28865	267.007087889834	9698
0	28867	267.014305872923	9698
0	28870	267.021523856012	9699
0	28874	267.028741094903	9699
0	28877	267.035958333794	9699
0	28880	267.043175572685	9700
0	28883	267.05039206753	9700
0	28886	267.057608562375	9701
0	28891	267.064824313329	9701
0	28894	267.072040064283	9701
0	28897	267.079255815237	9702
0	28900	267.086470822452	9702
0	28903	267.093685829667	9703
0	28906	267.100900093297	9703
0	28909	267.108114356927	9703
0	28912	267.115328620557	9704
0	28915	267.122542140755	9704
0	28918	267.129755660953	9705
0	28921	267.136968437872	9705
0	28928	267.144181214791	9705
0	28933	267.15139399171	9706
0	28936	267.158606025504	9706
0	28939	267.165818059298	9707
0	28942	267.173029350119	9707
0	28945	267.18024064094	9707
0	28953	267.237966875056	9711
0	28956	267.245175195517	9711
0	28963	267.264188302492	9712
0	28966	267.271395880746	9712
0	28973	267.338237677572	9716
0	28976	267.345442288523	9716
0	28984	267.384965205536	9719
0	28989	267.448366986646	9722
0	28992	267.455567151221	9722
0	28999	267.468900552952	9723
0	29004	267.5	9725
0	29024	268	9752
0	29025	268	9752
0	29056	268.5	9779
0	29057	268.5	9779
0	29088	269	9807
0	29089	269	9807
0	29109	269.5	9795
0	29110	269.5	9795
0	29125	270	9398
0	29296	270.5	9218
0	29322	271	9281
0	29342	271.5	8125
0	29367	272	8316
0	29457	272.5	8507
0	29508	273	8682
0	29572	273.5	8733
0	29601	274	8784
0	29629	274.5	8835
0	29649	275	8886
0	29666	275.5	8938
0	29775	276	8989
0	29811	276.5	9040
0	29844	277	9091
0	29877	277.5	9238
0	29904	278	9329
0	29944	278.5	9408
0	30177	279	9487
0	30247	279.5	9566
0	30269	280	9645
0	30363	280.5	9724
0	30366	280.559689046856	9734
0	30372	280.609954927075	9741
0	30377	280.666231348527	9750
0	30382	280.685072755833	9753
0	30387	280.729826703183	9760
0	30392	280.766479477506	9766
0	30397	280.778024423197	9768
0	30403	281	9803
0	30447	281.5	9882
0	30451	281.67872416574	9910
0	30457	281.752192552778	9922
0	30460	281.759247582006	9923
0	30468	281.806382248698	9931
0	30474	281.935307955251	9860
0	30478	282	9814
0	30481	282.035357498841	9789
0	30486	282.052201388989	9777
0	30491	282.068787888115	9765
0	30497	282.086101318541	9753
0	30504	282.173160370594	9691
0	30510	282.261879238162	9628
0	30515	282.277847030512	9617
0	30520	282.328670462933	9581
0	30525	282.340701594081	9572
0	30531	282.382390247848	9543
0	30537	282.5	9459
0	30566	283	9104
0	30688	283.5	8748
0	30718	284	8393
0	30741	284.5	8097
0	30764	285	8093
0	30808	285.5	8437
0	30828	286	8780
0	30849	286.5	9123
0	30872	287	9467
0	30905	287.5	9810
0	30906	287.502052321832	9811
0	30909	287.509187170471	9816
0	30912	287.516318384815	9821
0	30915	287.523445968564	9826
0	30918	287.530569925413	9831
0	30921	287.537690259051	9836
0	30926	287.544806973162	9841
0	30929	287.551920071424	9846
0	30934	287.55902955751	9850
0	30937	287.566136156495	9855
0	30940	287.573239149899	9860
0	30943	287.58033854138	9865
0	30946	287.587434334588	9870
0	30949	287.59452653317	9875
0	30952	287.601615140765	9880
0	30955	287.608700161008	9885
0	30958	287.615781597528	9889
0	30961	287.622860169679	9894
0	30965	287.629935164625	9899
0	30968	287.637006585981	9904
0	30971	287.644074437354	9909
0	30974	287.651138722347	9914
0	30977	287.658199444558	9919
0	30980	287.665256607578	9923
0	30983	287.672310925829	9928
0	30986	287.679361691341	9933
0	30989	287.686408907691	9938
0	30992	287.69345257845	9943
0	30995	287.700492707184	9948
0	30998	287.707529297453	9952
0	31001	287.714563059511	9957
0	31006	287.7215932895	9962
0	31009	287.728619990966	9967
0	31014	287.735643167448	9972
0	31017	287.742662822482	9977
0	31020	287.749678959597	9981
0	31025	287.756692284915	9986
0	31028	287.763702098654	9991
0	31031	287.770708404329	9996
0	31035	287.777711205449	9973
0	31038	287.784730156617	9915
0	31041	287.791790166703	9857
0	31044	287.798891718899	9799
0	31047	287.806035304979	9741
0	31052	287.813221425501	9682
0	31055	287.820451336676	9622
0	31058	287.82772633148	9562
0	31061	287.835046975697	9502
0	31064	287.84241384583	9442
0	31068	287.849827529372	9439
0	31071	287.857243569207	9439
0	31074	287.864659609042	9439
0	31077	287.872075648877	9439
0	31080	287.879491688712	9439
0	31083	287.886907728547	9439
0	31088	287.894323768382	9438
0	31093	287.901740593981	9438
0	31096	287.90915741958	9438
0	31099	287.916574245179	9438
0	31102	287.923991070778	9438
0	31105	287.931407896377	9438
0	31108	287.938824721976	9437
0	31113	287.946242333505	9437
0	31116	287.953659945034	9437
0	31119	287.961077556563	9437
0	31122	287.968495168092	9437
0	31125	287.975912779621	9437
0	31128	287.98333039115	9436
0	31131	287.990748788776	9436
0	31134	287.998167186402	9436
0	31137	288	9436
0	31224	288.5	9494
0	31255	289	8868
0	31307	289.5	9114
0	31380	290	9450
0	31383	290.088803685571	9394
0	31388	290.14413409241	9360
0	31391	290.151612724889	9355
0	31398	290.182948681423	9336
0	31403	290.214968409764	9316
0	31410	290.333063369106	9243
0	31416	290.377082385901	9215
0	31421	290.414738271351	9192
0	31426	290.46796474561	9159
0	31429	290.475607501369	9154
0	31434	290.483254431673	9149
0	31440	290.5	9139
0	31520	291	8828
0	31573	291.5	8517
0	31595	292	9078
0	31701	292.5	8634
0	31721	293	8217
0	31739	293.5	8373
0	31815	294	8530
0	31835	294.5	8686
0	31851	295	8842
0	31948	295.5	8999
0	31965	296	9155
0	31992	296.5	9152
0	32010	297	9128
0	32105	297.5	9104
0	32131	298	9080
0	32155	298.5	9056
0	32264	299	9032
0	32287	299.5	9007
0	32315	300	8983
0	32411	300.5	8959
0	32466	301	8935
0	32497	301.5	8911
0	32530	302	8887
0	32671	302.5	8863
0	32691	303	8839
0	32705	303.5	8814
0	32773	304	8790
0	32804	304.5	8766
0	32831	305	8742
0	32858	305.5	8718
0	33005	306	8694
0	33034	306.5	8670
0	33067	307	8645
0	33173	307.5	8621
0	33198	308	8597
0	33218	308.5	8573
0	33347	309	8549
0	33413	309.5	8525
0	33434	310	8501
0	33457	310.5	8477
0	33526	311	8452
0	33550	311.5	8428
0	33578	312	8404
0	33703	312.5	8380
0	33724	313	8356
0	33754	313.5	8332
0	33883	314	8412
0	33935	314.5	8755
0	33960	315	8890
0	33996	315.5	8676
0	34152	316	8462
0	34188	316.5	8249
0	34208	317	8134
0	34318	317.5	8146
0	34340	318	8157
0	34412	318.5	8168
0	34439	319	8179
0	34531	319.5	8190
0	34557	320	8202
0	34589	320.5	8213
0	34726	321	8224
0	34750	321.5	8235
0	34783	322	8246
0	34823	322.5	8879
0	34852	323	9022
0	34888	323.5	9164
0	34910	324	9307
0	35138	324.5	9288
0	35172	325	9213
0	35201	325.5	9030
0	35327	326	8592
0	35405	326.5	8698
0	35452	327	8772
0	35491	327.5	8797
0	35538	328	8823
0	35553	328.5	8848
0	35652	329	8874
0	35700	329.5	8899
0	35732	330	8924
0	35764	330.5	8950
0	35898	331	8203
0	35915	331.5	8185
0	35940	332	8168
0	35969	332.5	8151
0	35988	333	8134
0	36016	333.5	8117
0	36032	334	8099
0	36207	334.5	8082
0	36229	335	8065
0	36249	335.5	8343
0	36365	336	8844
0	36416	336.5	9344
0	36423	336.655845430667	9501
0	36426	336.663213076178	9508
0	36433	336.671240762389	9516
0	36438	336.705455276359	9550
0	36443	336.749253030309	9594
0	36448	336.770215960656	9615
0	36451	336.777496251868	9622
0	36456	336.784771246672	9630
0	36463	336.808231708969	9653
0	36468	336.847573086474	9693
0	36473	336.8563436948	9701
0	36478	336.87246066427	9718
0	36481	336.879663792486	9725
0	36488	336.932006993835	9777
0	36493	336.953372689972	9799
0	36498	336.975182990264	9820
0	36502	337	9845
0	36506	337.022797479585	9836
0	36511	337.065849609985	9812
0	36516	337.108031569918	9788
0	36522	337.181177231986	9748
0	36527	337.206793190098	9733
0	36532	337.218156565589	9727
0	36537	337.324944723054	9668
0	36540	337.332185103691	9664
0	36547	337.367542376866	9644
0	36550	337.374800775871	9640
0	36555	337.382062186659	9636
0	36562	337.415621230968	9617
0	36567	337.5	9570
0	36570	337.507259904584	9566
0	36575	337.608573966441	9509
0	36580	337.635512838534	9494
0	36585	337.669957009328	9475
0	36591	337.714005603239	9451
0	36596	337.732109771074	9441
0	36601	337.742748010132	9435
0	36606	337.843204279877	9379
0	36612	337.898665531428	9348
0	36615	337.906153764205	9344
0	36620	337.913645202561	9339
0	36625	337.921140651753	9335
0	36633	338	9291
0	36656	338.5	9208
0	36679	339	9127
0	36780	339.5	9046
0	36801	340	8964
0	36829	340.5	8883
0	36961	341	8802
0	36986	341.5	8869
0	37020	342	8979
0	37044	342.5	9088
0	37196	343	9169
0	37224	343.5	9241
0	37252	344	9284
0	37366	344.5	9321
0	37384	345	9359
0	37475	345.5	9396
0	37524	346	9434
0	37578	346.5	9472
0	37609	347	9509
0	37635	347.5	9547
0	37758	348	9584
0	37775	348.5	9607
0	37885	349	9522
0	37906	349.5	9438
0	37926	350	9353
0	37945	350.5	9268
0	38056	351	9183
0	38103	351.5	9109
0	38144	352	9036
0	38169	352.5	8963
0	38195	353	8921
0	38221	353.5	8995
0	38368	354	9069
0	38403	354.5	9143
0	38426	355	9217
0	38458	355.5	9291
0	38479	356	9365
0	38634	356.5	9439
0	38653	357	9513
0	38708	357.5	9587
0	38732	358	9642
0	38760	358.5	9675
0	38783	359	9708
0	38784	359.007780371235	9708
0	38785	359.014990919237	9709
0	38788	359.022200724572	9709
0	38791	359.029410529907	9709
0	38794	359.036620335242	9710
0	38797	359.043829398064	9710
0	38800	359.051038460886	9711
0	38803	359.058246781347	9711
0	38810	359.065455101808	9712
0	38815	359.072662680062	9712
0	38818	359.079870258316	9713
0	38821	359.087077094515	9713
0	38826	359.094283930714	9714
0	38829	359.101490025011	9714
0	38832	359.108696119308	9715
0	38837	359.115901471856	9715
0	38840	359.123106824404	9716
0	38843	359.130311435355	9716
0	38846	359.137516046306	9716
0	38849	359.144720657257	9717
0	38854	359.151924526764	9717
0	38857	359.159128396271	9718
0	38860	359.166331524487	9718
0	38863	359.173534652703	9719
0	38867	359.18073703978	9719
0	38870	359.187939426857	9720
0	38873	359.195141072948	9720
0	38876	359.202342719039	9721
0	38880	359.209543624296	9721
0	38883	359.216744529553	9722
0	38886	359.223944694128	9722
0	38889	359.231144858703	9723
0	38894	359.238344282749	9723
0	38897	359.245543706795	9724
0	38900	359.252742390464	9724
0	38907	359.278778511974	9726
0	38912	359.303528465803	9727
0	38917	359.354159390385	9731
0	38923	359.418560699995	9735
0	38928	359.431233727545	9736
0	38933	359.474058172401	9738
0	38938	359.486236901961	9739
0	38942	359.5	9740
0	38945	359.580958805376	9745
0	38950	359.602051649604	9747
0	38955	359.611597814922	9747
0	38960	359.618878471231	9748
0	38965	359.630838718146	9749
0	38970	359.642310254527	9749
0	38975	359.673430599514	9751
0	38981	359.794669746877	9759
0	38986	359.813110086864	9760
0	38991	359.862044705112	9764
0	38996	359.874245907276	9764
0	39001	359.909432985456	9767
0	39006	359.922080827177	9768
0	39012	359.966387236898	9770
0	39017	359.995989504433	9772
0	39019	360	9773
0	39035	360.5	9655
0	39036	360.5	9655
0	39060	361	9394
0	39086	361.5	9134
0	39105	362	8882
0	39281	362.5	8774
0	39332	363	8666
0	39354	363.5	8558
0	39399	364	8482
0	39526	364.5	8494
0	39550	365	8505
0	39612	365.5	8517
0	39669	366	8529
0	39695	366.5	8541
0	39727	367	8553
0	39815	367.5	8565
0	39853	368	8577
0	39877	368.5	8588
0	39909	369	8600
0	39937	369.5	8612
0	39970	370	8768
0	39992	370.5	9008
0	40188	371	9247
0	40217	371.5	9190
0	40255	372	9758
0	40279	372.5	9623
0	40423	373	9489
0	40487	373.5	9354
0	40516	374	9220
0	40562	374.5	9085
0	40591	375	8983
0	40607	375.5	9063
0	40692	376	9068
0	40765	376.5	9073
0	40785	377	9077
0	40821	377.5	9082
0	40851	378	9087
0	40873	378.5	9092
0	40901	379	9097
0	41100	379.5	9102
0	41125	380	9106
0	41144	380.5	9367
0	41169	381	9342
0	41301	381.5	9318
0	41346	382	9293
0	41403	382.5	9269
0	41470	383	9244
0	41500	383.5	9220
0	41518	384	9195
0	41624	384.5	9171
0	41702	385	9146
0	41720	385.5	9122
0	41751	386	9097
0	41779	386.5	9073
0	41815	387	9048
0	41829	387.5	9024
0	41977	388	8999
0	41998	388.5	8975
0	42026	389	8950
0	42045	389.5	8856
0	42166	390	8616
0	42200	390.5	8818
0	42253	391	9019
0	42287	391.5	9220
0	42312	392	9422
0	42340	392.5	9623
0	42450	393	9713
0	42453	393.057988136003	9663
0	42458	393.078327728945	9646
0	42464	393.218958286627	9525
0	42469	393.318467594371	9440
0	42474	393.398345293102	9372
0	42479	393.5	9285
0	42506	394	8857
0	42535	394.5	8818
0	42555	395	9200
0	42587	395.5	9424
0	42605	396	9398
0	42776	396.5	9371
0	42795	397	9345
0	42830	397.5	9318
0	42858	398	9292
0	43003	398.5	9265
0	43051	399	9239
0	43131	399.5	9213
0	43208	400	9801
1	1069	10	8793
1	1139	10.5	8757
1	1190	11	8720
1	1240	11.5	8684
1	1289	12	8648
1	1346	12.5	9729
1	1379	13	9744
1	1413	13.5	9494
1	1441	14	9244
1	1463	14.5	8995
1	1480	15	8745
1	1701	15.5	8496
1	1721	16	8496
1	1753	16.5	8798
1	1774	17	9100
1	1930	17.5	9401
1	1981	18	9276
1	2048	18.5	9126
1	2134	19	8976
1	2158	19.5	8826
1	2242	20	8676
1	2290	20.5	8526
1	2346	21	8376
1	2376	21.5	8412
1	2487	22	8610
1	2506	22.5	8807
1	2590	23	9005
1	2627	23.5	8948
1	2657	24	8780
1	2691	24.5	8749
1	2715	25	8892
1	2745	25.5	9203
1	2764	26	9518
1	2802	26.5	9352
1	2830	27	9134
1	3054	27.5	8916
1	3166	28	8699
1	3234	28.5	8481
1	3284	29	8263
1	3344	29.5	8693
1	3398	30	9286
1	3446	30.5	9682
1	3523	31	9364
1	3540	31.5	9046
1	3620	32	8842
1	3647	32.5	9056
1	3668	33	9270
1	3688	33.5	9210
1	3716	34	9136
1	3748	34.5	9063
1	3937	35	8989
1	3952	35.5	8915
1	3978	36	8799
1	4010	36.5	8495
1	4135	37	9014
1	4210	37.5	9257
1	4263	38	9316
1	4315	38.5	9374
1	4339	39	9432
1	4364	39.5	9490
1	4471	40	9548
1	4529	40.5	9606
1	4551	41	9201
1	4569	41.5	8693
1	4594	42	9021
1	4636	42.5	9105
1	4810	43	9127
1	4852	43.5	9147
1	4882	44	9070
1	4912	44.5	9212
1	4943	45	9354
1	5089	45.5	9496
1	5148	46	9511
1	5176	46.5	9255
1	5200	47	9000
1	5227	47.5	8744
1	5260	48	8764
1	5379	48.5	8732
1	5448	49	8535
1	5467	49.5	8779
1	5500	50	9024
1	5522	50.5	9268
1	5683	51	9237
1	5734	51.5	9115
1	5797	52	9695
1	5812	52.5	9940
1	5813	52.5	9940
1	5843	53	9865
1	5844	53	9865
1	5867	53.5	9789
1	5869	53.507091480093	9788
1	5870	53.514243094314	9787
1	5873	53.521395439261	9786
1	5876	53.528548515084	9785
1	5879	53.535702321931	9784
1	5882	53.542856859952	9783
1	5885	53.550012129297	9782
1	5888	53.557168130115	9781
1	5893	53.564324862555	9780
1	5896	53.571482326768	9779
1	5899	53.578640522903	9777
1	5902	53.585800183331	9776
1	5907	53.59296057613	9775
1	5910	53.60012170145	9774
1	5913	53.607283559441	9773
1	5916	53.614446150252	9772
1	5921	53.621609474034	9771
1	5924	53.628773530937	9770
1	5927	53.635938321111	9769
1	5930	53.643103844706	9768
1	5935	53.650270101872	9767
1	5938	53.65743709276	9766
1	5941	53.664604817519	9765
1	5948	53.689955302227	9761
1	5953	53.786344586396	9746
1	5958	53.857163541897	9735
1	5963	54	9714
1	5994	54.5	9639
1	6024	55	9563
1	6054	55.5	9488
1	6088	56	9412
1	6254	56.5	9506
1	6314	57	9660
1	6320	57.007095793208	9662
1	6325	57.0173543329	9666
1	6330	57.079461906626	9685
1	6335	57.161188973958	9710
1	6341	57.246688111676	9732
1	6346	57.304374536783	9734
1	6352	57.45857419709	9739
1	6357	57.5	9740
1	6388	58	9756
1	6389	58	9756
1	6410	58.5	9771
1	6411	58.5	9771
1	6424	59	9787
1	6425	59.007028818154	9787
1	6426	59.014181163101	9788
1	6429	59.021332777322	9788
1	6432	59.028484391543	9788
1	6435	59.035636005764	9788
1	6440	59.042787619985	9789
1	6443	59.04993850363	9789
1	6446	59.057089387275	9789
1	6449	59.06424027092	9789
1	6452	59.071391154565	9789
1	6455	59.07854203821	9790
1	6458	59.085692191428	9790
1	6461	59.092842344646	9790
1	6464	59.099992497864	9790
1	6467	59.107142651082	9791
1	6470	59.114292074021	9791
1	6473	59.12144149696	9791
1	6478	59.128590919899	9791
1	6483	59.135740342838	9791
1	6486	59.142889765777	9792
1	6489	59.150038458587	9792
1	6492	59.157187151397	9792
1	6495	59.164335844207	9792
1	6498	59.171484537017	9793
1	6501	59.178632499848	9793
1	6504	59.185780462679	9793
1	6507	59.19292842551	9793
1	6516	59.24675572155	9795
1	6521	59.270884045294	9796
1	6526	59.301790588199	9797
1	6531	59.317867130727	9797
1	6536	59.383644923098	9799
1	6542	59.478072737972	9802
1	6546	59.5	9803
1	6549	59.550107916037	9804
1	6554	59.664809876733	9808
1	6559	59.684400257649	9809
1	6564	59.719579618336	9810
1	6569	59.745664266592	9811
1	6574	59.758169610428	9811
1	6579	59.979053048045	9818
1	6582	59.986182809707	9818
1	6589	60	9819
1	6610	60.5	8487
1	6611	60.5	8487
1	6643	61	8231
1	6769	61.5	8445
1	6802	62	8660
1	6897	62.5	8874
1	6963	63	9089
1	6994	63.5	9303
1	7025	64	9451
1	7048	64.5	9301
1	7193	65	9151
1	7233	65.5	9765
1	7234	65.505797860638	9761
1	7235	65.507179487179	9760
1	7236	65.512969257011	9756
1	7241	65.514351618327	9756
1	7244	65.520144328762	9752
1	7247	65.521526690078	9751
1	7250	65.527322343528	9747
1	7253	65.528705440975	9746
1	7256	65.53450404046	9742
1	7259	65.535887874794	9741
1	7262	65.541689423338	9738
1	7265	65.543073995316	9737
1	7270	65.548877757698	9733
1	7273	65.550263067926	9732
1	7276	65.556069784822	9728
1	7279	65.557455834058	9727
1	7282	65.563265508506	9723
1	7285	65.56465229751	9722
1	7295	65.590063716506	9706
1	7300	65.641351785418	9672
1	7305	65.699556148274	9634
1	7310	65.731359671415	9613
1	7315	65.740311084893	9607
1	7320	65.912278843533	9494
1	7325	65.929577395515	9482
1	7328	65.93695980429	9478
1	7335	66	9436
1	7346	66.5	9107
1	7383	67	8778
1	7409	67.5	8449
1	7538	68	8263
1	7574	68.5	8280
1	7590	69	8306
1	7646	69.5	8332
1	7670	70	8359
1	7694	70.5	8385
1	7812	71	8411
1	7868	71.5	8438
1	7882	72	8464
1	7914	72.5	8535
1	7938	73	8605
1	7962	73.5	8676
1	7998	74	8747
1	8157	74.5	8818
1	8186	75	8889
1	8212	75.5	8960
1	8235	76	9031
1	8371	76.5	9190
1	8431	77	9493
1	8474	77.5	9796
1	8477	77.634669540045	9878
1	8483	77.654105438526	9890
1	8489	77.784533611501	9891
1	8496	77.841556704402	9880
1	8501	77.914994673997	9866
1	8507	77.983405279298	9853
1	8512	78	9850
1	8537	78.5	9754
1	8568	79	9658
1	8724	79.5	9563
1	8770	80	9467
1	8798	80.5	9387
1	8823	81	9312
1	8845	81.5	9237
1	8874	82	9162
1	8904	82.5	9087
1	9098	83	9012
1	9121	83.5	8937
1	9149	84	8959
1	9176	84.5	9084
1	9311	85	9209
1	9349	85.5	9335
1	9401	86	9545
1	9450	86.5	9489
1	9489	87	9432
1	9509	87.5	9376
1	9638	88	9320
1	9683	88.5	9263
1	9715	89	9207
1	9753	89.5	9151
1	9777	90	9094
1	9813	90.5	9038
1	9841	91	8982
1	10059	91.5	8925
1	10079	92	8869
1	10135	92.5	8813
1	10189	93	8756
1	10222	93.5	8700
1	10286	94	8644
1	10340	94.5	8641
1	10397	95	8741
1	10422	95.5	8841
1	10448	96	8942
1	10477	96.5	9042
1	10503	97	9143
1	10537	97.5	9243
1	10560	98	9343
1	10588	98.5	9444
1	10617	99	9202
1	10636	99.5	8859
1	10868	100	8517
1	11006	100.5	8827
1	11083	101	8713
1	11145	101.5	8963
1	11192	102	9566
1	11246	102.5	9717
1	11250	102.647185322097	9551
1	11255	102.681819567317	9512
1	11260	102.791379672254	9388
1	11265	102.884793532624	9282
1	11270	102.896435868656	9269
1	11275	102.937324499979	9223
1	11280	103	9152
1	11327	103.5	8586
1	11350	104	8381
1	11452	104.5	8497
1	11523	105	8614
1	11548	105.5	8730
1	11655	106	8846
1	11665	106.5	8962
1	11691	107	9079
1	11718	107.5	9195
1	11742	108	9311
1	11780	108.5	9428
1	11959	109	9544
1	11976	109.5	9688
1	12017	110	9835
1	12018	110	9835
1	12035	110.5	9972
1	12036	110.507311468561	9962
1	12037	110.514338170027	9952
1	12040	110.521371932085	9942
1	12043	110.528412768939	9932
1	12046	110.535460694835	9922
1	12049	110.542515724063	9912
1	12052	110.549577870956	9901
1	12055	110.556647863886	9891
1	12058	110.563725004721	9881
1	12061	110.570809307929	9871
1	12064	110.577900788022	9861
1	12067	110.584999459556	9851
1	12070	110.592105337132	9841
1	12073	110.599218435394	9830
1	12076	110.60633949338	9820
1	12079	110.613467802952	9810
1	12082	110.620603378895	9800
1	12085	110.627746236038	9790
1	12088	110.634896389256	9780
1	12091	110.642053853469	9769
1	12094	110.649219377064	9759
1	12097	110.656392243136	9749
1	12100	110.663572466749	9739
1	12103	110.670760063011	9728
1	12106	110.677955786695	9718
1	12109	110.685158914911	9708
1	12112	110.692369462913	9697
1	12119	110.849561535458	9473
1	12125	110.90259990469	9397
1	12130	110.916669029447	9377
1	12135	110.96188595577	9312
1	12140	110.988093778853	9275
1	12144	111	9258
1	12206	111.5	8543
1	12250	112	8185
1	12267	112.5	8301
1	12286	113	8418
1	12307	113.5	9251
1	12394	114	9344
1	12479	114.5	9282
1	12493	115	9219
1	12518	115.5	9157
1	12549	116	9094
1	12580	116.5	9032
1	12600	117	8969
1	12788	117.5	8907
1	12802	118	8844
1	12833	118.5	8782
1	12856	119	8719
1	12955	119.5	8657
1	13035	120	8594
1	13093	120.5	8532
1	13136	121	8469
1	13167	121.5	8407
1	13185	122	8344
1	13304	122.5	8282
1	13346	123	8219
1	13379	123.5	8157
1	13415	124	8095
1	13579	124.5	8214
1	13599	125	8333
1	13616	125.5	8452
1	13721	126	8571
1	13736	126.5	8690
1	13756	127	9127
1	13786	127.5	9808
1	13788	127.507179487179	9809
1	13791	127.514315790574	9793
1	13794	127.521463753405	9776
1	13799	127.528624146204	9760
1	13802	127.535796277352	9744
1	13805	127.542980185398	9727
1	13808	127.55017664885	9711
1	13811	127.557384969311	9694
1	13814	127.56460593073	9678
1	13817	127.571838830089	9661
1	13820	127.579084456836	9645
1	13825	127.586342103285	9628
1	13828	127.59361256444	9612
1	13831	127.600895127902	9595
1	13834	127.608190594291	9578
1	13837	127.615499009409	9562
1	13840	127.622819653626	9545
1	13843	127.630153336182	9528
1	13846	127.637500103604	9512
1	13849	127.644859228919	9495
1	13852	127.65223153013	9478
1	13855	127.659617054502	9461
1	13858	127.667015849555	9444
1	13861	127.674427963066	9427
1	13864	127.68185344307	9410
1	13871	127.696809878131	9376
1	13877	127.78804875845	9168
1	13883	127.947053115566	8806
1	13889	127.961717712723	8772
1	13894	128	8685
1	13928	128.5	8222
1	13958	129	8466
1	14094	129.5	8709
1	14128	130	8953
1	14146	130.5	9197
1	14257	131	9346
1	14301	131.5	9340
1	14318	132	9693
1	14345	132.5	9717
1	14346	132.507194244604	9717
1	14347	132.514398114111	9718
1	14352	132.521601242327	9718
1	14355	132.528804370543	9718
1	14358	132.536007498759	9719
1	14361	132.543209885836	9719
1	14364	132.550412272913	9719
1	14367	132.55761465999	9720
1	14370	132.564816306081	9720
1	14373	132.572017952172	9720
1	14376	132.579219598263	9721
1	14379	132.58642050352	9721
1	14382	132.593621408777	9721
1	14385	132.600822314034	9722
1	14388	132.608022478609	9722
1	14391	132.615222643184	9722
1	14394	132.622422807759	9723
1	14401	132.660601750078	9725
1	14407	132.697363459117	9726
1	14412	132.738542671417	9728
1	14417	132.753690768232	9729
1	14422	132.787176158604	9731
1	14427	132.808972896577	9732
1	14432	132.819237022931	9732
1	14438	132.909081149475	9736
1	14443	132.961844374948	9739
1	14448	133	9741
1	14467	133.5	9765
1	14468	133.5	9765
1	14501	134	9788
1	14502	134.007254637786	9789
1	14503	134.014405521431	9789
1	14506	134.021556405076	9790
1	14509	134.028706558294	9790
1	14512	134.035856711512	9790
1	14517	134.04300686473	9791
1	14520	134.050156287669	9791
1	14523	134.057305710608	9791
1	14526	134.064455133547	9792
1	14529	134.071603826357	9792
1	14532	134.078752519167	9792
1	14535	134.085901211977	9793
1	14538	134.093049174808	9793
1	14541	134.100197137639	9793
1	14544	134.10734510047	9794
1	14547	134.11449233347	9794
1	14550	134.12163956647	9794
1	14554	134.12878679947	9795
1	14557	134.135933302788	9795
1	14560	134.143079806106	9795
1	14563	134.150226309424	9796
1	14566	134.157372083209	9796
1	14573	134.201946262355	9798
1	14576	134.209090577521	9798
1	14583	134.249077411565	9800
1	14589	134.436163657126	9809
1	14592	134.443299960521	9810
1	14599	134.460451624467	9810
1	14604	134.5	9812
1	14628	135	8085
1	14629	135	8085
1	14665	135.5	8285
1	14689	136	8485
1	14840	136.5	8685
1	14879	137	8885
1	14899	137.5	9085
1	15017	138	9285
1	15049	138.5	9485
1	15073	139	9685
1	15204	139.5	8139
1	15272	140	9211
1	15302	140.5	9671
1	15322	141	9914
1	15325	141.008396305626	9913
1	15326	141.015457740106	9912
1	15329	141.022519886999	9911
1	15332	141.029582746448	9910
1	15335	141.036646318597	9909
1	15338	141.04371060359	9908
1	15341	141.050775601571	9907
1	15348	141.057841312684	9906
1	15351	141.064907737073	9905
1	15354	141.071974874882	9904
1	15357	141.079042726255	9903
1	15360	141.086111291336	9902
1	15363	141.09318057027	9901
1	15366	141.1002505632	9901
1	15369	141.10732055613	9900
1	15372	141.114391263201	9899
1	15375	141.121462684557	9898
1	15378	141.128534820342	9897
1	15385	141.15989843416	9893
1	15390	141.17531334858	9891
1	15395	141.191055179073	9888
1	15398	141.198134467099	9888
1	15405	141.272964911465	9878
1	15411	141.401274610537	9861
1	15416	141.435676990255	9856
1	15421	141.472299921229	9851
1	15426	141.5	9848
1	15441	142	9781
1	15442	142	9781
1	15477	142.5	9690
1	15478	142.507137758744	9689
1	15481	142.514362446534	9687
1	15484	142.52158862595	9686
1	15487	142.528815551409	9684
1	15490	142.536043969418	9682
1	15493	142.543273880593	9681
1	15496	142.550504538583	9679
1	15499	142.557736690665	9678
1	15502	142.564969590024	9676
1	15505	142.572203984402	9675
1	15508	142.579439126521	9673
1	15511	142.586675764586	9671
1	15514	142.593913899215	9670
1	15519	142.601152782359	9668
1	15522	142.608393162996	9667
1	15525	142.615634292612	9665
1	15528	142.622876920651	9664
1	15531	142.630120298134	9662
1	15534	142.637365174971	9660
1	15537	142.644611551783	9659
1	15540	142.651858678815	9657
1	15543	142.659107306753	9656
1	15551	142.70943355933	9645
1	15557	142.871448229553	9610
1	15562	142.933670351332	9596
1	15567	142.978392580378	9587
1	15570	142.985694134566	9585
1	15577	142.999486192314	9582
1	15579	143	9582
1	15596	143.5	9474
1	15620	144	9365
1	15726	144.5	9257
1	15797	145	9149
1	15813	145.5	9040
1	15823	146	8932
1	15904	146.5	8824
1	15938	147	8717
1	16022	147.5	8610
1	16072	148	8503
1	16094	148.5	8396
1	16121	149	8999
1	16143	149.5	9937
1	16144	149.507151614221	9937
1	16145	149.514195993812	9936
1	16148	149.521241082379	9936
1	16151	149.528286170946	9936
1	16154	149.535331259513	9935
1	16157	149.542377057198	9935
1	16160	149.549422854883	9935
1	16163	149.556468652568	9935
1	16166	149.563514450253	9934
1	16169	149.570560957199	9934
1	16172	149.577607464145	9934
1	16175	149.584653971091	9933
1	16178	149.591701187441	9933
1	16183	149.598748403791	9933
1	16186	149.605795620141	9932
1	16189	149.612843546037	9932
1	16193	149.619891471933	9932
1	16196	149.626939397829	9932
1	16199	149.633987323725	9931
1	16203	149.641035959311	9931
1	16206	149.648084594897	9931
1	16209	149.655133230483	9930
1	16212	149.662182575901	9930
1	16215	149.669231921319	9930
1	16218	149.676281266737	9929
1	16223	149.68333132213	9929
1	16230	149.714187208192	9928
1	16235	149.757717031596	9926
1	16240	149.801425634576	9924
1	16245	149.819443933932	9923
1	16250	149.886260104779	9920
1	16255	149.945333050024	9918
1	16260	149.997531042773	9916
1	16262	150	9915
1	16289	150.5	9894
1	16290	150.5	9894
1	16336	151	9814
1	16337	151	9814
1	16354	151.5	9616
1	16355	151.5	9616
1	16377	152	9419
1	16390	152.5	9221
1	16580	153	9023
1	16645	153.5	8897
1	16683	154	8803
1	16794	154.5	8708
1	16856	155	8614
1	16924	155.5	8555
1	16974	156	8578
1	17058	156.5	8600
1	17075	157	8625
1	17097	157.5	8649
1	17125	158	8673
1	17142	158.5	8697
1	17167	159	8605
1	17195	159.5	8477
1	17216	160	8992
1	17426	160.5	9697
1	17451	161	9881
1	17453	161.007057874571	9880
1	17454	161.014142894814	9880
1	17457	161.021227915057	9880
1	17460	161.0283129353	9879
1	17463	161.035398672723	9879
1	17466	161.042484410146	9879
1	17469	161.049570147569	9878
1	17472	161.056656602317	9878
1	17475	161.063743057065	9877
1	17478	161.070830229283	9877
1	17486	161.154207245229	9873
1	17491	161.22516054567	9869
1	17496	161.250522573244	9868
1	17501	161.279245790909	9866
1	17506	161.3044675946	9865
1	17511	161.336583143589	9863
1	17517	161.401364129756	9860
1	17522	161.413930304365	9859
1	17527	161.433862665041	9858
1	17532	161.48774900352	9855
1	17536	161.5	9855
1	17539	161.507888212756	9854
1	17544	161.559436628153	9852
1	17549	161.59899791826	9849
1	17554	161.614373209273	9849
1	17559	161.631779916534	9848
1	17564	161.667338782233	9846
1	17569	161.717241022288	9843
1	17574	161.74012869646	9842
1	17580	161.777940038137	9840
1	17585	161.871072553915	9835
1	17590	161.974759175234	9830
1	17593	161.98188023322	9829
1	17599	162	9828
1	17602	162.052146170835	9826
1	17607	162.067022744109	9825
1	17612	162.083934991027	9824
1	17617	162.102411595729	9823
1	17622	162.118401100909	9822
1	17627	162.148854367364	9821
1	17632	162.217546485275	9817
1	17637	162.307235135507	9812
1	17644	162.372880044473	9809
1	17649	162.380016347868	9809
1	17652	162.387152651263	9808
1	17659	162.462084437276	9804
1	17664	162.49823057192	9802
1	17665	162.5	9802
1	17671	162.516634259229	9801
1	17677	162.60031007018	9797
1	17683	162.778254909977	9712
1	17689	162.875212796542	9652
1	17692	162.882465179468	9647
1	17700	162.950395644696	9604
1	17705	163	9573
1	17769	163.5	9260
1	17813	164	8947
1	17837	164.5	8713
1	17942	165	9223
1	17963	165.5	9734
1	17987	166	9051
1	18003	166.5	8969
1	18123	167	8894
1	18148	167.5	8895
1	18164	168	9203
1	18187	168.5	9093
1	18214	169	8983
1	18366	169.5	8873
1	18418	170	8763
1	18458	170.5	8666
1	18473	171	8570
1	18484	171.5	8475
1	18558	172	8380
1	18588	172.5	8285
1	18620	173	8190
1	18648	173.5	8630
1	18758	174	9680
1	18791	174.5	8870
1	18822	175	8923
1	18938	175.5	8976
1	18960	176	9029
1	18984	176.5	9098
1	19016	177	9188
1	19136	177.5	9277
1	19160	178	9367
1	19181	178.5	9332
1	19274	179	9246
1	19295	179.5	9159
1	19307	180	9072
1	19401	180.5	8986
1	19445	181	8899
1	19467	181.5	8812
1	19495	182	8724
1	19587	182.5	8611
1	19607	183	8499
1	19615	183.5	8387
1	19680	184	8275
1	19707	184.5	8163
1	19745	185	8151
1	19773	185.5	8156
1	19943	186	8162
1	19951	186.5	8170
1	19985	187	8178
1	20099	187.5	8186
1	20126	188	8194
1	20152	188.5	8248
1	20246	189	8616
1	20297	189.5	8482
1	20315	190	8348
1	20338	190.5	8214
1	20460	191	8247
1	20505	191.5	8688
1	20528	192	9129
1	20675	192.5	9570
1	20699	193	9346
1	20700	193	9346
1	20732	193.5	8996
1	20763	194	9239
1	20892	194.5	9494
1	20915	195	9749
1	20936	195.5	9117
1	21034	196	8965
1	21063	196.5	8818
1	21083	197	8671
1	21185	197.5	8525
1	21232	198	8687
1	21258	198.5	8923
1	21294	199	9158
1	21426	199.5	9137
1	21445	200	8962
1	21463	200.5	8788
1	21557	201	8533
1	21588	201.5	8267
1	21614	202	8310
1	21636	202.5	8353
1	21773	203	8396
1	21800	203.5	8439
1	21834	204	8482
1	21959	204.5	8525
1	21980	205	8569
1	22075	205.5	8612
1	22143	206	8655
1	22215	206.5	8698
1	22234	207	8741
1	22270	207.5	8784
1	22368	208	8827
1	22397	208.5	8870
1	22429	209	8913
1	22461	209.5	8956
1	22490	210	8999
1	22687	210.5	9042
1	22720	211	9085
1	22825	211.5	9128
1	22846	212	9171
1	22868	212.5	9184
1	22953	213	8233
1	23024	213.5	8390
1	23075	214	8546
1	23109	214.5	8703
1	23217	215	8860
1	23245	215.5	9017
1	23259	216	9174
1	23338	216.5	9331
1	23352	217	9487
1	23375	217.5	9644
1	23413	218	9576
1	23451	218.5	9396
1	23482	219	9215
1	23505	219.5	9035
1	23704	220	8854
1	23735	220.5	8674
1	23759	221	8580
1	23875	221.5	8709
1	23951	222	8838
1	23988	222.5	8968
1	24050	223	9097
1	24104	223.5	9226
1	24130	224	9373
1	24154	224.5	9558
1	24261	225	9415
1	24284	225.5	9268
1	24379	226	9120
1	24443	226.5	8973
1	24519	227	8983
1	24543	227.5	9089
1	24599	228	9182
1	24658	228.5	9274
1	24682	229	9367
1	24715	229.5	9460
1	24739	230	9553
1	24767	230.5	9638
1	24790	231	9631
1	24820	231.5	8775
1	24856	232	9290
1	24889	232.5	8972
1	24912	233	8654
1	25144	233.5	8336
1	25327	234	8868
1	25390	234.5	8999
1	25468	235	9130
1	25516	235.5	9262
1	25519	235.510355497011	9264
1	25524	235.544085809856	9273
1	25527	235.55163460744	9275
1	25532	235.559181777251	9277
1	25539	235.637838553169	9298
1	25544	235.710468554006	9317
1	25549	235.741543926697	9325
1	25554	235.764574984519	9331
1	25559	235.783184461551	9336
1	25564	235.820277412568	9346
1	25569	235.828397074306	9348
1	25574	235.838896826637	9351
1	25577	235.846382657029	9353
1	25584	235.93052835031	9375
1	25590	235.960456061987	9383
1	25594	236	9393
1	25598	236.021146191484	9399
1	25603	236.062418271202	9409
1	25608	236.071553993352	9412
1	25613	236.084385149624	9415
1	25618	236.152094322471	9433
1	25623	236.285274531771	9468
1	25628	236.347223890385	9484
1	25633	236.358193794736	9487
1	25638	236.368460932749	9490
1	25643	236.389028034311	9495
1	25648	236.413536203419	9502
1	25653	236.462291367756	9514
1	25657	236.5	9524
1	25660	236.507282563462	9526
1	25665	236.580591964064	9546
1	25670	236.685131311332	9573
1	25675	236.725193641356	9584
1	25681	236.776818973481	9063
1	25686	236.803526935363	8772
1	25691	236.815581009363	8641
1	25694	236.823681923609	8552
1	25703	236.908943328973	8246
1	25708	236.918494496029	8255
1	25713	236.936602149785	8273
1	25718	236.95220431386	8288
1	25723	237	8335
1	25737	237.5	8823
1	25855	238	9548
1	25882	238.5	9583
1	25902	239	9414
1	25903	239	9414
1	25920	239.5	9246
1	25956	240	9077
1	25978	240.5	8909
1	25998	241	8740
1	26024	241.5	8123
1	26056	242	8383
1	26073	242.5	8805
1	26299	243	9226
1	26377	243.5	9648
1	26407	244	9937
1	26410	244.007720460435	9936
1	26415	244.106725648018	9930
1	26418	244.113774993436	9930
1	26427	244.283434642921	9920
1	26432	244.43839346105	9910
1	26437	244.473526255267	9908
1	26441	244.5	9907
1	26446	244.660374462048	9873
1	26451	244.673083856976	9870
1	26457	244.736192799483	9852
1	26464	244.893717458702	9807
1	26469	244.926307933411	9798
1	26474	244.933452248577	9796
1	26477	244.940598022362	9794
1	26484	245	9777
1	26539	245.5	9634
1	26607	246	9492
1	26657	246.5	9350
1	26676	247	9208
1	26765	247.5	9065
1	26791	248	8923
1	26831	248.5	8781
1	26855	249	8638
1	26876	249.5	8497
1	26898	250	8358
1	26928	250.5	8947
1	26958	251	9097
1	26978	251.5	8826
1	26998	252	8521
1	27220	252.5	8211
1	27303	253	8167
1	27403	253.5	8123
1	27461	254	8210
1	27520	254.5	8327
1	27585	255	8445
1	27643	255.5	8279
1	27675	256	8322
1	27692	256.5	8390
1	27822	257	8764
1	27849	257.5	8630
1	27887	258	8496
1	27900	258.5	8361
1	28035	259	8264
1	28062	259.5	8262
1	28081	260	8261
1	28115	260.5	8259
1	28132	261	8258
1	28164	261.5	9225
1	28356	262	9051
1	28405	262.5	8838
1	28433	263	8625
1	28466	263.5	8412
1	28619	264	8439
1	28684	264.5	9243
1	28762	265	9060
1	28799	265.5	8877
1	28817	266	8693
1	28848	266.5	9641
1	28864	267	8489
1	29004	267.5	8552
1	29025	268	8687
1	29057	268.5	8821
1	29089	269	8955
1	29110	269.5	9120
1	29125	270	9347
1	29296	270.5	9573
1	29299	270.644997664382	9639
1	29304	270.657649445617	9644
1	29310	270.826637236637	9703
1	29317	270.981929943268	9692
1	29322	271	9691
1	29342	271.5	9655
1	29367	272	9620
1	29457	272.5	9585
1	29508	273	9549
1	29572	273.5	9514
1	29601	274	9479
1	29629	274.5	9443
1	29649	275	9408
1	29666	275.5	9373
1	29775	276	9337
1	29811	276.5	9302
1	29844	277	9150
1	29877	277.5	8707
1	29904	278	8744
1	29944	278.5	8932
1	30177	279	9119
1	30247	279.5	9306
1	30269	280	9494
1	30363	280.5	9681
1	30403	281	9868
1	30406	281.05434567386	9889
1	30411	281.077174674416	9897
1	30416	281.092879799147	9903
1	30421	281.116889105175	9912
1	30427	281.25797767473	9965
1	30432	281.2749326597	9971
1	30438	281.343901122283	9954
1	30443	281.462128349123	9894
1	30447	281.5	9875
1	30478	282	9624
1	30537	282.5	9372
1	30566	283	9121
1	30688	283.5	8869
1	30718	284	8618
1	30741	284.5	8373
1	30764	285	8429
1	30808	285.5	8485
1	30828	286	8541
1	30849	286.5	8598
1	30872	287	8654
1	30905	287.5	8710
1	31137	288	8766
1	31224	288.5	8822
1	31255	289	8882
1	31307	289.5	8942
1	31380	290	9001
1	31440	290.5	9061
1	31520	291	9005
1	31573	291.5	8926
1	31595	292	8848
1	31701	292.5	8770
1	31721	293	8947
1	31739	293.5	9153
1	31815	294	9189
1	31835	294.5	9021
1	31851	295	8854
1	31948	295.5	8686
1	31965	296	8519
1	31992	296.5	8351
1	32010	297	8184
1	32105	297.5	8362
1	32131	298	8692
1	32155	298.5	9022
1	32264	299	9152
1	32287	299.5	9152
1	32315	300	9523
1	32411	300.5	9728
1	32466	301	9306
1	32497	301.5	8885
1	32530	302	8675
1	32671	302.5	8775
1	32691	303	8875
1	32705	303.5	8933
1	32773	304	8909
1	32804	304.5	8885
1	32831	305	8863
1	32858	305.5	8865
1	33005	306	8867
1	33034	306.5	8877
1	33067	307	8904
1	33173	307.5	8931
1	33198	308	8958
1	33218	308.5	8985
1	33347	309	9012
1	33413	309.5	9039
1	33434	310	9066
1	33457	310.5	9092
1	33526	311	9119
1	33550	311.5	9146
1	33578	312	9173
1	33703	312.5	9200
1	33724	313	9175
1	33754	313.5	9084
1	33883	314	8993
1	33935	314.5	8901
1	33960	315	8810
1	33996	315.5	8718
1	34152	316	8627
1	34188	316.5	8551
1	34208	317	8482
1	34318	317.5	8413
1	34340	318	8617
1	34412	318.5	9257
1	34439	319	8572
1	34531	319.5	8199
1	34557	320	8132
1	34589	320.5	8065
1	34726	321	8239
1	34750	321.5	8413
1	34783	322	8587
1	34823	322.5	8760
1	34852	323	8934
1	34888	323.5	9108
1	34910	324	9282
1	35138	324.5	9456
1	35172	325	9629
1	35201	325.5	9648
1	35327	326	9605
1	35330	326.008948099557	9604
1	35336	326.054869005682	9600
1	35341	326.065801925582	9599
1	35346	326.1530340485	9592
1	35349	326.160331796623	9591
1	35356	326.250494710389	9583
1	35361	326.258762020411	9582
1	35364	326.266067384636	9582
1	35372	326.279988235403	9581
1	35378	326.325106557378	9577
1	35383	326.363241918423	9573
1	35389	326.416404536269	9569
1	35394	326.44735809298	9566
1	35397	326.454675676087	9565
1	35404	326.498942718765	9562
1	35405	326.5	9561
1	35411	326.578842249671	9555
1	35416	326.70142945612	9544
1	35421	326.731658032607	9541
1	35426	326.748849480966	9540
1	35432	326.828887776515	9533
1	35437	326.84345745462	9532
1	35442	326.857508141348	9530
1	35447	326.978232215352	9520
1	35452	327	9518
1	35455	327.007149422939	9517
1	35460	327.067624659145	9512
1	35463	327.07498378446	9511
1	35470	327.125925017448	9507
1	35475	327.133432113393	9506
1	35480	327.160556061689	9504
1	35485	327.256429606447	9496
1	35491	327.5	9474
1	35538	328	9431
1	35553	328.5	9387
1	35652	329	9334
1	35700	329.5	9273
1	35732	330	9211
1	35764	330.5	9196
1	35898	331	9183
1	35915	331.5	9170
1	35940	332	9157
1	35969	332.5	9144
1	35988	333	9130
1	36016	333.5	9117
1	36032	334	9104
1	36207	334.5	9099
1	36229	335	9105
1	36249	335.5	9122
1	36365	336	9141
1	36416	336.5	9160
1	36502	337	9179
1	36567	337.5	9198
1	36633	338	9217
1	36656	338.5	9236
1	36679	339	9255
1	36780	339.5	9274
1	36801	340	9292
1	36829	340.5	9311
1	36961	341	9330
1	36986	341.5	9349
1	37020	342	9368
1	37044	342.5	9387
1	37196	343	9406
1	37224	343.5	9425
1	37252	344	9444
1	37253	344.00713994288	9444
1	37254	344.014552056391	9444
1	37257	344.021964169902	9444
1	37260	344.029376283413	9445
1	37263	344.036787612158	9445
1	37268	344.044198940903	9445
1	37271	344.051610269648	9445
1	37276	344.059021598393	9446
1	37281	344.066432142539	9446
1	37286	344.073842686685	9446
1	37289	344.081253230831	9447
1	37292	344.088662990543	9447
1	37295	344.096072750255	9447
1	37298	344.103482509967	9447
1	37301	344.110892269679	9448
1	37304	344.118301245124	9448
1	37307	344.125710220569	9448
1	37310	344.133119196014	9449
1	37313	344.140527387357	9449
1	37316	344.1479355787	9449
1	37319	344.155343770043	9449
1	37322	344.162751961386	9450
1	37325	344.170159368793	9450
1	37328	344.1775667762	9450
1	37331	344.184974183607	9451
1	37334	344.192380807245	9451
1	37342	344.257995728102	9453
1	37347	344.31723167374	9456
1	37352	344.35142857895	9457
1	37359	344.469229569041	9461
1	37364	344.493555762188	9462
1	37366	344.5	9462
1	37384	345	9481
1	37475	345.5	8875
1	37524	346	8912
1	37578	346.5	9128
1	37609	347	9354
1	37635	347.5	9388
1	37758	348	9187
1	37775	348.5	9258
1	37885	349	9329
1	37906	349.5	9400
1	37926	350	9471
1	37945	350.5	9542
1	38056	351	9613
1	38103	351.5	9625
1	38144	352	9537
1	38168	352.5	9449
1	38169	352.5	9449
1	38195	353	9361
1	38221	353.5	9274
1	38368	354	9186
1	38403	354.5	9098
1	38426	355	9010
1	38458	355.5	8922
1	38479	356	8834
1	38634	356.5	8746
1	38653	357	8658
1	38708	357.5	8668
1	38732	358	8708
1	38760	358.5	8748
1	38783	359	8788
1	38942	359.5	8829
1	39019	360	8869
1	39036	360.5	8909
1	39060	361	8949
1	39086	361.5	8989
1	39105	362	9029
1	39281	362.5	9069
1	39332	363	9109
1	39354	363.5	9149
1	39399	364	9154
1	39526	364.5	9019
1	39550	365	9012
1	39612	365.5	9066
1	39669	366	9141
1	39695	366.5	9216
1	39727	367	9291
1	39815	367.5	9261
1	39853	368	9155
1	39877	368.5	9049
1	39909	369	8943
1	39937	369.5	8837
1	39970	370	8731
1	39992	370.5	9291
1	40188	371	9271
1	40217	371.5	8971
1	40255	372	8671
1	40279	372.5	8479
1	40423	373	8484
1	40487	373.5	8490
1	40516	374	8496
1	40562	374.5	8502
1	40591	375	8537
1	40607	375.5	8755
1	40692	376	8951
1	40765	376.5	9146
1	40785	377	9342
1	40821	377.5	9537
1	40851	378	9722
1	40872	378.5	9688
1	40873	378.5	9688
1	40901	379	9654
1	40902	379.007500267867	9653
1	40903	379.014751899484	9653
1	40906	379.022003531101	9652
1	40909	379.029255914027	9652
1	40912	379.036508296953	9651
1	40915	379.043761431343	9651
1	40920	379.051014565733	9651
1	40923	379.058267700123	9650
1	40926	379.065521586133	9650
1	40929	379.072775472143	9649
1	40932	379.080030109929	9649
1	40935	379.087284747715	9648
1	40938	379.094540137433	9648
1	40941	379.101795527151	9647
1	40944	379.109051668957	9647
1	40947	379.116307810763	9646
1	40950	379.123564704812	9646
1	40953	379.130821598861	9645
1	40958	379.13807924531	9645
1	40961	379.145336891759	9644
1	40964	379.152595290764	9644
1	40969	379.159853689769	9643
1	40974	379.167112841485	9643
1	40977	379.174371993201	9642
1	40980	379.181631897785	9642
1	40983	379.188891802369	9641
1	40986	379.196152459977	9641
1	40990	379.203413117585	9640
1	40993	379.210674528373	9640
1	40996	379.217935939161	9639
1	40999	379.225198103286	9639
1	41002	379.232460267411	9638
1	41007	379.239723185029	9638
1	41010	379.246986102647	9637
1	41015	379.254249773914	9637
1	41018	379.261513445181	9636
1	41021	379.268777870254	9636
1	41026	379.276042295327	9635
1	41029	379.283307474362	9635
1	41032	379.290572653397	9634
1	41035	379.29783858655	9634
1	41038	379.305104519703	9633
1	41041	379.312371207132	9633
1	41046	379.319637894561	9632
1	41049	379.326905336421	9632
1	41052	379.334172778281	9631
1	41055	379.34144097473	9631
1	41058	379.348709171179	9630
1	41065	379.355978122373	9630
1	41068	379.363247073567	9629
1	41071	379.370516779663	9629
1	41074	379.377786485759	9628
1	41077	379.385056946914	9628
1	41080	379.392327408069	9627
1	41083	379.39959862444	9627
1	41086	379.406869840811	9626
1	41089	379.414141812554	9626
1	41092	379.421413784297	9625
1	41100	379.5	9620
1	41124	380	9586
1	41125	380	9586
1	41144	380.5	9552
1	41169	381	9518
1	41301	381.5	9443
1	41346	382	9322
1	41403	382.5	9201
1	41470	383	9080
1	41500	383.5	8960
1	41518	384	8839
1	41624	384.5	8718
1	41702	385	8597
1	41720	385.5	8476
1	41751	386	8356
1	41779	386.5	8235
1	41815	387	8289
1	41829	387.5	8473
1	41977	388	8657
1	41998	388.5	8841
1	42026	389	9025
1	42045	389.5	9209
1	42166	390	9393
1	42200	390.5	9556
1	42253	391	9702
1	42287	391.5	9848
1	42311	392	9891
1	42312	392	9891
1	42340	392.5	9695
1	42341	392.507342914088	9692
1	42344	392.514565365594	9689
1	42347	392.521790053384	9686
1	42350	392.529016978843	9683
1	42354	392.536246143358	9681
1	42357	392.543476801348	9678
1	42360	392.550709700707	9675
1	42363	392.557944842826	9672
1	42368	392.565182229096	9669
1	42371	392.572421860909	9666
1	42374	392.579663739659	9664
1	42377	392.586907117142	9661
1	42380	392.594152743889	9658
1	42383	392.601400621296	9655
1	42386	392.608650750763	9652
1	42390	392.615903133689	9649
1	42393	392.623157771475	9646
1	42396	392.630414665524	9644
1	42401	392.637673064529	9641
1	42404	392.644933722137	9638
1	42407	392.652196639755	9635
1	42410	392.65946181879	9632
1	42415	392.66672926065	9629
1	42422	392.674863507385	9626
1	42427	392.731898600024	9604
1	42432	392.761563139856	9592
1	42437	392.797801804366	9578
1	42442	392.822448238972	9568
1	42450	393	9499
1	42479	393.5	9303
1	42506	394	9109
1	42535	394.5	8997
1	42555	395	8886
1	42587	395.5	8774
1	42605	396	8662
1	42776	396.5	8551
1	42795	397	8439
1	42830	397.5	8327
1	42858	398	8216
1	43003	398.5	8110
1	43051	399	8152
1	43131	399.5	8194
1	43208	400	8236
2	1069	10	8642
2	1139	10.5	8885
2	1190	11	9149
2	1240	11.5	9412
2	1289	12	9675
2	1346	12.5	9832
2	1379	13	9338
2	1413	13.5	8845
2	1441	14	8847
2	1463	14.5	8849
2	1480	15	8851
2	1701	15.5	9256
2	1721	16	9221
2	1753	16.5	9086
2	1774	17	8951
2	1930	17.5	8935
2	1981	18	9058
2	2048	18.5	9181
2	2134	19	9305
2	2158	19.5	9389
2	2242	20	9435
2	2290	20.5	9482
2	2346	21	9529
2	2376	21.5	9575
2	2487	22	9622
2	2506	22.5	9669
2	2590	23	9716
2	2626	23.5	9762
2	2627	23.5	9762
2	2656	24	9809
2	2657	24	9809
2	2690	24.5	9856
2	2691	24.5	9856
2	2714	25	9846
2	2715	25	9846
2	2744	25.5	9691
2	2745	25.5	9691
2	2764	26	9536
2	2802	26.5	9381
2	2830	27	9226
2	3054	27.5	9071
2	3166	28	9094
2	3234	28.5	9163
2	3284	29	9233
2	3344	29.5	9303
2	3398	30	9372
2	3446	30.5	9442
2	3523	31	9512
2	3540	31.5	9582
2	3620	32	9513
2	3647	32.5	9396
2	3668	33	9280
2	3688	33.5	9163
2	3716	34	9047
2	3748	34.5	8930
2	3937	35	8813
2	3952	35.5	8697
2	3978	36	8580
2	4010	36.5	8464
2	4135	37	8347
2	4210	37.5	8537
2	4263	38	8987
2	4315	38.5	8672
2	4339	39	8280
2	4364	39.5	8328
2	4471	40	8375
2	4529	40.5	8423
2	4551	41	8484
2	4569	41.5	8589
2	4594	42	8694
2	4636	42.5	8799
2	4810	43	8904
2	4852	43.5	9009
2	4882	44	9114
2	4912	44.5	9219
2	4943	45	9324
2	5089	45.5	9429
2	5148	46	9534
2	5176	46.5	9484
2	5200	47	9216
2	5227	47.5	8412
2	5260	48	8543
2	5379	48.5	8674
2	5448	49	8805
2	5467	49.5	9213
2	5500	50	9161
2	5522	50.5	8834
2	5683	51	8601
2	5734	51.5	8825
2	5797	52	9049
2	5813	52.5	9273
2	5844	53	8233
2	5867	53.5	8458
2	5963	54	8533
2	5994	54.5	8518
2	6024	55	8076
2	6054	55.5	8900
2	6088	56	9659
2	6254	56.5	9645
2	6314	57	9630
2	6357	57.5	9615
2	6389	58	9601
2	6411	58.5	9586
2	6424	59	9571
2	6546	59.5	9557
2	6589	60	9542
2	6611	60.5	9601
2	6643	61	9675
2	6644	61.004471122449	9676
2	6647	61.011705516827	9677
2	6650	61.014340670045	9677
2	6654	61.018939163618	9678
2	6657	61.021574316836	9678
2	6660	61.02459621165	9679
2	6661	61.026172062977	9679
2	6664	61.028807216195	9680
2	6667	61.031828363732	9680
2	6672	61.033404215059	9680
2	6675	61.036038621154	9681
2	6678	61.039059768691	9681
2	6681	61.040635620018	9681
2	6684	61.043269279144	9682
2	6687	61.046290426681	9682
2	6690	61.047866278008	9682
2	6693	61.050499190319	9683
2	6696	61.053520337856	9683
2	6699	61.055096189183	9683
2	6702	61.057728354834	9684
2	6705	61.060749502371	9684
2	6718	61.081935270449	9687
2	6724	61.150864561258	9698
2	6731	61.282749628344	9717
2	6738	61.32996394683	9725
2	6744	61.374683828203	9731
2	6749	61.395830956327	9734
2	6754	61.41825145365	9738
2	6760	61.468130628511	9745
2	6765	61.498618373459	9750
2	6768	61.5	9750
2	6769	61.5	9750
2	6802	62	9791
2	6805	62.007175071751	9783
2	6806	62.014330341096	9775
2	6809	62.021491466416	9767
2	6812	62.028658457304	9759
2	6815	62.035831323376	9752
2	6818	62.043009338142	9744
2	6821	62.050193246188	9736
2	6824	62.057383057199	9728
2	6827	62.064578780883	9720
2	6830	62.071780426974	9713
2	6833	62.078987263173	9705
2	6836	62.086200040092	9697
2	6841	62.093418767533	9689
2	6844	62.100643455323	9681
2	6851	62.130029832041	9649
2	6856	62.137353949344	9641
2	6862	62.204816946663	9568
2	6867	62.237210504546	9533
2	6872	62.283801534372	9482
2	6877	62.310271107572	9454
2	6882	62.354279437205	9406
2	6887	62.379744822392	9378
2	6892	62.421891729957	9332
2	6897	62.5	9248
2	6963	63	9011
2	6994	63.5	8961
2	7025	64	8911
2	7048	64.5	8861
2	7193	65	8812
2	7233	65.5	8762
2	7335	66	8712
2	7346	66.5	8662
2	7383	67	8921
2	7409	67.5	8737
2	7538	68	8552
2	7574	68.5	8367
2	7590	69	8222
2	7646	69.5	8278
2	7670	70	8335
2	7694	70.5	8391
2	7812	71	8448
2	7868	71.5	8466
2	7882	72	8765
2	7914	72.5	9064
2	7938	73	9316
2	7962	73.5	9464
2	7998	74	9345
2	8157	74.5	9227
2	8186	75	9108
2	8212	75.5	8990
2	8235	76	8871
2	8371	76.5	8753
2	8431	77	8634
2	8474	77.5	8516
2	8512	78	9332
2	8537	78.5	9150
2	8568	79	8492
2	8724	79.5	8275
2	8770	80	8182
2	8798	80.5	8182
2	8823	81	8182
2	8845	81.5	8182
2	8874	82	8182
2	8904	82.5	8182
2	9098	83	8244
2	9121	83.5	8614
2	9149	84	8985
2	9176	84.5	9356
2	9311	85	9376
2	9349	85.5	9164
2	9401	86	9006
2	9450	86.5	9057
2	9489	87	9108
2	9509	87.5	9159
2	9638	88	9210
2	9683	88.5	9261
2	9715	89	9312
2	9753	89.5	9364
2	9777	90	9415
2	9813	90.5	9466
2	9841	91	9517
2	10059	91.5	9568
2	10079	92	9619
2	10135	92.5	9662
2	10189	93	9688
2	10192	93.204456838211	9699
2	10198	93.293541497948	9703
2	10201	93.300755761578	9704
2	10208	93.315074450954	9704
2	10213	93.412424680562	9709
2	10218	93.441420883432	9711
2	10222	93.5	9714
2	10225	93.548299947023	9716
2	10230	93.587535282427	9718
2	10235	93.594738410643	9719
2	10238	93.60194079772	9719
2	10247	93.655851097708	9722
2	10252	93.687594358373	9724
2	10255	93.694793042042	9724
2	10262	93.715452605133	9725
2	10267	93.738268147903	9726
2	10270	93.745465351275	9727
2	10277	93.845986182899	9732
2	10282	93.917558210242	9736
2	10286	94	9740
2	10289	94.025533788575	9741
2	10294	94.076474560986	9744
2	10300	94.258331831962	9753
2	10305	94.298582051728	9755
2	10310	94.32915122085	9757
2	10316	94.341996976135	9758
2	10321	94.3585393292	9759
2	10326	94.398031653836	9761
2	10331	94.433553389622	9762
2	10336	94.489021926485	9765
2	10340	94.5	9766
2	10343	94.517428208166	9767
2	10349	94.562302667062	9769
2	10355	94.616914847549	9772
2	10360	94.627662256508	9773
2	10366	94.765521120566	9780
2	10371	94.795675781801	9781
2	10376	94.825447980783	9783
2	10381	94.850158778771	9784
2	10387	94.956291080968	9789
2	10392	94.992785424877	9784
2	10397	95	9783
2	10421	95.5	9713
2	10422	95.5	9713
2	10447	96	9643
2	10448	96	9643
2	10476	96.5	9573
2	10477	96.5	9573
2	10502	97	9503
2	10503	97	9503
2	10536	97.5	9433
2	10537	97.5	9433
2	10560	98	9363
2	10588	98.5	9293
2	10617	99	9223
2	10636	99.5	9032
2	10868	100	8768
2	11006	100.5	8920
2	11083	101	9071
2	11145	101.5	9223
2	11192	102	9375
2	11246	102.5	9527
2	11280	103	9679
2	11283	103.076380723265	9702
2	11288	103.111889361468	9713
2	11293	103.130760948065	9719
2	11298	103.164520931548	9729
2	11302	103.171715915616	9731
2	11312	103.32006534522	9697
2	11315	103.327284072661	9692
2	11322	103.343605662628	9680
2	11327	103.5	9569
2	11350	104	9214
2	11452	104.5	8858
2	11523	105	8503
2	11548	105.5	8529
2	11655	106	8923
2	11665	106.5	9318
2	11691	107	9712
2	11717	107.5	9878
2	11718	107.5	9878
2	11741	108	9784
2	11742	108	9784
2	11780	108.5	9691
2	11959	109	9597
2	11976	109.5	9504
2	12018	110	9345
2	12035	110.5	9134
2	12144	111	8922
2	12206	111.5	8711
2	12250	112	8499
2	12267	112.5	8496
2	12286	113	8704
2	12307	113.5	8912
2	12394	114	9120
2	12479	114.5	9329
2	12493	115	9537
2	12518	115.5	9745
2	12549	116	9767
2	12580	116.5	9691
2	12600	117	9616
2	12788	117.5	9540
2	12802	118	9464
2	12833	118.5	9389
2	12856	119	9313
2	12955	119.5	9244
2	13035	120	9195
2	13093	120.5	9145
2	13136	121	9096
2	13167	121.5	9047
2	13185	122	8997
2	13304	122.5	8948
2	13346	123	8898
2	13379	123.5	8849
2	13415	124	8800
2	13579	124.5	8750
2	13599	125	8701
2	13616	125.5	8652
2	13721	126	8602
2	13736	126.5	8632
2	13756	127	8671
2	13786	127.5	8711
2	13894	128	8750
2	13928	128.5	8790
2	13958	129	8829
2	14094	129.5	8869
2	14128	130	8908
2	14146	130.5	8948
2	14257	131	8988
2	14301	131.5	9027
2	14318	132	9248
2	14345	132.5	9664
2	14448	133	9631
2	14468	133.5	9309
2	14501	134	8988
2	14604	134.5	8666
2	14629	135	8345
2	14665	135.5	8422
2	14689	136	8549
2	14840	136.5	8675
2	14879	137	8802
2	14899	137.5	8928
2	15017	138	9015
2	15049	138.5	8974
2	15073	139	8933
2	15204	139.5	8892
2	15272	140	8851
2	15302	140.5	8810
2	15322	141	8769
2	15426	141.5	8728
2	15442	142	8688
2	15477	142.5	9104
2	15579	143	9218
2	15596	143.5	9332
2	15620	144	9446
2	15726	144.5	9560
2	15797	145	9674
2	15812	145.5	9788
2	15813	145.5	9788
2	15823	146	9902
2	15824	146.00715673244	9904
2	15825	146.014224583813	9906
2	15828	146.021291008202	9907
2	15833	146.028356719315	9909
2	15840	146.035421004308	9911
2	15843	146.042483863757	9912
2	15846	146.04954601065	9914
2	15849	146.056606732861	9915
2	15852	146.063666742947	9917
2	15855	146.070725329213	9919
2	15860	146.077782492233	9920
2	15863	146.084838943846	9922
2	15866	146.091893973074	9923
2	15875	146.204781091847	9863
2	15882	146.319191550965	9712
2	15887	146.377001145505	9636
2	15892	146.442961540092	9549
2	15897	146.454512898131	9534
2	15904	146.5	9474
2	15938	147	8893
2	16022	147.5	8847
2	16072	148	8801
2	16094	148.5	8755
2	16121	149	8709
2	16143	149.5	8663
2	16262	150	8617
2	16290	150.5	8571
2	16337	151	8535
2	16355	151.5	8579
2	16377	152	8622
2	16390	152.5	8666
2	16580	153	8709
2	16645	153.5	8753
2	16683	154	8796
2	16794	154.5	8840
2	16856	155	8883
2	16924	155.5	8927
2	16974	156	8970
2	17058	156.5	9121
2	17075	157	9515
2	17097	157.5	9909
2	17124	158	9266
2	17125	158	9266
2	17142	158.5	8433
2	17167	159	8216
2	17195	159.5	8207
2	17216	160	8197
2	17426	160.5	8187
2	17451	161	8178
2	17536	161.5	8168
2	17599	162	8158
2	17665	162.5	8149
2	17705	163	8139
2	17769	163.5	8130
2	17813	164	8120
2	17837	164.5	8110
2	17942	165	8101
2	17963	165.5	8091
2	17987	166	8081
2	18003	166.5	8072
2	18123	167	8208
2	18148	167.5	8455
2	18164	168	8702
2	18187	168.5	8937
2	18214	169	9128
2	18366	169.5	9319
2	18418	170	9510
2	18458	170.5	9249
2	18473	171	8890
2	18484	171.5	8711
2	18558	172	8658
2	18588	172.5	8605
2	18620	173	8552
2	18648	173.5	8498
2	18758	174	8445
2	18791	174.5	8815
2	18822	175	9297
2	18938	175.5	9401
2	18960	176	9505
2	18984	176.5	9610
2	19016	177	9714
2	19136	177.5	9672
2	19160	178	9105
2	19181	178.5	8537
2	19274	179	8763
2	19295	179.5	8995
2	19307	180	9227
2	19401	180.5	9459
2	19445	181	9691
2	19467	181.5	9923
2	19495	182	9809
2	19496	182.007816862088	9806
2	19497	182.014955348729	9803
2	19500	182.022096019952	9800
2	19503	182.029238877095	9797
2	19506	182.036383921496	9794
2	19509	182.043531154496	9791
2	19512	182.050680577435	9789
2	19515	182.05783146108	9786
2	19518	182.064984536903	9783
2	19521	182.072139806248	9780
2	19524	182.079297270461	9777
2	19527	182.086456930889	9774
2	19532	182.09361878888	9771
2	19535	182.100782845783	9768
2	19540	182.107949102949	9765
2	19543	182.11511756173	9762
2	19546	182.12228822348	9759
2	19549	182.129461089552	9757
2	19552	182.136635425926	9754
2	19555	182.143811968883	9751
2	19562	182.152324406362	9747
2	19567	182.220111863946	9720
2	19572	182.343808634406	9669
2	19577	182.368914060266	9659
2	19580	182.376161187298	9656
2	19587	182.5	9606
2	19607	183	9403
2	19615	183.5	9199
2	19680	184	8996
2	19707	184.5	8793
2	19745	185	8872
2	19773	185.5	8966
2	19943	186	9059
2	19951	186.5	9152
2	19985	187	9246
2	20099	187.5	9339
2	20126	188	9901
2	20152	188.5	9810
2	20246	189	9718
2	20297	189.5	9627
2	20315	190	9535
2	20338	190.5	9444
[...]
22	21535	200.680089267361	3.0069326683112
22	21819	203.687021935672	3.1958600061168
22	22226	206.882881941789	0.865440964634
22	22360	207.748322906423	1.3759696144052
22	22438	209.124292520828	4.3810907394723
22	23025	213.5053832603	0.0088407459765674
22	23027	213.514224006277	1.5858637187973
22	23222	215.100087725074	3.3734723359175
22	23445	218.473560060992	2.8896115304326
22	23868	221.363171591425	4.5392924653665
22	24365	225.902464056791	1.3173109928351
22	24528	227.219775049626	0.16205155820086
22	24532	227.381826607827	1.7178596210406
22	24692	229.099686228868	2.8124836215792
22	24852	231.912169850447	4.0987414250008
22	25596	236.010911275448	1.1458360743879
22	25726	237.156747349836	0.77110405060596
22	25836	237.927851400442	2.8154623155687
22	25993	240.743313716011	0.96562423432785
22	26038	241.708937950339	1.4783035081389
22	26345	243.187241458478	0.49378266184658
22	26386	243.681024120325	1.2855969718425
22	26483	244.966621092168	0.44748596098623
22	26529	245.414107053154	1.174345233601
22	26664	246.588452286755	0.16929017285204
22	26673	246.757742459607	3.9233124887218
22	26941	250.681054948329	2.3859350834184
22	27319	253.066990031747	1.0765551250708
22	27473	254.143545156818	0.12853366081483
22	27505	254.272078817633	0.73448975218962
22	27586	255.006568569823	1.8936711088003
22	27794	256.900239678623	1.6153158142046
22	27906	258.515555492828	2.0576702452362
22	28119	260.573225738064	0.86233885277621
22	28160	261.43556459084	2.2778388959867
22	28569	263.713403486827	1.423706680745
22	28780	265.137110167572	0.23681267825064
22	28797	265.373922845823	1.8319441371688
22	28951	267.205866982992	0.86729482360581
22	29031	268.073161806598	0.0062579592017242
22	29032	268.0794197658	0.1169789060448
22	29036	268.196398671845	1.8814805631123
22	29156	270.077879234957	1.7776210401884
22	29358	271.855500275145	7.6273409451223
22	30240	279.482841220267	2.1564316497552
22	30449	281.639272870022	4.291551723054
22	30824	285.930824593076	10.012674190544
22	31962	295.94349878362	1.9589827579862
22	32127	297.902481541606	0.27172190705532
22	32144	298.174203448661	3.0677881584821
22	32481	301.241991607143	2.8670097063712
22	32776	304.109001313514	0.045975779118857
22	32783	304.154977092633	0.071786679212635
22	32790	304.226763771846	0.28365391292841
22	32808	304.510417684774	0.33807031299117
22	32828	304.848487997765	3.0721782970408
22	33185	307.920666294806	1.4288106114853
22	33399	309.349476906291	1.7814126114053
22	33533	311.130889517696	0.33950970889639
22	33544	311.470399226592	3.7524646916748
22	33978	315.222863918267	0.56713269066933
22	34103	315.789996608936	4.0471334576741
22	34550	319.83713006661	2.1424199851171
22	34781	321.979550051727	1.6499825509666
22	34896	323.629532602694	0.082379300611458
22	34901	323.711911903305	4.7321784478327
22	35552	328.444090351138	0.16228214598454
22	35577	328.606372497123	0.92319334280201
22	35701	329.529565839925	2.9614810178723
22	35967	332.491046857797	1.3435089636103
22	36025	333.834555821407	1.8915134493666
22	36326	335.726069270774	0.48978889722034
22	36387	336.215858167994	1.4741396808593
22	36589	337.689997848853	0.28765136454887
22	36631	337.977649213402	0.17118178744479
22	36639	338.148831000847	0.36602450088769
22	36660	338.514855501735	0.18482429724849
22	36668	338.699679798983	0.94028598774192
22	36788	339.639965786725	2.6856071254777
22	37043	342.325572912203	1.9318378504216
22	37340	344.257410762625	1.1659520760713
22	37464	345.423362838696	3.6709042171439
22	37888	349.09426705584	0.14633615629931
22	37892	349.240603212139	1.252199604842
22	37944	350.492802816981	1.2082050269921
22	38116	351.701007843973	0.47224934768382
22	38154	352.173257191657	0.030828946394349
22	38155	352.204086138051	11.36556937863
22	39364	363.569655516681	0.78771712356925
22	39514	364.35737264025	0.94412473601982
22	39580	365.30149737627	1.102583279481
22	39686	366.404080655751	8.4257218894066
22	40578	374.829802545158	0.019044217173143
22	40581	374.848846762331	3.225707845107
22	40857	378.074554607438	3.5873579326597
22	41315	381.661912540098	3.4909995825397
22	41710	385.152912122638	1.7170524753712
22	41809	386.869964598009	0.083531111980102
22	41812	386.953495709989	1.533124773011
22	41996	388.486620483	1.4550713855701
22	42160	389.94169186857	2.3516030280319
22	42330	392.293294896602	0.6058564498896
22	42447	392.899151346492	1.2241131222104
22	42513	394.123264468702	0.58425388621804
22	42549	394.70751835492	5.1705697499786
22	43195	399.878088104899	0.4349285881622
23	1474	14.88013127667	4.7205665301002
23	2200	19.60069780677	1.3852380602389
23	2344	20.985935867009	2.1693164908975
23	2606	23.155252357907	3.0578613548274
23	2787	26.213113712734	2.4518612410032
23	3242	28.664974953737	0.70916812221065
23	3333	29.374143075948	1.3608745928875
23	3493	30.735017668835	1.8534889848885
23	3659	32.588506653724	1.6523671528583
23	3732	34.240873806582	2.0178973773228
23	3993	36.258771183905	5.9961795454856
23	4613	42.254950729391	0.3553210300884
23	4682	42.610271759479	0.0014883428637058
23	4686	42.611760102343	0.32733841633871
23	4799	42.939098518682	9.0086486810069
23	5788	51.947747199689	0.10775257470661
23	5803	52.055499774396	0.71064527487448
23	5834	52.76614504927	3.7539359961844
23	6256	56.520081045454	2.6947424314664
23	6514	59.21482347692	1.2933820089373
23	6613	60.508205485857	0.86322369617272
23	6742	61.37142918203	1.9935337913247
23	6983	63.364962973355	6.0200243947272
23	7639	69.384987368082	4.3182959907546
23	7979	73.703283358837	2.9866079204565
23	8403	76.689891279294	0.7521926278423
23	8462	77.442083907136	0.53862385276211
23	8505	77.980707759898	0.60229380752291
23	8545	78.583001567421	0.64314656439402
23	8677	79.226148131815	1.4696331933983
23	8810	80.695781325213	2.6601253837878
23	9113	83.355906709001	4.9295399335186
23	9658	88.28544664252	0.83752411666243
23	9734	89.122970759182	0.63869119807147
23	9771	89.761661957253	2.8693551648363
23	10143	92.631017122089	2.0415738081163
23	10364	94.672590930205	2.6166110448452
23	10523	97.28920197505	7.8384397917293
23	11530	105.127641766779	0.81806324776956
23	11643	105.945705014549	10.736183484853
23	12584	116.681888499402	0.46518370830199
23	12663	117.147072207704	0.32049729765498
23	12786	117.467569505359	0.71024177675763
23	12814	118.177811282117	1.4030268211233
23	12972	119.58083810324	0.78509937267409
23	13075	120.365937475914	0.79022937215771
23	13138	121.156166848072	0.65621763620319
23	13180	121.812384484275	0.25539023842861
23	13214	122.067774722704	0.2420303609168
23	13278	122.309805083621	3.1545926815721
23	13614	125.464397765193	0.7365211161052
23	13727	126.200918881298	1.0419462417839
23	13778	127.242865123082	0.90267998864797
23	13903	128.14554511173	0.31920115191945
23	13926	128.464746263649	0.74149687056763
23	14054	129.206243134217	4.1901458466652
23	14466	133.396388980882	3.8446988907367
23	14891	137.241087871619	1.3195121867763
23	15057	138.560600058395	0.05633823156808
23	15058	138.616938289963	1.5380451690978
23	15285	140.154983459061	2.5885176978192
23	15555	142.74350115688	0.80820855434941
23	15604	143.551709711229	2.5720577418716
23	15872	146.123767453101	0.16859832024581
23	15880	146.292365773347	0.39230916052229
23	15917	146.684674933869	2.3694549381296
23	16131	149.054129871999	0.30780629166776
23	16141	149.361936163667	0.25467536436928
23	16192	149.616611528036	5.6038102626051
23	16889	155.220421790641	4.7181749474531
23	17207	159.938596738094	0.429108376749
23	17397	160.367705114843	1.3775399576318
23	17575	161.745245072475	1.0474788884704
23	17687	162.792723960945	1.7607767129682
23	17869	164.553500673913	9.2337363223021
23	18733	173.787236996215	0.63169173277892
23	18778	174.418928728994	0.052705726829951
23	18785	174.471634455824	3.3832613057954
23	19152	177.854895761619	3.2727891059794
23	19454	181.127684867598	1.9467947045252
23	19612	183.074479572123	1.1833827958248
23	19701	184.257862367948	0.38364823549929
23	19721	184.641510603447	0.69915621212556
23	19759	185.340666815573	0.036728641994197
23	19762	185.377395457567	1.6975777377591
23	20020	187.074973195326	0.78164435747619
23	20115	187.856617552802	3.4834207892597
23	20486	191.340038342062	1.2945917793557
23	20681	192.634630121418	5.8097393355623
23	21256	198.44436945698	0.88685932252931
23	21409	199.331228779509	11.688337911536
23	22725	211.019566691045	2.1517501220047
23	22967	213.17131681305	2.9446427321463
23	23308	216.115959545196	2.1496530142664
23	23433	218.265612559462	1.2622330539981
23	23513	219.52784561346	0.73252861502073
23	23723	220.260374228481	0.28192260676349
23	23741	220.542296835244	0.4338961683959
23	23758	220.97619300364	0.16342774753874
23	23821	221.139620751179	2.175209862811
23	24094	223.31483061399	1.3165896119398
23	24218	224.63142022593	0.017549253988623
23	24225	224.648969479919	1.092896162852
23	24358	225.741865642771	1.836050144065
23	24575	227.577915786836	3.4768092201653
23	24796	231.054725007001	4.8970568417189
23	25588	235.95178184872	4.9422088001257
23	25994	240.893990648846	3.0730426592648
23	26406	243.967033308111	0.76095255383162
23	26455	244.727985861943	0.076622186909967
23	26461	244.804608048853	1.5744880571048
23	26640	246.379096105958	0.8672569576853
23	26748	247.246353063643	2.6188967587305
23	26894	249.865249822373	0.86804122420774
23	26948	250.733291046581	2.8602320720236
23	27422	253.593523118605	6.609638847126
23	28093	260.203161965731	0.88936763923681
23	28144	261.092529604968	1.6703080933953
23	28419	262.762837698363	2.2358843275215
23	28761	264.998722025885	1.265678751236
23	28836	266.264400777121	2.3569655647722
23	29061	268.621366341893	4.792791733206
23	29557	273.414158075099	1.0708560640899
23	29627	274.485014139189	0.41749516272376
23	29645	274.902509301913	0.97087343728177
23	29753	275.873382739195	2.3120853465441
23	29920	278.185468085739	4.1569492741479
23	30526	282.342417359887	1.623068676485
23	30716	283.965486036372	3.2528014486919
23	30890	287.218287485064	1.6389077278318
23	31243	288.857195212896	2.1519212950615
23	31527	291.009116507958	5.5504854732819
23	31996	296.55960198124	2.5587919124516
23	32269	299.118393893692	0.7546157513653
23	32306	299.873009645057	0.54629135387515
23	32410	300.419300998932	2.3051473234542
23	32683	302.724448322386	2.4983604823875
23	32845	305.222808804774	1.6816102851071
23	33063	306.904419089881	1.7407737376489
23	33287	308.64519282753	0.21239623899589
23	33328	308.857589066526	0.14021478673399
23	33346	308.99780385326	2.113011223904
23	33532	311.110815077164	2.7216951754684
23	33861	313.832510252632	0.047249192801016
23	33868	313.879759445433	0.063849618029183
23	33874	313.943609063462	0.014568829016278
23	33877	313.958177892478	2.1194868052014
23	34156	316.077664697679	0.095317279425009
23	34164	316.172981977104	2.6327194368239
23	34424	318.805701413928	3.1410431789424
23	34777	321.94674459287	0.61120431502505
23	34829	322.557948907895	2.3491683825009
23	35165	324.907117290396	2.5361239932865
23	35490	327.443241283683	1.4491452028252
23	35631	328.892386486508	1.1203353644739
23	35736	330.012721850982	1.169714515498
23	35902	331.18243636648	6.6820628886334
23	36610	337.864499255113	0.2662115151537
23	36638	338.130710770267	0.39842728775679
23	36661	338.529138058024	0.80058118259344
23	36770	339.329719240617	2.7330948212813
23	37028	342.062814061898	0.19093381081762
23	37038	342.253747872716	0.64498982929234
23	37193	342.898737702008	1.4553344644998
23	37353	344.354072166508	1.1827216959398
23	37482	345.536793862448	1.9839211981972
23	37640	347.520715060645	1.7159302254059
23	37891	349.236645286051	1.7952115223918
23	38063	351.031856808443	7.4364120540516
23	38758	358.468268862495	0.74073119517851
23	38879	359.209000057674	3.9210616754892
23	39342	363.130061733163	1.7976479454005
23	39549	364.927709678564	0.78786397135886
23	39634	365.715573649923	0.13028055138465
23	39640	365.845854201308	8.4434489757577
23	40538	374.289303177066	0.15380104322515
23	40554	374.443104220291	1.2587219862665
23	40660	375.701826206558	1.7718838222605
23	40817	377.473710028818	0.23558095739537
23	40830	377.709290986213	3.4823330663764
23	41257	381.191624052589	7.9973036712071
23	42037	389.188927723796	8.4413992001134
23	42839	397.630326923909	5.0113513758688
24	1904	17.359049821192	0.48495296000732
24	1973	17.844002781199	1.5363635526454
24	2151	19.380366333844	5.7406037324418
24	2726	25.120970066286	1.3686644943602
24	2800	26.489634560646	0.066215589068304
24	2808	26.555850149714	1.4290777036021
24	3162	27.984927853316	5.3137032692466
24	3679	33.298631122563	5.084563121007
24	4286	38.38319424357	2.266207098395
24	4536	40.649401341965	2.3768015800091
24	4817	43.026202921974	2.5411167801236
24	5095	45.567319702098	0.88979150384091
24	5172	46.457111205939	1.6640053657462
24	5311	48.121116571685	0.86901310854306
24	5446	48.990129680228	1.2369755401593
24	5511	50.227105220387	0.91637317817326
24	5690	51.14347839856	0.27056240276879
24	5718	51.414040801329	1.5104089575316
24	5842	52.924449758861	1.2535969798979
24	5970	54.178046738759	0.58303350961165
24	6005	54.761080248371	0.83522851780302
24	6060	55.596308766174	0.65948424134043
24	6207	56.255793007514	1.5178318760739
24	6375	57.773624883588	0.789041582213
24	6419	58.562666465801	0.63099340668003
24	6510	59.193659872481	0.96058390915019
24	6597	60.154243781631	2.3365594723421
24	6896	62.490803253973	7.4187122009247
24	7662	69.909515454898	2.6506817548476
24	7920	72.560197209746	6.093289092174
24	8551	78.65348630192	1.7039175474934
24	8780	80.357403849413	5.3207708612379
24	9368	85.678174710651	1.9860893763939
24	9578	87.664264087045	0.26393792154666
24	9620	87.928202008592	2.1739654679445
24	9789	90.102167476537	4.0299939307351
24	10298	94.132161407272	0.41723024621709
24	10347	94.549391653489	0.8838795299013
24	10416	95.43327118339	0.10918122340288
24	10426	95.542452406793	0.63644182995341
24	10463	96.178894236746	2.1667402110281
24	10576	98.345634447774	1.5723851933844
24	10828	99.918019641158	0.16104488997608
24	10908	100.079064531134	0.074087367995255
24	10944	100.153151899129	2.3107985285903
24	11240	102.463950427719	0.82076379869982
24	11310	103.284714226419	5.4056909935489
24	11925	108.690405219968	6.7458282512752
24	12512	115.436233471243	1.4635898639171
24	12595	116.89982333516	0.28524594719122
24	12679	117.185069282351	0.40774137255118
24	12790	117.592810654902	0.099602601754547
24	12793	117.692413256657	3.4050028666747
24	13137	121.097416123332	2.5275835588869
24	13391	123.624999682219	0.78669122568551
24	13551	124.411690907905	1.867026943644
24	13728	126.278717851549	1.6828324568338
24	13887	127.961550308383	1.057899637373
24	13963	129.019449945756	0.35574819623259
24	14086	129.375198141989	0.86884050645385
24	14136	130.244038648443	0.73810004832002
24	14256	130.982138696763	0.41872689175675
24	14284	131.40086558852	2.9819496916566
24	14587	134.382815280177	0.91970144987482
24	14654	135.302516730052	4.8323057093163
24	15282	140.134822439368	0.17558276841263
24	15292	140.310405207781	4.1448462662474
24	15711	144.455251474028	3.3025134733525
24	16034	147.75776494738	2.3842614133711
24	16278	150.142026360751	0.15479173118091
24	16285	150.296818091932	0.49599960406474
24	16320	150.792817695997	0.01991116361597
24	16325	150.812728859613	0.82060157201951
24	16361	151.633330431633	1.7476013171831
24	16623	153.380931748816	5.9475076327613
24	17186	159.328439381577	1.0814556135882
24	17406	160.409894995165	0.95588144951685
24	17515	161.365776444682	3.8533761877855
24	17953	165.219152632467	0.3083810958053
24	17967	165.527533728272	1.0930420634288
24	18069	166.620575791701	1.6767419724239
24	18179	168.297317764125	5.6730265233386
24	18756	173.970344287464	0.21839062445117
24	18768	174.188734911915	1.2158375429033
24	18930	175.404572454818	1.4115050049286
24	19005	176.816077459747	1.3138576845705
24	19166	178.129935144318	0.58573069499408
24	19256	178.715665839312	0.57044656933932
24	19284	179.286112408651	0.78924729258347
24	19338	180.075359701234	0.38601155855217
24	19399	180.461371259786	2.5644871596217
24	19611	183.025858419408	2.4207187546032
24	19767	185.446577174011	0.0023583069883165
24	19768	185.448935480999	3.7092265655977
24	20258	189.158162046597	0.51578919829285
24	20308	189.67395124489	0.046079842919547
24	20311	189.72003108781	10.086478224162
24	21433	199.806509311972	1.4336049424804
24	21575	201.240114254452	4.6098315403148
24	22128	205.849945794767	1.2750561009061
24	22246	207.125001895673	0.79466708625006
24	22366	207.919668981923	0.21794943574674
24	22379	208.13761841767	1.58797069269
24	22469	209.72558911036	4.37013796124
24	23083	214.0957270716	0.28900247232308
24	23104	214.384729543923	0.03215573765883
24	23107	214.416885281582	2.7750424084206
24	23369	217.191927690003	2.5784826428703
24	23623	219.770410332873	0.14641469370595
24	23684	219.916825026579	1.4612775658627
24	23869	221.378102592442	3.9243712390439
24	24274	225.302473831486	0.56308846652365
24	24363	225.86556229801	1.9354324240459
24	24593	227.800994722056	0.75646139929851
24	24664	228.557456121355	1.1239036458236
24	24725	229.681359767179	0.76498971859446
24	24762	230.446349485773	2.9600981963779
24	25104	233.406447682151	0.87708194211506
24	25354	234.283529624266	0.78188970943856
24	25482	235.065419333705	4.737503257715
24	25934	239.80292259142	2.6528939089862
24	26072	242.455816500406	0.4515867886669
24	26257	242.907403289073	0.18250088726241
24	26334	243.089904176335	1.8018195596062
24	26462	244.891723735941	0.53420113845106
24	26533	245.425924874392	2.6939045380829
24	26801	248.119829412475	6.1666641589675
24	27506	254.286493571442	0.14911740111207
24	27517	254.435610972554	0.67845964784894
24	27590	255.114070620403	0.60493488185149
24	27657	255.719005502254	3.3016938912774
24	28038	259.020699393531	2.4303929916612
24	28161	261.451092385192	2.2402150728455
24	28557	263.691307458037	3.8387852975518
24	29009	267.530092755589	2.4493989707828
24	29124	269.979491726372	6.9420480889098
24	29836	276.921539815282	5.1567139808297
24	30495	282.078253796112	0.015439941503999
24	30501	282.093693737616	2.9496353460076
24	30771	285.043329083624	1.8719393412558
24	30868	286.91526842488	1.4297270508755
24	31216	288.344995475756	8.2340010437389
24	31999	296.578996519495	5.2500088092516
24	32517	301.829005328747	0.11316195188929
24	32523	301.942167280636	1.2405856820005
24	32698	303.182752962637	3.7525638028276
24	33064	306.935316765465	6.4812426199941
24	33751	313.416559385459	2.2988396763969
24	34092	315.715399061856	0.11952930309154
24	34114	315.834928364948	4.6426936096955
24	34585	320.477621974644	0.172501069495
24	34656	320.650123044139	0.98192529911755
24	34764	321.632048343257	1.1396786378681
24	34842	322.771726981125	2.1566516752795
24	35168	324.928378656405	0.61734312873762
24	35221	325.545721785143	0.060641813587989
24	35248	325.606363598731	0.71371528588573
24	35376	326.320078884617	0.66080661641352
24	35448	326.980885501031	4.6464863231012
24	35925	331.627371824132	2.7313461543271
24	36190	334.358717978459	1.8984065971865
24	36398	336.257124575645	1.8339309913899
24	36637	338.091055567035	2.9468512976934
24	36967	341.037906864728	6.031345396616
24	37617	347.069252261344	1.0807006781682
24	37763	348.149952939512	1.2759113585873
24	37902	349.425864298099	0.087736730437679
24	37910	349.513601028537	3.7850088471806
24	38212	353.298609875718	0.31872373856944
24	38268	353.617333614287	11.802727022865
24	39604	365.420060637152	0.034132655262443
24	39606	365.454193292414	3.6314901786433
24	39913	369.085683471057	1.1963838221832
24	39987	370.28206729324	4.258004988011
24	40565	374.540072281251	0.87063250439203
24	40605	375.410704785643	1.911407829865
24	40808	377.322112615508	1.3317889603443
24	40883	378.653901575852	0.80562399722946
24	41098	379.459525573081	0.28515035926285
24	41112	379.744675932344	4.5971652190333
24	41608	384.341841151377	1.9581604633133
24	41768	386.30000161469	0.15331304452657
24	41777	386.453314659217	0.50489635069854
24	41813	386.958211009916	4.5835050634107
24	42292	391.541716073327	5.5349677914967
24	42801	397.076683864824	0.20140252275269
24	42813	397.278086387577	2.3122570540939
24	43139	399.590343441671	1.745028230347

