file 59929339 1609354150                                        
version 2
run Exponential-selection-capacity-exponential-interarrival-time-2-20201230-19:48:44-15356
attr configname Exponential-selection-capacity-exponential-interarrival-time
attr datetime 20201230-19:48:44
attr experiment Exponential-selection-capacity-exponential-interarrival-time
attr inifile aerocom.ini
attr iterationvars $0=2
attr iterationvarsf 2-
attr measurement $0=2
attr network Aerocom
attr processid 15356
attr repetition 0
attr replication #0
attr resultdir results
attr runnumber 2
attr seedset 0
param **.t 0.5s
param **.k 0.5s
param **.dataLink[*].s "70 byte"
param **.dataLink[*].X 2
param **.nDL 2
param **.dataLink[*].dimPoolMax 400
param **.dataLink[*].dimPoolMin 100
param **.tDistribution "\"exponential\""
param **.aircraft[*].m 1s
param **.aircraft[*].linkSelector.DLMaxCapacity 0
param **.aircraft[*].linkSelector.trasmitting false
param **.operationMode 0

vector 0 Aerocom.aircraft[0].dataLink[0] queueLength:vector ETV
attr "" ""
attr source computeQueueLength
vector 1 Aerocom.aircraft[0].dataLink[0] waitingTime:vector ETV
attr "" ""
attr source computeWaitingTime
vector 2 Aerocom.aircraft[0].dataLink[0] responseTime:vector ETV
attr "" ""
attr source computeResponseTime
vector 3 Aerocom.aircraft[1].dataLink[1] queueLength:vector ETV
attr "" ""
attr source computeQueueLength
vector 4 Aerocom.aircraft[1].dataLink[1] waitingTime:vector ETV
attr "" ""
attr source computeWaitingTime
vector 5 Aerocom.aircraft[1].dataLink[1] responseTime:vector ETV
attr "" ""
attr source computeResponseTime
vector 6 Aerocom.aircraft[0].dataLink[1] queueLength:vector ETV
attr "" ""
attr source computeQueueLength
vector 7 Aerocom.aircraft[0].dataLink[1] waitingTime:vector ETV
attr "" ""
attr source computeWaitingTime
vector 8 Aerocom.aircraft[0].dataLink[1] responseTime:vector ETV
attr "" ""
attr source computeResponseTime
vector 9 Aerocom.aircraft[1].dataLink[0] queueLength:vector ETV
attr "" ""
attr source computeQueueLength
vector 10 Aerocom.aircraft[1].dataLink[0] waitingTime:vector ETV
attr "" ""
attr source computeWaitingTime
vector 11 Aerocom.aircraft[1].dataLink[0] responseTime:vector ETV
attr "" ""
attr source computeResponseTime
0	2235 1028406 381494 1608955 10000.048728528288 42250.904281501442 32768 0 0 0 0
1	1030641 1163261 381494 1608955 10000.048728528288 42250.904281501442 32768 -6e-012 1.2e-011 1.2576e-008 1.4345199999999e-019
2	2193902 1163261 381494 1608955 10000.048728528288 42250.904281501442 32768 -6e-012 1.2e-011 1.2576e-008 1.4345199999999e-019
9	3357163 1028648 381696 1622169 10006.129181815925 42595.878110934668 32768 0 0 0 0
10	4385811 1196603 381696 1622169 10006.129181815925 42595.878110934668 32768 -6e-012 1.2e-011 1.2978e-008 1.4404799999999e-019
11	5582414 1196603 381696 1622169 10006.129181815925 42595.878110934668 32768 -6e-012 1.2e-011 1.2978e-008 1.4404799999999e-019
3	6779017 1028833 381517 1631266 10001.028375762902 42836.463329137784 32768 0 0 0 0
4	7807850 1164489 381517 1631266 10001.028375762902 42836.463329137784 32768 -6e-012 1.2e-011 1.285e-008 1.4429799999999e-019
5	8972339 1164489 381517 1631266 10001.028375762902 42836.463329137784 32768 -6e-012 1.2e-011 1.285e-008 1.4429799999999e-019
6	10136828 1028814 381652 1641297 10004.869079047996 43111.849059305489 32768 0 0 0 0
7	11165642 1163702 381652 1641297 10004.869079047996 43111.849059305489 32768 -6e-012 1.2e-011 1.3328e-008 1.4648599999999e-019
8	12329344 1163702 381652 1641297 10004.869079047996 43111.849059305489 32768 -6e-012 1.2e-011 1.3328e-008 1.4648599999999e-019
9	13493046 1044896 1622188 2854304 42596.442996668787 75123.385366439247 32768 0 0 0 0
10	14537942 1241005 1622188 2854304 42596.442996668787 75123.385366439247 32768 -1.2e-011 2.4e-011 3.2008e-008 6.1269199999998e-019
11	15778947 1241005 1622188 2854304 42596.442996668787 75123.385366439247 32768 -1.2e-011 2.4e-011 3.2008e-008 6.1269199999998e-019
0	17019952 1045029 1609009 2857813 42252.198295593361 75214.222514012752 32768 0 0 0 0
1	18064981 1207991 1609009 2857813 42252.198295593361 75214.222514012752 32768 -1.2e-011 2.4e-011 2.9528e-008 6.0621599999999e-019
2	19272972 1207991 1609009 2857813 42252.198295593361 75214.222514012752 32768 -1.2e-011 2.4e-011 2.9528e-008 6.0621599999999e-019
3	20480963 1044913 1631395 2892678 42840.713704805987 76122.204316869833 32768 0 0 0 0
4	21525876 1208146 1631395 2892678 42840.713704805987 76122.204316869833 32768 -1.2e-011 2.4e-011 3.1445e-008 6.4437099999999e-019
5	22734022 1208146 1631395 2892678 42840.713704805987 76122.204316869833 32768 -1.2e-011 2.4e-011 3.1445e-008 6.4437099999999e-019
6	23942168 1044971 1641302 2894500 43111.876615590304 76174.298905413631 32768 0 0 0 0
7	24987139 1208317 1641302 2894500 43111.876615590304 76174.298905413631 32768 -1.2e-011 2.4e-011 3.0822e-008 6.3400999999999e-019
8	26195456 1208317 1641302 2894500 43111.876615590304 76174.298905413631 32768 -1.2e-011 2.4e-011 3.0822e-008 6.3400999999999e-019
9	27403773 1052699 2854420 4093846 75126.153626594411 107743.085780361289 32768 0 0 0 0
10	28456472 1258048 2854420 4093846 75126.153626594411 107743.085780361289 32768 -8e-012 2.4e-011 4.2765e-008 1.366045e-018
11	29714520 1258048 2854420 4093846 75126.153626594411 107743.085780361289 32768 -8e-012 2.4e-011 4.2765e-008 1.366045e-018
0	30972568 1052984 2857821 4097706 75214.448217501353 107843.014852935254 32768 0 0 0 0
1	32025552 1225114 2857821 4097706 75214.448217501353 107843.014852935254 32768 -8e-012 2.4e-011 4.1879e-008 1.377273e-018
2	33250666 1225114 2857821 4097706 75214.448217501353 107843.014852935254 32768 -8e-012 2.4e-011 4.1879e-008 1.377273e-018
3	34475780 1053896 2892883 4146693 76128.080788291738 109124.422526066235 32768 0 0 0 0
4	35529676 1226594 2892883 4146693 76128.080788291738 109124.422526066235 32768 -8e-012 2.4e-011 4.1522e-008 1.36693e-018
5	36756270 1226594 2892883 4146693 76128.080788291738 109124.422526066235 32768 -8e-012 2.4e-011 4.1522e-008 1.36693e-018
6	37982864 1054023 2894505 4153898 76174.34638350659 109312.56924530172 32768 0 0 0 0
7	39036887 1226561 2894505 4153898 76174.34638350659 109312.56924530172 32768 -8e-012 2.4e-011 4.0779e-008 1.358795e-018
8	40263448 1226561 2894505 4153898 76174.34638350659 109312.56924530172 32768 -8e-012 2.4e-011 4.0779e-008 1.358795e-018
9	41490009 1077748 4093911 5345061 107745.056675526585 140562.126330597441 32768 0 0 0 0
10	42567757 1290689 4093911 5345061 107745.056675526585 140562.126330597441 32768 -2.4e-011 2.4e-011 7.0720999999999e-008 2.4767689999999e-018
11	43858446 1290689 4093911 5345061 107745.056675526585 140562.126330597441 32768 -2.4e-011 2.4e-011 7.0720999999999e-008 2.4767689999999e-018
0	45149135 1077724 4097711 5347097 107843.104223337489 140614.133174962216 32768 0 0 0 0
1	46226859 1257948 4097711 5347097 107843.104223337489 140614.133174962216 32768 -2.4e-011 2.4e-011 7.4188999999999e-008 2.5129109999999e-018
2	47484807 1257948 4097711 5347097 107843.104223337489 140614.133174962216 32768 -2.4e-011 2.4e-011 7.4188999999999e-008 2.5129109999999e-018
3	48742755 1077793 4146709 5369685 109124.997845367277 141194.668104734543 32768 0 0 0 0
4	49820548 1257931 4146709 5369685 109124.997845367277 141194.668104734543 32768 -2.4e-011 2.4e-011 7.1375999999999e-008 2.5460819999999e-018
5	51078479 1257931 4146709 5369685 109124.997845367277 141194.668104734543 32768 -2.4e-011 2.4e-011 7.1375999999999e-008 2.5460819999999e-018
6	52336410 1077707 4153903 5392523 109312.573224700207 141796.433489780622 32768 0 0 0 0
7	53414117 1258763 4153903 5392523 109312.573224700207 141796.433489780622 32768 -2.4e-011 2.4e-011 7.2466999999999e-008 2.5957369999998e-018
8	54672880 1258763 4153903 5392523 109312.573224700207 141796.433489780622 32768 -2.4e-011 2.4e-011 7.2466999999999e-008 2.5957369999998e-018
0	55931643 310805 5347102 5704860 140614.256324525717 149999.530606812477 9450 0 0 0 0
1	56242448 367751 5347102 5704860 140614.256324525717 149999.530606812477 9450 -2.4e-011 4.8e-011 2.0667e-008 1.320333e-018
2	56610199 367751 5347102 5704860 140614.256324525717 149999.530606812477 9450 -2.4e-011 4.8e-011 2.0667e-008 1.320333e-018
3	56977950 287948 5369690 5704868 141194.768049962217 149999.848048383033 8757 0 0 0 0
4	57265898 340566 5369690 5704868 141194.768049962217 149999.848048383033 8757 -2.4e-011 4.8e-011 1.8553e-008 1.190401e-018
5	57606464 340566 5369690 5704868 141194.768049962217 149999.848048383033 8757 -2.4e-011 4.8e-011 1.8553e-008 1.190401e-018
6	57947030 264975 5392543 5704728 141797.402836317288 149995.291061905977 8057 0 0 0 0
7	58212005 313701 5392543 5704728 141797.402836317288 149995.291061905977 8057 -2.4e-011 4.8e-011 1.8977e-008 1.164543e-018
8	58525706 313701 5392543 5704728 141797.402836317288 149995.291061905977 8057 -2.4e-011 4.8e-011 1.8977e-008 1.164543e-018
9	58839407 317954 5345074 5704751 140562.48675526791 149996.009266809802 9668 0 0 0 0
10	59157361 385988 5345074 5704751 140562.48675526791 149996.009266809802 9668 -2.4e-011 4.8e-011 2.1557e-008 1.343481e-018
11	59543349 385988 5345074 5704751 140562.48675526791 149996.009266809802 9668 -2.4e-011 4.8e-011 2.1557e-008 1.343481e-018

