version 2
run Exponential-capacity-18-20210216-13:45:50-20560
attr configname Exponential-capacity
attr datetime 20210216-13:45:50
attr experiment Exponential-capacity
attr inifile aerocom.ini
attr iterationvars "$0=0.5, $1=50, $2=4, $3=0.5"
attr iterationvarsf 0.5,50,4,0.5-
attr measurement "$0=0.5, $1=50, $2=4, $3=0.5"
attr network Aerocom
attr processid 20560
attr repetition 0
attr replication #0
attr resultdir results
attr runnumber 18
attr seedset 0
param **.t 0.5s
param **.k 50ms
param **.X 4s
param **.m 0.5s
param **.tDistribution "\"exponential\""
param **.operationMode 0
param **.s "70 byte"
param **.dimPoolMax 10000
param **.dimPoolMin 8000
param **.nDL 10
param **.nA 1
param **.DLMaxCapacity 0
param **.trasmitting false

vector 0 Aerocom.aircraft[0].dataLink[0] actualCapacity:vector ETV
attr "" ""
attr source computeActualCapacity
vector 1 Aerocom.aircraft[0].dataLink[1] actualCapacity:vector ETV
attr "" ""
attr source computeActualCapacity
vector 2 Aerocom.aircraft[0].dataLink[2] actualCapacity:vector ETV
attr "" ""
attr source computeActualCapacity
vector 3 Aerocom.aircraft[0].dataLink[3] actualCapacity:vector ETV
attr "" ""
attr source computeActualCapacity
vector 4 Aerocom.aircraft[0].dataLink[4] actualCapacity:vector ETV
attr "" ""
attr source computeActualCapacity
vector 5 Aerocom.aircraft[0].dataLink[5] actualCapacity:vector ETV
attr "" ""
attr source computeActualCapacity
vector 6 Aerocom.aircraft[0].dataLink[6] actualCapacity:vector ETV
attr "" ""
attr source computeActualCapacity
vector 7 Aerocom.aircraft[0].dataLink[7] actualCapacity:vector ETV
attr "" ""
attr source computeActualCapacity
vector 8 Aerocom.aircraft[0].dataLink[8] actualCapacity:vector ETV
attr "" ""
attr source computeActualCapacity
vector 9 Aerocom.aircraft[0].dataLink[9] actualCapacity:vector ETV
attr "" ""
attr source computeActualCapacity
vector 10 Aerocom.aircraft[0].packetGenerator arrivalTime:vector ETV
attr "" ""
attr source computeArrivalTime
vector 11 Aerocom.aircraft[0].linkSelector waitingTime:vector ETV
attr "" ""
attr source computeWaitingTime
vector 12 Aerocom.aircraft[0].linkSelector queueLength:vector ETV
attr "" ""
attr source computeQueueLength
vector 13 Aerocom.aircraft[0].linkSelector serviceTime:vector ETV
attr "" ""
attr source computeServiceTime
vector 14 Aerocom.aircraft[0].linkSelector responseTime:vector ETV
attr "" ""
attr source computeResponseTime
vector 15 Aerocom.aircraft[0].dataLink[0] tDistribution:vector ETV
attr "" ""
attr source computeTDistribution
vector 16 Aerocom.aircraft[0].dataLink[3] tDistribution:vector ETV
attr "" ""
attr source computeTDistribution
vector 17 Aerocom.aircraft[0].dataLink[7] tDistribution:vector ETV
attr "" ""
attr source computeTDistribution
vector 18 Aerocom.aircraft[0].dataLink[2] tDistribution:vector ETV
attr "" ""
attr source computeTDistribution
vector 19 Aerocom.aircraft[0].dataLink[9] tDistribution:vector ETV
attr "" ""
attr source computeTDistribution
vector 20 Aerocom.aircraft[0].dataLink[5] tDistribution:vector ETV
attr "" ""
attr source computeTDistribution
vector 21 Aerocom.aircraft[0].dataLink[6] tDistribution:vector ETV
attr "" ""
attr source computeTDistribution
vector 22 Aerocom.aircraft[0].dataLink[1] tDistribution:vector ETV
attr "" ""
attr source computeTDistribution
vector 23 Aerocom.aircraft[0].dataLink[8] tDistribution:vector ETV
attr "" ""
attr source computeTDistribution
vector 24 Aerocom.aircraft[0].dataLink[4] tDistribution:vector ETV
attr "" ""
attr source computeTDistribution
0	1228	10	9639
0	1231	10.007417611529	9643
0	1237	10.047399719226	9663
0	1243	10.063135802269	9667
0	1249	10.123961234941	9679
0	1255	10.190399128629	9692
0	1262	10.207416465541	9695
0	1270	10.371173624427	9728
0	1276	10.399568832101	9733
0	1281	10.413869880726	9736
0	1287	10.484421101191	9750
0	1292	10.5	9753
0	1343	11	9853
0	1348	11.080278566735	9789
0	1353	11.137258964912	9587
0	1358	11.166890166285	9482
0	1363	11.196709136001	9377
0	1369	11.290382129994	9046
0	1379	11.482532459156	8536
0	1383	11.5	8558
0	1442	12	8981
0	1486	12.5	8289
0	1533	13	8466
0	1580	13.5	8643
0	1618	14	8513
0	1653	14.5	8134
0	1691	15	8088
0	1717	15.5	8791
0	1753	16	8659
0	2013	16.5	8614
0	2045	17	9859
0	2046	17.007727122199	9859
0	2047	17.014827233772	9859
0	2050	17.021927345345	9859
0	2053	17.029027456918	9859
0	2056	17.036127568491	9859
0	2059	17.043227680064	9859
0	2064	17.050327791637	9859
0	2067	17.05742790321	9859
0	2076	17.064528014783	9858
0	2079	17.071628846595	9858
0	2082	17.078729678407	9858
0	2085	17.085830510219	9858
0	2092	17.133035356209	9858
0	2098	17.155347997235	9858
0	2104	17.29957858484	9857
0	2110	17.365043503041	9856
0	2116	17.434358070642	9855
0	2121	17.443772819403	9855
0	2126	17.464503446536	9855
0	2130	17.5	9855
0	2133	17.508381226054	9855
0	2139	17.534933027377	9855
0	2142	17.542036020781	9855
0	2150	17.558425476155	9854
0	2155	17.56958243656	9854
0	2160	17.579473911933	9854
0	2164	17.586577626161	9854
0	2170	17.593681340389	9854
0	2177	17.668705269119	9853
0	2182	17.699835136318	9853
0	2187	17.712510421575	9853
0	2194	17.816311974597	9852
0	2199	17.837494829665	9852
0	2209	17.981722044085	9851
0	2213	18	9851
0	2218	18.113332987212	9850
0	2224	18.160189923098	9849
0	2230	18.221129763265	9849
0	2236	18.266527964631	9849
0	2240	18.273635285171	9844
0	2247	18.344687366176	9602
0	2253	18.353685233254	9572
0	2260	18.388345221731	9454
0	2266	18.436919329636	9289
0	2270	18.444455124662	9272
0	2280	18.48254965676	9198
0	2284	18.5	9165
0	2320	19	8420
0	2365	19.5	8765
0	2442	20	8713
0	2473	20.5	8674
0	2574	21	9158
0	2604	21.5	9314
0	2640	22	8627
0	2669	22.5	9329
0	2707	23	9219
0	2862	23.5	9418
0	2893	24	9482
0	2936	24.5	9547
0	2982	25	8751
0	3167	25.5	9235
0	3230	26	8702
0	3305	26.5	8154
0	3360	27	8068
0	3388	27.5	8076
0	3413	28	8083
0	3493	28.5	8984
0	3559	29	8225
0	3587	29.5	8283
0	3618	30	8340
0	3656	30.5	8318
0	3680	31	8321
0	3718	31.5	8375
0	3914	32	8429
0	3955	32.5	9513
0	3995	33	8782
0	3996	33	8782
0	4033	33.5	8937
0	4216	34	9215
0	4292	34.5	8724
0	4357	35	9420
0	4365	35.100554607329	9701
0	4371	35.110119409624	9697
0	4378	35.161981664329	9674
0	4383	35.194227088887	9660
0	4386	35.201473465699	9657
0	4394	35.272569651321	9626
0	4399	35.300710911412	9613
0	4404	35.341355829471	9595
0	4410	35.377025043611	9580
0	4415	35.38573480163	9576
0	4422	35.424147468723	9559
0	4427	35.431911747998	9556
0	4434	35.489101516954	9530
0	4439	35.5	9526
0	4474	36	8706
0	4475	36	8706
0	4508	36.5	8935
0	4638	37	9276
0	4705	37.5	9535
0	4736	38	9466
0	4737	38	9466
0	4770	38.5	9558
0	4771	38.5	9558
0	4802	39	9681
0	4836	39.5	9804
0	4837	39.5	9804
0	4880	40	8499
0	5046	40.5	9345
0	5088	41	8569
0	5132	41.5	8712
0	5153	42	9824
0	5154	42.007394886964	9821
0	5155	42.014522470713	9817
0	5159	42.021652958642	9814
0	5164	42.02878562626	9811
0	5167	42.035920474899	9807
0	5172	42.043058233643	9804
0	5177	42.050198176523	9801
0	5180	42.057340304877	9797
0	5183	42.064485349278	9794
0	5186	42.071632582278	9791
0	5189	42.078782005217	9787
0	5192	42.085934350164	9784
0	5195	42.093088888185	9780
0	5198	42.100246352398	9777
0	5201	42.107406012826	9774
0	5204	42.114567870817	9770
0	5207	42.121732660991	9767
0	5210	42.128899651879	9764
0	5213	42.136068844833	9760
0	5218	42.143240975981	9757
0	5221	42.150415312355	9754
0	5224	42.157591855312	9750
0	5227	42.164771342491	9747
0	5230	42.171953039423	9743
0	5233	42.179137684809	9740
0	5236	42.186324543125	9737
0	5241	42.193513615735	9733
0	5244	42.200705642859	9730
0	5247	42.207899887463	9727
0	5251	42.215096350915	9723
0	5254	42.222295774961	9720
0	5258	42.229497421052	9716
0	5261	42.236702032003	9713
0	5265	42.243908868202	9710
0	5268	42.251117931024	9706
0	5271	42.258329964818	9703
0	5274	42.265544228448	9700
0	5279	42.272760723293	9696
0	5282	42.27998019524	9693
0	5285	42.287201901626	9689
0	5288	42.294426589416	9686
0	5291	42.301653514875	9683
0	5296	42.30888267939	9679
0	5303	42.357103924974	9657
0	5310	42.5	9589
0	5384	43	9698
0	5388	43.021608950262	9692
0	5393	43.076418578312	9679
0	5402	43.207200624933	9648
0	5407	43.243619503585	9640
0	5414	43.339806432118	9617
0	5420	43.3673965382	9610
0	5426	43.401822232602	9602
0	5432	43.442271217359	9592
0	5439	43.470187556822	9586
0	5446	43.487104862757	9582
0	5451	43.5	9579
0	5499	44	9765
0	5527	44.5	9089
0	5549	45	8459
0	5629	45.5	8509
0	5695	46	8559
0	5736	46.5	8609
0	5770	47	9895
0	5805	47.5	9863
0	5806	47.5	9863
0	5835	48	8682
0	5836	48	8682
0	5865	48.5	8648
0	6074	49	8667
0	6094	49.5	8762
0	6125	50	8857
0	6234	50.5	8952
0	6303	51	9251
0	6362	51.5	9560
0	6428	52	8478
0	6490	52.5	8426
0	6531	53	8274
0	6578	53.5	9323
0	6732	54	9234
0	6763	54.5	8752
0	6842	55	8340
0	6909	55.5	8722
0	6937	56	8811
0	6970	56.5	9743
0	6995	57	9024
0	7116	57.5	9397
0	7146	58	9331
0	7237	58.5	8906
0	7275	59	8555
0	7309	59.5	8204
0	7346	60	9829
0	7347	60.007648601399	9825
0	7348	60.014773283333	9823
0	7351	60.021899415879	9820
0	7354	60.029027725451	9817
0	7357	60.03615821338	9814
0	7360	60.043290880998	9811
0	7363	60.050425729637	9808
0	7366	60.057562760632	9805
0	7369	60.064701975318	9802
0	7373	60.071843375032	9800
0	7376	60.078986232175	9797
0	7379	60.086131276576	9794
0	7383	60.093278509576	9791
0	7386	60.100427932515	9788
0	7390	60.107579546736	9785
0	7393	60.114733353583	9782
0	7396	60.121889354401	9779
0	7399	60.129047550536	9777
0	7402	60.136207210964	9774
0	7405	60.143369068955	9771
0	7408	60.150533125858	9768
0	7411	60.157699383024	9765
0	7415	60.164867841805	9762
0	7418	60.172038503555	9759
0	7423	60.179211369627	9756
0	7426	60.186386441378	9753
0	7429	60.193563720164	9751
0	7432	60.200742471061	9748
0	7435	60.207923431258	9745
0	7438	60.215106602115	9742
0	7441	60.222291984993	9739
0	7444	60.229479581255	9736
0	7447	60.236669392266	9733
0	7450	60.24386141939	9730
0	7457	60.263820313444	9722
0	7460	60.271020478019	9719
0	7467	60.286461199681	9713
0	7472	60.331939734925	9695
0	7477	60.363744907643	9682
0	7482	60.416104520418	9661
0	7487	60.439864992357	9651
0	7490	60.447118126747	9648
0	7499	60.5	9627
0	7556	61	9306
0	7597	61.5	8449
0	7631	62	8918
0	7665	62.5	9585
0	7685	63	9748
0	7686	63.007390983001	9751
0	7690	63.014569733898	9753
0	7693	63.021747012684	9755
0	7696	63.028922819962	9758
0	7699	63.03609642111	9760
0	7702	63.043268552258	9762
0	7705	63.050439214008	9765
0	7708	63.057607672789	9767
0	7711	63.064774663677	9769
0	7714	63.071940187272	9772
0	7720	63.079103511054	9774
0	7723	63.086265369045	9776
0	7726	63.093425761844	9779
0	7729	63.100583957979	9781
0	7733	63.107740690419	9783
0	7737	63.114895959764	9786
0	7740	63.122049035587	9788
0	7743	63.129200649808	9790
0	7746	63.136350803026	9793
0	7750	63.143498765857	9795
0	7753	63.150645269175	9797
0	7756	63.157790313576	9800
0	7759	63.164933170719	9802
0	7762	63.172074570433	9804
0	7765	63.179214513313	9807
0	7768	63.186352272057	9809
0	7772	63.193488575452	9811
0	7776	63.200623424091	9814
0	7779	63.207756091709	9816
0	7782	63.214887306053	9818
0	7787	63.222017067715	9821
0	7791	63.229144651464	9823
0	7794	63.23627078401	9825
0	7797	63.243395465944	9828
0	7808	63.266500693884	9835
0	7816	63.322244036588	9851
0	7822	63.406090773238	9417
0	7827	63.421600579401	9314
0	7835	63.5	9069
0	7874	64	8652
0	7922	64.5	8429
0	7950	65	8734
0	7976	65.5	8561
0	8110	66	8389
0	8194	66.5	8578
0	8252	67	9180
0	8281	67.5	8937
0	8330	68	9086
0	8459	68.5	8299
0	8535	69	8922
0	8622	69.5	9252
0	8646	70	9583
0	8724	70.5	8273
0	8753	71	8483
0	8810	71.5	8914
0	8950	72	9238
0	8989	72.5	8690
0	9023	73	8542
0	9146	73.5	8395
0	9191	74	8624
0	9231	74.5	8914
0	9259	75	9391
0	9409	75.5	9868
0	9437	76	9206
0	9438	76	9206
0	9470	76.5	9099
0	9590	77	9235
0	9613	77.5	8450
0	9645	78	9706
0	9648	78.007472245944	9702
0	9649	78.014687253159	9697
0	9654	78.0219059806	9693
0	9657	78.029127686986	9688
0	9660	78.036353120512	9684
0	9663	78.043581538521	9680
0	9666	78.05081294348	9675
0	9671	78.058048085599	9671
0	9674	78.065286220228	9666
0	9679	78.072528098978	9662
0	9682	78.079772975815	9658
0	9686	78.087020853222	9653
0	9689	78.094272484839	9649
0	9692	78.101527122625	9644
0	9700	78.142528605778	9619
0	9705	78.151607566661	9614
0	9711	78.220243766953	9572
0	9721	78.348283462691	8732
0	9730	78.412187777385	8614
0	9735	78.429600209094	8650
0	9740	78.462575349097	8719
0	9746	78.492749288718	8783
0	9747	78.5	8798
0	9811	79	9248
0	9844	79.5	8444
0	9884	80	9105
0	9994	80.5	9766
0	10029	81	9335
0	10060	81.5	9366
0	10181	82	8678
0	10232	82.5	8499
0	10386	83	8750
0	10428	83.5	8694
0	10532	84	8113
0	10573	84.5	8013
0	10610	85	8022
0	10729	85.5	9655
0	10752	86	8390
0	10841	86.5	9100
0	10876	87	8775
0	10909	87.5	8551
0	10943	88	8796
0	10976	88.5	8184
0	11146	89	8844
0	11172	89.5	8794
0	11208	90	8868
0	11242	90.5	8246
0	11380	91	8667
0	11444	91.5	8642
0	11514	92	9120
0	11556	92.5	9534
0	11589	93	9489
0	11618	93.5	9380
0	11619	93.507157464213	9378
0	11620	93.514621742311	9376
0	11623	93.522087612618	9375
0	11627	93.529554279285	9373
0	11630	93.53702253918	9372
0	11633	93.544491595945	9370
0	11636	93.551962246959	9368
0	11639	93.559434492903	9367
0	11642	93.566907536567	9365
0	11647	93.574382176183	9363
0	11650	93.581858412432	9362
0	11653	93.589335447254	9360
0	11656	93.596814079733	9358
0	11659	93.604294310552	9357
0	11663	93.611775340797	9355
0	11666	93.619257970407	9353
0	11673	93.626742200066	9352
0	11676	93.634227230006	9350
0	11680	93.641713861022	9349
0	11686	93.649201292833	9347
0	11689	93.656690326748	9345
0	11692	93.664180963452	9344
0	11698	93.671672401808	9342
0	11701	93.679165443983	9340
0	11709	93.729972291246	9329
0	11712	93.737475775006	9328
0	11720	93.779150257416	9318
0	11726	93.811424245967	9311
0	11733	93.882087736731	9296
0	11738	93.967833891936	9277
0	11743	93.982315676832	9274
0	11749	94	9270
0	11798	94.5	9160
0	11830	95	9197
0	11865	95.5	9451
0	11887	96	9706
0	11888	96	9706
0	11922	96.5	9402
0	11923	96.5	9402
0	11960	97	8283
0	12169	97.5	8792
0	12191	98	9371
0	12210	98.5	8944
0	12246	99	8903
0	12359	99.5	9380
0	12421	100	8266
0	12511	100.5	9240
0	12571	101	9657
0	12610	101.5	9372
0	12611	101.5	9372
0	12645	102	8553
0	12773	102.5	9634
0	12777	102.535566292651	9310
0	12782	102.548724337481	9190
0	12788	102.618691315602	8551
0	12793	102.652369355125	8244
0	12799	102.665817881542	8146
0	12807	102.733966548127	8244
0	12812	102.782411568272	8314
0	12820	102.873980217277	8446
0	12825	102.92501034151	8520
0	12831	102.938004439114	8539
0	12838	103	8628
0	12865	103.5	9158
0	12963	104	9243
0	13035	104.5	9200
0	13072	105	9214
0	13107	105.5	9229
0	13268	106	9384
0	13304	106.5	9725
0	13347	107	8675
0	13377	107.5	9169
0	13406	108	9447
0	13440	108.5	9522
0	13453	109	9596
0	13653	109.5	9671
0	13680	110	9746
0	13773	110.5	9821
0	13777	110.573674143135	9832
0	13782	110.621407276546	9839
0	13785	110.628521820707	9840
0	13794	110.667872348066	9842
0	13799	110.689899637074	9819
0	13804	110.707444920659	9801
0	13810	110.722926581948	9785
0	13815	110.855386178141	9648
0	13820	110.937747978293	9563
0	13827	110.953203862803	9549
0	13832	110.962133814956	9541
0	13836	111	9506
0	13869	111.5	8778
0	13920	112	9282
0	13997	112.5	8207
0	14052	113	8220
0	14077	113.5	8342
0	14097	114	8691
0	14138	114.5	9678
0	14168	115	9662
0	14169	115	9662
0	14203	115.5	9649
0	14259	116	9645
0	14291	116.5	9628
0	14313	117	9487
0	14348	117.5	9347
0	14590	118	9206
0	14709	118.5	9868
0	14763	119	8537
0	14810	119.5	9129
0	14862	120	9172
0	14911	120.5	9214
0	14972	121	9256
0	15045	121.5	9350
0	15067	122	9478
0	15068	122.004172209085	9479
0	15069	122.011556954311	9481
0	15072	122.014755947329	9482
0	15073	122.018940141738	9483
0	15078	122.021832372723	9483
0	15079	122.022138356104	9483
0	15082	122.026321772024	9485
0	15085	122.028908082821	9485
0	15086	122.029214003009	9485
0	15089	122.02951998639	9485
0	15109	122.061548037747	9494
0	15123	122.119275300012	9508
0	15140	122.203706131183	9530
0	15146	122.277991769565	9549
0	15150	122.2853223801	9551
0	15161	122.33527789774	9541
0	15166	122.416019237464	9408
0	15171	122.440386011007	9368
0	15177	122.447858256951	9356
0	15180	122.455340086793	9343
0	15188	122.5	9270
0	15220	123	8610
0	15244	123.5	9091
0	15262	124	9572
0	15292	124.5	9385
0	15343	125	9472
0	15387	125.5	9206
0	15423	126	8941
0	15452	126.5	8675
0	15472	127	8418
0	15698	127.5	9843
0	15702	127.507376185458	9837
0	15704	127.514492176106	9830
0	15707	127.521613234092	9824
0	15710	127.528738641258	9817
0	15713	127.535869129187	9811
0	15716	127.543003977826	9805
0	15720	127.550143192512	9798
0	15725	127.557287507678	9792
0	15728	127.564436200488	9785
0	15731	127.571590007335	9779
0	15734	127.57874820347	9772
0	15737	127.585911527252	9766
0	15740	127.593079252011	9759
0	15743	127.600252118083	9753
0	15746	127.607429396869	9746
0	15751	127.614611830688	9740
0	15755	127.621798689004	9733
0	15759	127.628990716128	9727
0	15764	127.63618717958	9720
0	15767	127.643388825671	9714
0	15770	127.650594919968	9707
0	15773	127.657806210789	9701
0	15776	127.665021961743	9694
0	15784	127.753045550266	9624
0	15789	127.760903721384	9621
0	15794	127.775916925352	9615
0	15799	127.786704105773	9610
0	15805	127.857685022482	9582
0	15813	128	8202
0	15847	128.5	8232
0	15875	129	8261
0	15925	129.5	8596
0	15988	130	8481
0	16072	130.5	8941
0	16117	131	9840
0	16164	131.5	8984
0	16288	132	8691
0	16311	132.5	9101
0	16380	133	9407
0	16406	133.5	9499
0	16445	134	9591
0	16471	134.5	9684
0	16506	135	9776
0	16535	135.5	9868
0	16571	136	8401
0	16572	136	8401
0	16613	136.5	9080
0	16662	137	9147
0	16699	137.5	9920
0	16700	137.507691462477	9924
0	16705	137.514745069893	9927
0	16708	137.521796545666	9930
0	16711	137.528845891084	9933
0	16714	137.535893107434	9937
0	16717	137.542937487025	9940
0	16720	137.549979740546	9943
0	16723	137.55701986928	9947
0	16726	137.564057166958	9950
0	16732	137.571092342837	9945
0	16737	137.578131055758	9897
0	16740	137.585203906117	9850
0	16745	137.592310505102	9802
0	16748	137.599451904816	9754
0	16751	137.606628447773	9706
0	16754	137.613840481567	9658
0	16758	137.621088358974	9609
0	16761	137.628373196106	9561
0	16764	137.635694606	9512
0	16767	137.643053731315	9462
0	16771	137.65045174442	9413
0	16774	137.657888268376	9363
0	16777	137.665364504625	9313
0	16782	137.672880879585	9262
0	16785	137.680438642487	9212
0	16790	137.688037426682	9161
0	16794	137.6956785139	9110
0	16797	137.703362377786	9058
0	16800	137.711090353056	9006
0	16803	137.718862949103	8954
0	16806	137.726680684193	8902
0	16809	137.734544085676	8849
0	16814	137.742454584037	8796
0	16818	137.750412746838	8789
0	16823	137.758377247919	8790
0	16827	137.766340842913	8792
0	16830	137.774302626352	8794
0	16833	137.782262599061	8795
0	16836	137.790221666713	8797
0	16839	137.798178924869	8799
0	16842	137.806134374352	8800
0	16845	137.814088919807	8802
0	16848	137.822041657821	8803
0	16853	137.829993492423	8805
0	16857	137.837943520816	8807
0	16860	137.84589174382	8808
0	16863	137.853839064438	8810
0	16866	137.861784580897	8811
0	16869	137.869729195583	8813
0	16873	137.877672007338	8815
0	16876	137.885613016981	8816
0	16879	137.893553125874	8818
0	16882	137.90149143388	8819
0	16885	137.909428841749	8821
0	16890	137.917364449957	8823
0	16893	137.925298259319	8824
0	16896	137.933231169564	8826
0	16901	137.941162282186	8828
0	16905	137.949091597999	8829
0	16908	137.957020015713	8831
0	16911	137.96494663784	8832
0	16914	137.972872362478	8834
0	16919	137.980796292747	8836
0	16922	137.98871842946	8837
0	16925	137.9966396697	8839
0	16928	138	8839
0	17094	138.5	9280
0	17148	139	9268
0	17186	139.5	8895
0	17235	140	8135
0	17287	140.5	8377
0	17371	141	9460
0	17450	141.5	9692
0	17482	142	9185
0	17596	142.5	9515
0	17628	143	9271
0	17655	143.5	8991
0	17687	144	8650
0	17730	144.5	8514
0	17754	145	9279
0	17792	145.5	9095
0	17824	146	8610
0	17860	146.5	9872
0	17891	147	9867
0	18135	147.5	8439
0	18248	148	9224
0	18302	148.5	8525
0	18370	149	8845
0	18429	149.5	9859
0	18480	150	9241
0	18535	150.5	8775
0	18626	151	8538
0	18661	151.5	8914
0	18772	152	9453
0	18798	152.5	9053
0	18875	153	9729
0	18911	153.5	9171
0	18912	153.5	9171
0	18945	154	8612
0	18978	154.5	8945
0	19130	155	8181
0	19169	155.5	8192
0	19198	156	8216
0	19227	156.5	9346
0	19258	157	9486
0	19289	157.5	9245
0	19449	158	9532
0	19453	158.073205582601	9574
0	19462	158.153643848313	9422
0	19467	158.185348922485	9293
0	19472	158.203969571203	9217
0	19478	158.216134305276	9202
0	19484	158.250635387382	9166
0	19490	158.286777049967	9112
0	19497	158.347274207095	9017
0	19506	158.398915005414	8937
0	19509	158.406747611434	8925
0	19516	158.425605822245	8895
0	19521	158.436388828255	8878
0	19524	158.444273486962	8866
0	19532	158.474833080753	8818
0	19537	158.5	8779
0	19566	159	8174
0	19590	159.5	8310
0	19681	160	8332
0	19730	160.5	8481
0	19813	161	9131
0	19906	161.5	9402
0	19938	162	9263
0	19968	162.5	9732
0	20003	163	9418
0	20139	163.5	9712
0	20179	164	8685
0	20180	164	8685
0	20211	164.5	9191
0	20246	165	8360
0	20406	165.5	8656
0	20447	166	9701
0	20553	166.5	9165
0	20601	167	9032
0	20628	167.5	8996
0	20671	168	9030
0	20797	168.5	9819
0	20833	169	8949
0	20861	169.5	8923
0	20895	170	9518
0	20923	170.5	9446
0	20924	170.5	9446
0	20964	171	9446
0	20999	171.5	9400
0	21000	171.508205368655	9395
0	21001	171.515656140342	9392
0	21005	171.52310929196	9388
0	21010	171.530565619186	9384
0	21013	171.538025124727	9380
0	21016	171.545487811294	9376
0	21019	171.552953681601	9372
0	21022	171.560422738366	9369
0	21025	171.56789418676	9365
0	21028	171.575368826376	9361
0	21031	171.582846659941	9357
0	21035	171.590327690186	9353
0	21038	171.597811919845	9349
0	21041	171.605299351656	9346
0	21044	171.61278918688	9342
0	21047	171.620282229055	9338
0	21051	171.627778480929	9334
0	21054	171.635277945253	9330
0	21057	171.642780624781	9326
0	21060	171.650286522272	9323
0	21064	171.657794835047	9319
0	21067	171.665306370619	9315
0	21070	171.672821131757	9311
0	21075	171.680339121232	9307
0	21078	171.687860341819	9303
0	21081	171.695384796296	9299
0	21084	171.702912487446	9296
0	21087	171.710442607928	9292
0	21090	171.71797596996	9288
0	21093	171.725512576334	9284
0	21097	171.733052429845	9280
0	21100	171.740595533293	9276
0	21103	171.748141889481	9272
0	21108	171.755691501215	9268
0	21111	171.763244371306	9265
0	21114	171.77079968701	9261
0	21117	171.778358265997	9257
0	21121	171.785920111087	9253
0	21124	171.793485225104	9249
0	21129	171.801053610875	9245
0	21132	171.808625271232	9241
0	21137	171.816200209009	9237
0	21140	171.823778427045	9234
0	21143	171.83135910714	9230
0	21146	171.83894307247	9226
0	21149	171.846530325884	9222
0	21152	171.854120870234	9218
0	21155	171.861714708377	9214
0	21158	171.869311843172	9210
0	21165	171.900283077324	9194
0	21171	171.923965103308	9182
0	21178	172	9143
0	21204	172.5	8887
0	21256	173	9612
0	21294	173.5	9852
0	21295	173.507851054284	9852
0	21296	173.514956210597	9852
0	21299	173.52206136691	9851
0	21302	173.529167244486	9851
0	21305	173.536273122062	9850
0	21308	173.543379721047	9850
0	21311	173.550486320032	9850
0	21314	173.557592919017	9849
0	21318	173.564700239557	9849
0	21321	173.571807560097	9848
0	21325	173.578915602339	9848
0	21328	173.586023644581	9847
0	21331	173.593132408672	9847
0	21334	173.600241172763	9847
0	21337	173.607349936854	9846
0	21340	173.61445942294	9846
0	21343	173.621568909026	9845
0	21348	173.628679117254	9845
0	21351	173.635789325482	9845
0	21354	173.64289953371	9844
0	21357	173.650010464226	9844
0	21361	173.657121394742	9843
0	21365	173.664233047693	9843
0	21368	173.671344700644	9842
0	21371	173.678457076177	9842
0	21376	173.68556945171	9842
0	21381	173.692681827243	9841
0	21386	173.699794925505	9841
0	21389	173.706908023767	9840
0	21392	173.714021844905	9840
0	21395	173.721135666043	9840
0	21398	173.728249487181	9839
0	21401	173.735364031342	9839
0	21404	173.742478575503	9838
0	21407	173.749593842834	9838
0	21414	173.809115753417	9834
0	21419	173.856449353979	9832
0	21422	173.863568963418	9831
0	21429	173.885670785335	9830
0	21434	173.894578201558	9829
0	21439	173.96704424499	9825
0	21444	174	9823
0	21518	174.5	9794
0	21586	175	9765
0	21589	175.007963594994	9764
0	21596	175.142212877005	9757
0	21606	175.28762731529	9740
0	21613	175.375291749569	9704
0	21619	175.39271156357	9696
0	21624	175.411801952701	9688
0	21629	175.433642320341	9679
0	21635	175.479231431242	9661
0	21638	175.486477057989	9658
0	21645	175.5	9652
0	21684	176	9052
0	21713	176.5	9718
0	21845	177	8560
0	21954	177.5	9039
0	21987	178	8851
0	22028	178.5	8664
0	22072	179	8476
0	22112	179.5	8850
0	22144	180	9805
0	22145	180.007158196135	9819
0	22146	180.014287231678	9833
0	22151	180.021406117064	9846
0	22155	180.02851560315	9860
0	22158	180.035614994631	9873
0	22161	180.042705038184	9887
0	22164	180.04978504223	9900
0	22167	180.056855749301	9914
0	22171	180.063916471512	9904
0	22174	180.070984322885	9892
0	22177	180.078060748279	9879
0	22180	180.085146485702	9866
0	22183	180.092241559693	9853
0	22186	180.09934599489	9841
0	22190	180.106459093152	9828
0	22193	180.113581600275	9815
0	22196	180.120713541182	9802
0	22199	180.127854940896	9789
0	22202	180.135005824541	9777
0	22205	180.142165484969	9764
0	22208	180.149334677923	9751
0	22212	180.15651342882	9746
0	22217	180.163695862639	9744
0	22220	180.170879770685	9742
0	22223	180.178065153563	9739
0	22226	180.185252749825	9737
0	22229	180.192441822435	9734
0	22232	180.199633110703	9732
0	22237	180.206825876835	9729
0	22240	180.214020860903	9727
0	22245	180.221217324355	9724
0	22248	180.228416008024	9722
0	22251	180.235616172599	9719
0	22255	180.242818559676	9717
0	22260	180.250022429183	9715
0	22263	180.257227781731	9712
0	22267	180.264435359985	9710
0	22270	180.271644422807	9707
0	22273	180.278855713628	9705
0	22276	180.286068490547	9702
0	22279	180.293283497762	9700
0	22283	180.300499992607	9697
0	22286	180.307718720048	9695
0	22289	180.314938936654	9692
0	22292	180.32216138816	9690
0	22298	180.329385330368	9687
0	22301	180.336611509784	9685
0	22304	180.343839181441	9682
0	22307	180.351069092616	9680
0	22310	180.358300497575	9677
0	22313	180.365534144366	9675
0	22319	180.372769286485	9673
0	22322	180.38000592455	9670
0	22325	180.387244807694	9668
0	22328	180.394485188331	9665
0	22331	180.40172781637	9663
0	22334	180.408971943453	9660
0	22337	180.416218320265	9658
0	22340	180.423466197672	9655
0	22345	180.430716327139	9653
0	22348	180.437967958756	9650
0	22351	180.445221844766	9648
0	22358	180.461863582377	9642
0	22363	180.487370321251	9633
0	22368	180.5	9629
0	22410	181	9458
0	22411	181	9458
0	22439	181.5	9700
0	22467	182	8658
0	22608	182.5	9018
0	22662	183	9185
0	22702	183.5	9122
0	22757	184	9440
0	22793	184.5	9759
0	22818	185	9518
0	22909	185.5	9235
0	22945	186	9568
0	22973	186.5	8854
0	23069	187	8982
0	23104	187.5	9109
0	23208	188	9743
0	23248	188.5	8409
0	23348	189	9006
0	23385	189.5	9559
0	23420	190	9008
0	23421	190	9008
0	23453	190.5	8860
0	23498	191	8950
0	23667	191.5	9218
0	23712	192	8429
0	23746	192.5	8399
0	23779	193	8532
0	23822	193.5	9426
0	24001	194	9033
0	24044	194.5	8639
0	24111	195	9036
0	24148	195.5	9884
0	24181	196	9624
0	24326	196.5	9365
0	24384	197	9105
0	24446	197.5	8942
0	24484	198	8852
0	24520	198.5	9449
0	24561	199	8849
0	24598	199.5	8571
0	24751	200	8830
0	24780	200.5	9089
0	24817	201	9349
0	24821	201.006835702081	9346
0	24822	201.014325537305	9319
0	24825	201.021837072877	9291
0	24829	201.029371245732	9263
0	24832	201.036928192725	9236
0	24835	201.04450723127	9208
0	24838	201.052109316413	9180
0	24842	201.059734588744	9152
0	24845	201.067383190143	9124
0	24848	201.075055263795	9095
0	24851	201.082751800354	9067
0	24854	201.090472104755	9039
0	24858	201.098216324248	9010
0	24861	201.105985469642	8982
0	24865	201.113778834149	8953
0	24868	201.121597442437	8924
0	24871	201.129441458573	8896
0	24875	201.137310163609	8867
0	24878	201.145204603668	8838
0	24881	201.153124947637	8808
0	24884	201.161072268255	8779
0	24889	201.169045841555	8750
0	24899	201.2273653873	8536
0	24905	201.24555498215	8469
0	24914	201.316487969602	8796
0	24927	201.458372533117	9493
0	24933	201.5	9698
0	24977	202	9952
0	24978	202.007944614686	9952
0	24979	202.014978376744	9952
0	24982	202.022012138802	9952
0	24985	202.02904590086	9953
0	24988	202.03607895622	9953
0	24991	202.04311201158	9953
0	24995	202.05014506694	9953
0	24999	202.0571781223	9953
0	25002	202.06421117766	9953
0	25005	202.07124423302	9953
0	25008	202.07827728838	9953
0	25011	202.08531034374	9954
0	25019	202.114777861947	9954
0	25026	202.178788983438	9955
0	25029	202.185820625829	9955
0	25038	202.244064185402	9956
0	25049	202.331779986224	9958
0	25054	202.341479428501	9958
0	25059	202.353361712377	9958
0	25065	202.495505525665	9960
0	25066	202.5	9961
0	25072	202.584383014268	9962
0	25079	202.648217968928	9963
0	25082	202.655243965114	9963
0	25091	202.66949167067	9963
0	25096	202.770250439703	9965
0	25102	202.832012222687	9795
0	25108	202.859107695936	9677
0	25113	202.924933103588	9388
0	25120	203	9058
0	25188	203.5	9843
0	25214	204	9089
0	25258	204.5	8969
0	25387	205	9464
0	25439	205.5	9959
0	25463	206	8985
0	25464	206	8985
0	25515	206.5	8989
0	25694	207	8822
0	25725	207.5	8636
0	25760	208	8490
0	25886	208.5	8343
0	25919	209	8878
0	25983	209.5	8729
0	26031	210	8796
0	26110	210.5	9245
0	26143	211	9694
0	26192	211.5	9105
0	26339	212	8512
0	26366	212.5	8510
0	26476	213	8559
0	26511	213.5	8582
0	26540	214	9171
0	26571	214.5	8938
0	26604	215	8716
0	26808	215.5	9492
0	26833	216	9796
0	26864	216.5	9021
0	26865	216.5	9021
0	26894	217	9580
0	26930	217.5	9645
0	26931	217.507951834602	9641
0	26932	217.51521249221	9637
0	26935	217.522476163477	9633
0	26938	217.529742850906	9630
0	26941	217.5370118021	9626
0	26944	217.544283773843	9622
0	26947	217.551558768647	9619
0	26950	217.558836032396	9615
0	26953	217.566116323608	9611
0	26956	217.573399644802	9607
0	26961	217.580685998502	9604
0	26964	217.58797462824	9600
0	26967	217.595266294907	9596
0	26971	217.602561001035	9593
0	26974	217.609857988422	9589
0	26977	217.617158019708	9585
0	26980	217.624461097434	9581
0	26983	217.631767224143	9578
0	26988	217.639075639261	9574
0	26991	217.646387107822	9570
0	26994	217.653701632378	9566
0	26997	217.661019215485	9563
0	27000	217.668339094184	9559
0	27005	217.675662035914	9555
0	27008	217.68298804324	9552
0	27013	217.690316351448	9548
0	27018	217.697647729747	9544
0	27022	217.704982180711	9540
0	27026	217.712319706916	9537
0	27029	217.719659541245	9533
0	27034	217.727002455333	9529
0	27037	217.734348451765	9525
0	27040	217.74169753313	9522
0	27043	217.749048929895	9518
0	27046	217.756403416132	9514
0	27052	217.763760994438	9510
0	27059	217.771994113355	9506
0	27064	217.829591540276	9477
0	27069	217.858220500279	9462
0	27075	217.896869910066	9442
0	27080	217.9477057353	9416
0	27085	217.990189962171	9395
0	27089	218	9390
0	27093	218.046244713233	9366
0	27098	218.058974961863	9360
0	27104	218.078462424761	9277
0	27112	218.172570491854	8724
0	27115	218.180594334128	8677
0	27123	218.214940421832	8475
0	27128	218.238616457581	8335
0	27134	218.301072989023	8103
0	27139	218.324603419025	8133
0	27148	218.5	8360
0	27186	219	9853
0	27214	219.5	9102
0	27215	219.5	9102
0	27246	220	8351
0	27369	220.5	8770
0	27422	221	9251
0	27480	221.5	9371
0	27501	222	9119
0	27537	222.5	8867
0	27576	223	8615
0	27594	223.5	8363
0	27759	224	8110
0	27792	224.5	9128
0	27825	225	9303
0	27859	225.5	9620
0	28024	226	9082
0	28072	226.5	8544
0	28114	227	9134
0	28155	227.5	8960
0	28196	228	8713
0	28228	228.5	8625
0	28351	229	8572
0	28404	229.5	8807
0	28425	230	9224
0	28464	230.5	8178
0	28563	231	8539
0	28592	231.5	8755
0	28679	232	8493
0	28745	232.5	8232
0	28771	233	8110
0	28855	233.5	8652
0	28881	234	9561
0	28953	234.5	9006
0	28986	235	8586
0	29020	235.5	8167
0	29060	236	8094
0	29080	236.5	8152
0	29110	237	8210
0	29152	237.5	8705
0	29353	238	8647
0	29387	238.5	8460
0	29484	239	8594
0	29537	239.5	8860
0	29597	240	8385
0	29657	240.5	9310
0	29725	241	8854
0	29777	241.5	8611
0	29797	242	9043
0	29828	242.5	9165
0	29849	243	8439
0	29892	243.5	8794
0	29934	244	9102
0	29981	244.5	8790
0	30019	245	8581
0	30058	245.5	9010
0	30095	246	8510
0	30314	246.5	8498
0	30509	247	8519
0	30566	247.5	8916
0	30629	248	9199
0	30684	248.5	8720
0	30725	249	8914
0	30771	249.5	9108
0	30820	250	9037
0	30844	250.5	9862
0	30845	250.503966900983	9860
0	30846	250.511066292464	9857
0	30849	250.514763550171	9855
0	30850	250.51816784466	9854
0	30853	250.521866543575	9852
0	30856	250.522105694077	9852
0	30857	250.525271558888	9851
0	30874	250.554083259121	9838
0	30883	250.576285127727	9829
0	30895	250.617285375957	9811
0	30909	250.685669591443	9781
0	30920	250.729600627789	9762
0	30931	250.775736312549	9742
0	30934	250.782921695427	9739
0	30946	250.857685261872	9553
0	30952	250.903558713599	9428
0	30957	250.911891771313	9405
0	30964	250.935916470787	9340
0	30975	251	9166
0	31012	251.5	9329
0	31048	252	8887
0	31191	252.5	9183
0	31209	253	8247
0	31210	253	8247
0	31256	253.5	9218
0	31295	254	9013
0	31325	254.5	9034
0	31363	255	9718
0	31398	255.5	8689
0	31625	256	8404
0	31678	256.5	9563
0	31705	257	9409
0	31836	257.5	9274
0	31885	258	9204
0	31969	258.5	9187
0	32024	259	9346
0	32067	259.5	9330
0	32100	260	9586
0	32101	260.001554079103	9585
0	32102	260.007893549842	9582
0	32103	260.008857156829	9582
0	32106	260.015198914067	9578
0	32109	260.016162521054	9578
0	32112	260.022507329185	9575
0	32115	260.023470936172	9574
0	32118	260.029818034146	9571
0	32121	260.030782404733	9571
0	32124	260.037131794464	9567
0	32135	260.068631904442	9551
0	32141	260.115223937936	9528
0	32147	260.135881472462	9517
0	32152	260.176128529331	9497
0	32157	260.223909144769	9473
0	32162	260.242204082094	9464
0	32169	260.347634928862	9410
0	32175	260.372719255037	9398
0	32181	260.4080500129	9380
0	32186	260.436436909587	9365
0	32189	260.443911549203	9362
0	32196	260.496125084968	9335
0	32197	260.5	9333
0	32247	261	9477
0	32275	261.5	8794
0	32308	262	8166
0	32337	262.5	8085
0	32374	263	9112
0	32404	263.5	8755
0	32597	264	8929
0	32626	264.5	8807
0	32730	265	9233
0	32773	265.5	9216
0	32875	266	9199
0	32930	266.5	8859
0	32985	267	9667
0	33065	267.5	8579
0	33094	268	9405
0	33120	268.5	9368
0	33155	269	9731
0	33186	269.5	8877
0	33226	270	9570
0	33253	270.5	9475
0	33299	271	8917
0	33332	271.5	8360
0	33363	272	8887
0	33599	272.5	9708
0	33710	273	9409
0	33767	273.5	9450
0	33810	274	9758
0	33813	274.029524368529	9831
0	33820	274.095676074268	9840
0	33825	274.120296767836	9823
0	33833	274.256739968072	9728
0	33840	274.300124552721	9698
0	33843	274.30734253581	9693
0	33851	274.365440966467	9653
0	33857	274.412412642337	9621
0	33862	274.468372551129	9582
0	33866	274.5	9560
0	33923	275	9214
0	33994	275.5	8869
0	34073	276	8523
0	34101	276.5	8438
0	34215	277	8296
0	34280	277.5	9600
0	34320	278	9652
0	34343	278.5	9703
0	34374	279	9755
0	34375	279	9755
0	34413	279.5	8671
0	34414	279.5	8671
0	34444	280	9116
0	34486	280.5	8654
0	34521	281	9124
0	34543	281.5	8605
0	34574	282	8896
0	34797	282.5	8475
0	34923	283	8547
0	34982	283.5	9157
0	35082	284	8041
0	35144	284.5	8214
0	35198	285	8476
0	35267	285.5	8738
0	35328	286	9000
0	35365	286.5	8559
0	35480	287	8480
0	35503	287.5	8754
0	35585	288	9164
0	35620	288.5	8161
0	35640	289	8367
0	35679	289.5	8683
0	35709	290	9008
0	35738	290.5	9333
0	35753	291	9314
0	35754	291	9314
0	35797	291.5	9422
0	35827	292	9179
0	35861	292.5	8936
0	36078	293	8694
0	36166	293.5	9872
0	36171	293.598019831779	9815
0	36177	293.657886438271	9810
0	36183	293.690110016418	9809
0	36188	293.708563297342	9808
0	36194	293.77208968836	9805
0	36199	293.80689237558	9804
0	36205	293.825376736817	9803
0	36210	293.832900879538	9802
0	36213	293.840042279252	9802
0	36220	293.882762701025	9800
0	36225	293.905506514676	9799
0	36230	293.917508623921	9799
0	36235	293.977361003885	9796
0	36240	293.99398279817	9795
0	36241	294	9795
0	36247	294.01003592451	9795
0	36254	294.069581836797	9792
0	36259	294.16839212395	9788
0	36264	294.179474985205	9787
0	36271	294.257691723664	9784
0	36277	294.274731096272	9783
0	36282	294.285517312898	9783
0	36286	294.292672582243	9782
0	36294	294.31014838455	9782
0	36299	294.35601190844	9780
0	36308	294.443246911781	9776
0	36313	294.456961651213	9775
0	36318	294.470943231915	9775
0	36322	294.5	9773
0	36325	294.577605958437	9770
0	36330	294.597749542937	9769
0	36336	294.642496474381	9767
0	36343	294.663505131455	9766
0	36348	294.676040905832	9766
0	36356	294.756773990104	9762
0	36361	294.763944651854	9762
0	36368	294.771115313604	9761
0	36371	294.778286709977	9761
0	36376	294.78545810635	9761
0	36379	294.792629502723	9760
0	36386	294.825359522579	9759
0	36392	294.865564806071	9757
0	36397	294.890865997214	9756
0	36402	294.90159058496	9756
0	36408	294.951694635174	9753
0	36417	295	8412
0	36486	295.5	9379
0	36531	296	8232
0	36578	296.5	8967
0	36607	297	8637
0	36703	297.5	9158
0	36730	298	9230
0	36854	298.5	8939
0	36882	299	9075
0	36914	299.5	9211
0	36939	300	9346
0	36988	300.5	9537
0	37019	301	9833
0	37050	301.5	8450
0	37051	301.5	8450
0	37088	302	8636
0	37114	302.5	8822
0	37147	303	8751
0	37371	303.5	9432
0	37488	304	8805
0	37562	304.5	8851
0	37629	305	9124
0	37689	305.5	8147
0	37772	306	9050
0	37842	306.5	9002
0	37889	307	9917
0	37911	307.5	9923
0	37912	307.502029208573	9923
0	37915	307.509083526824	9923
0	37918	307.51446505175	9923
0	37919	307.516137845075	9923
0	37922	307.521519370001	9923
0	37925	307.521700941764	9923
0	37928	307.523192163326	9923
0	37931	307.528573688252	9923
0	37934	307.528755260015	9923
0	37937	307.528941322401	9923
0	37953	307.548451236909	9924
0	37965	307.600872496369	9924
0	37978	307.650533555811	9925
0	37982	307.657586452536	9925
0	37991	307.730992906696	9926
0	38006	307.914305858223	9929
0	38014	308	9930
0	38054	308.5	9936
0	38094	309	9943
0	38096	309.003693027356	9943
0	38097	309.01073315609	9943
0	38100	309.017773284824	9943
0	38103	309.024813413558	9943
0	38106	309.031853542292	9943
0	38109	309.036956261799	9943
0	38110	309.038893671026	9943
0	38113	309.043996390533	9943
0	38118	309.04593379976	9943
0	38123	309.051036519267	9944
0	38126	309.052973928494	9944
0	38129	309.053386819095	9944
0	38130	309.058075940023	9944
0	38133	309.06001334925	9944
0	38136	309.060426239851	9944
0	38141	309.065115360779	9944
0	38144	309.067052770006	9944
0	38147	309.067465660607	9944
0	38152	309.072154781535	9944
0	38155	309.074092190762	9944
0	38158	309.074505081363	9944
0	38161	309.079194202291	9944
0	38164	309.081131611518	9944
0	38167	309.081544502119	9944
0	38170	309.086233623047	9944
0	38173	309.088171032274	9944
0	38176	309.088583922875	9944
0	38179	309.093273043803	9944
0	38182	309.09521045303	9944
0	38185	309.095623343631	9944
0	38188	309.100312464559	9944
0	38191	309.102249873786	9944
0	38194	309.102662764387	9944
0	38213	309.227984923818	9891
0	38218	309.250589394671	9844
0	38225	309.275241729609	9793
0	38234	309.322321070203	9695
0	38242	309.382107701685	9571
0	38247	309.414764121876	9503
0	38252	309.465035631558	9399
0	38257	309.5	9326
0	38284	310	8859
0	38385	310.5	9310
0	38418	311	9032
0	38454	311.5	8156
0	38496	312	8693
0	38527	312.5	9263
0	38685	313	9443
0	38711	313.5	9623
0	38712	313.5	9623
0	38743	314	9201
0	38744	314	9201
0	38794	314.5	8284
0	38926	315	8227
0	38977	315.5	8137
0	39058	316	8023
0	39129	316.5	8785
0	39154	317	8903
0	39243	317.5	9022
0	39287	318	9150
0	39355	318.5	8653
0	39395	319	8784
0	39434	319.5	9597
0	39464	320	9728
0	39503	320.5	8554
0	39504	320.5	8554
0	39527	321	9387
0	39566	321.5	9628
0	39597	322	8924
0	39632	322.5	9727
0	39670	323	9654
0	39671	323.007938308006	9653
0	39672	323.015189939623	9652
0	39677	323.022442322549	9651
0	39681	323.029695456939	9650
0	39684	323.036949342949	9649
0	39687	323.044203980735	9648
0	39691	323.051459370453	9648
0	39694	323.058714760171	9647
0	39698	323.065970901977	9646
0	39703	323.073227796026	9645
0	39707	323.080485442475	9644
0	39712	323.08774384148	9643
0	39715	323.095002993196	9642
0	39718	323.10226289778	9641
0	39721	323.109523555388	9640
0	39724	323.116784966176	9639
0	39727	323.124047130301	9638
0	39730	323.131310047919	9638
0	39733	323.138572965537	9637
0	39737	323.145836636804	9636
0	39740	323.153101061877	9635
0	39743	323.160366240912	9634
0	39747	323.167632174065	9633
0	39751	323.174898861494	9632
0	39755	323.182166303354	9604
0	39758	323.189454933092	9496
0	39761	323.196826457945	9387
0	39764	323.204283579496	9277
0	39767	323.211829122236	9165
0	39770	323.219466874555	9052
0	39773	323.227199972213	8938
0	39777	323.235031701906	8935
0	39780	323.242866061167	8935
0	39783	323.250700420428	8936
0	39788	323.258533902971	8936
0	39791	323.266367385514	8936
0	39794	323.274200868057	8937
0	39797	323.282033474077	8937
0	39802	323.289866080097	8938
0	39805	323.29769780979	8938
0	39809	323.305529539483	8938
0	39812	323.313361269176	8939
0	39815	323.321192122739	8939
0	39818	323.329022976302	8940
0	39824	323.336852953931	8940
0	39827	323.34468293156	8940
0	39830	323.352512909189	8941
0	39834	323.360342011079	8941
0	39837	323.368171112969	8942
0	39840	323.375999339317	8942
0	39843	323.383827565665	8942
0	39846	323.391655792013	8943
0	39851	323.399483143014	8943
0	39856	323.407310494015	8944
0	39859	323.415136969865	8944
0	39862	323.422963445715	8944
0	39865	323.430789921565	8945
0	39868	323.438615522459	8945
0	39872	323.446441123353	8946
0	39875	323.454265849488	8946
0	39880	323.462090575623	8946
0	39886	323.469915301758	8947
0	39889	323.477739153328	8947
0	39892	323.485563004898	8947
0	39899	323.493386856468	8948
0	39904	323.5	8948
0	40079	324	8973
0	40124	324.5	8939
0	40237	325	8797
0	40284	325.5	8655
0	40360	326	8513
0	40402	326.5	8748
0	40466	327	9252
0	40508	327.5	9272
0	40665	328	9139
0	40706	328.5	9006
0	40833	329	8872
0	40868	329.5	8725
0	40888	330	8409
0	40928	330.5	8785
0	41064	331	9161
0	41095	331.5	8223
0	41123	332	8258
0	41157	332.5	8292
0	41191	333	8327
0	41219	333.5	8662
0	41376	334	9151
0	41451	334.5	9640
0	41486	335	9162
0	41487	335	9162
0	41527	335.5	9264
0	41649	336	9248
0	41683	336.5	8731
0	41745	337	9438
0	41800	337.5	8807
0	41834	338	8986
0	41860	338.5	9317
0	41895	339	9287
0	42057	339.5	9177
0	42087	340	8522
0	42115	340.5	8344
0	42146	341	8319
0	42181	341.5	8370
0	42207	342	8532
0	42398	342.5	8547
0	42453	343	8563
0	42498	343.5	8385
0	42520	344	8254
0	42609	344.5	8666
0	42659	345	9079
0	42735	345.5	9491
0	42780	346	9899
0	42815	346.5	9366
0	42816	346.507378836454	9358
0	42820	346.514859067273	9349
0	42824	346.522346499084	9336
0	42827	346.529844356839	9320
0	42830	346.537355086453	9303
0	42833	346.54487954093	9287
0	42836	346.552416958826	9271
0	42839	346.559967384886	9255
0	42843	346.567530864086	9238
0	42846	346.575108261791	9222
0	42849	346.582698806141	9206
0	42852	346.590302542834	9189
0	42855	346.59792034673	9173
0	42862	346.605689802246	9156
0	42872	346.704046722899	8944
0	42881	346.726742002803	8919
0	42888	346.773485722959	8892
0	42896	346.802411954996	8874
0	42904	346.944505125237	8790
0	42911	347	8757
0	42947	347.5	9108
0	43038	348	9165
0	43069	348.5	8699
0	43104	349	8234
0	43150	349.5	8088
0	43304	350	8170
0	43330	350.5	8253
0	43371	351	9470
0	43407	351.5	8402
0	43453	352	9507
0	43502	352.5	8097
0	43733	353	8706
0	43797	353.5	9372
0	43824	354	9564
0	43854	354.5	8412
0	43949	355	8753
0	44009	355.5	9485
0	44053	356	9028
0	44110	356.5	8533
0	44137	357	9213
0	44173	357.5	9893
0	44211	358	8512
0	44339	358.5	8901
0	44376	359	9290
0	44397	359.5	9170
0	44434	360	8084
0	44477	360.5	9227
0	44532	361	8160
0	44762	361.5	8659
0	44841	362	8417
0	44880	362.5	8176
0	44921	363	8998
0	45043	363.5	9152
0	45091	364	9306
0	45150	364.5	9459
0	45212	365	9613
0	45246	365.5	9001
0	45247	365.5	9001
0	45290	366	8969
0	45323	366.5	9350
0	45326	366.507332146224	9359
0	45327	366.514811577787	9368
0	45330	366.522283823731	9377
0	45335	366.529748897849	9387
0	45338	366.5372060194	9396
0	45341	366.544655998114	9405
0	45344	366.552098847662	9414
0	45347	366.559534581675	9423
0	45352	366.566963213745	9432
0	45355	366.574384757426	9441
0	45358	366.581799226232	9450
0	45361	366.589206633639	9459
0	45366	366.596606993085	9468
0	45369	366.604000317969	9478
0	45374	366.611385842341	9487
0	45377	366.618764360313	9496
0	45380	366.626135885166	9505
0	45383	366.633500430142	9514
0	45386	366.640858008448	9523
0	45389	366.648208633251	9532
0	45392	366.655552317682	9541
0	45395	366.662889074835	9550
0	45399	366.670218917767	9559
0	45402	366.677541859497	9568
0	45405	366.684857913009	9577
0	45410	366.692167091249	9586
0	45415	366.699469407126	9594
0	45418	366.706765633934	9603
0	45421	366.714055022667	9612
0	45424	366.721337586129	9621
0	45427	366.72861333709	9630
0	45432	366.735882288284	9639
0	45435	366.743144452409	9648
0	45438	366.750399842127	9657
0	45441	366.757648470065	9666
0	45444	366.764890348815	9675
0	45447	366.772125490934	9683
0	45450	366.779354655449	9692
0	45453	366.786577106955	9701
0	45456	366.793792857909	9710
0	45466	366.898889057436	9687
0	45472	366.941572498235	9574
0	45477	367	9420
0	45506	367.5	8808
0	45507	367.5	8808
0	45531	368	8920
0	45562	368.5	8285
0	45611	369	8379
0	45647	369.5	8196
0	45848	370	9053
0	45922	370.5	8778
0	45956	371	8502
0	45991	371.5	9044
0	46113	372	8661
0	46179	372.5	8509
0	46230	373	8451
0	46293	373.5	8403
0	46326	374	8356
0	46357	374.5	9552
0	46358	374.506290428085	9565
0	46361	374.513608776229	9581
0	46364	374.520914902938	9596
0	46367	374.528209609066	9611
0	46370	374.53549293026	9626
0	46373	374.542764902003	9641
0	46376	374.550025559611	9656
0	46379	374.557274938236	9672
0	46382	374.564512324506	9687
0	46386	374.571738503922	9702
0	46390	374.578953511137	9717
0	46393	374.586157380644	9732
0	46396	374.593350146776	9747
0	46402	374.600531843708	9750
0	46407	374.607711330887	9750
0	46410	374.614890818066	9750
0	46413	374.622070305245	9750
0	46416	374.629249792424	9751
0	46419	374.636428543321	9751
0	46422	374.643607294218	9751
0	46425	374.650786045115	9751
0	46428	374.657964796012	9751
0	46433	374.665143546909	9752
0	46437	374.672321561675	9752
0	46445	374.706936913524	9753
0	46450	374.780403783655	9755
0	46455	374.8163927837	9756
0	46460	374.848195524175	9757
0	46467	374.899372787737	9759
0	46473	375	9762
0	46476	375.025780295999	9763
0	46481	375.048547531434	9763
0	46484	375.05571745871	9764
0	46492	375.130137583274	9766
0	46495	375.137305308033	9766
0	46503	375.164212969989	9767
0	46508	375.187794604551	9768
0	46514	375.212385810955	9767
0	46518	375.219552801843	9757
0	46526	375.266059016809	9695
0	46530	375.273279233415	9686
0	46542	375.361078734135	9568
0	46549	375.402914911885	9512
0	46552	375.4102740372	9502
0	46560	375.41967947434	9490
0	46565	375.448442870397	9451
0	46571	375.497689447588	9385
0	46573	375.5	9382
0	46603	376	8712
0	46636	376.5	9443
0	46671	377	8790
0	46704	377.5	8360
0	46737	378	9448
0	46966	378.5	9133
0	47017	379	8339
0	47046	379.5	8725
0	47196	380	8990
0	47252	380.5	9220
0	47307	381	9449
0	47311	381.048497002034	9448
0	47317	381.123262568724	9383
0	47322	381.168459019255	9343
0	47325	381.175951259435	9337
0	47335	381.280889374355	9245
0	47340	381.334059062892	9198
0	47345	381.352366432451	9182
0	47349	381.359990043865	9176
0	47357	381.445946030078	9101
0	47360	381.453637492555	9094
0	47367	381.5	9053
0	47429	382	8617
0	47451	382.5	8180
0	47476	383	8410
0	47542	383.5	8327
0	47575	384	8244
0	47615	384.5	8161
0	47646	385	8078
0	47681	385.5	8025
0	47717	386	8843
0	47749	386.5	9178
0	47966	387	8982
0	47995	387.5	8707
0	48030	388	8928
0	48139	388.5	9013
0	48213	389	8657
0	48275	389.5	8220
0	48346	390	8227
0	48399	390.5	8673
0	48424	391	9118
0	48460	391.5	9690
0	48595	392	8720
0	48638	392.5	8409
0	48677	393	8665
0	48724	393.5	9163
0	48760	394	9660
0	48789	394.5	9186
0	48821	395	8727
0	49059	395.5	9121
0	49091	396	9515
0	49127	396.5	9675
0	49300	397	8838
0	49377	397.5	8157
0	49449	398	9203
0	49509	398.5	9709
0	49589	399	9587
0	49626	399.5	9465
0	49723	400	8283
1	1228	10	8446
1	1292	10.5	8404
1	1343	11	9394
1	1383	11.5	8937
1	1442	12	8480
1	1486	12.5	8974
1	1533	13	8873
1	1580	13.5	8579
1	1618	14	8511
1	1653	14.5	8941
1	1691	15	9258
1	1717	15.5	9481
1	1753	16	9092
1	2013	16.5	8411
1	2045	17	9005
1	2130	17.5	8654
1	2213	18	9280
1	2284	18.5	9839
1	2287	18.542598202087	9817
1	2292	18.556181605604	9810
1	2300	18.800138250004	9688
1	2308	18.9362056628	9619
1	2313	18.951754053048	9611
1	2319	18.999345538425	9587
1	2320	19	9587
1	2365	19.5	9335
1	2442	20	9438
1	2473	20.5	9906
1	2474	20.500806033681	9906
1	2475	20.50787245807	9913
1	2478	20.51493389255	9920
1	2484	20.521990344163	9800
1	2487	20.529133201306	9628
1	2490	20.536403662461	9454
1	2493	20.543807935784	9276
1	2496	20.551354291972	9094
1	2500	20.559051674862	9046
1	2503	20.566789901703	9021
1	2506	20.57454957358	8996
1	2509	20.582330809685	8971
1	2512	20.590133730207	8945
1	2524	20.70662035734	8732
1	2529	20.730341171857	8760
1	2536	20.778413150436	8817
1	2541	20.788311537203	8829
1	2547	20.827410323247	8875
1	2550	20.835297647191	8884
1	2559	20.925077747757	8990
1	2563	20.932864177123	8999
1	2572	20.996655217526	9074
1	2574	21	9078
1	2604	21.5	9668
1	2639	22	9884
1	2640	22	9884
1	2668	22.5	9891
1	2669	22.5	9891
1	2707	23	9898
1	2710	23.006647092613	9898
1	2711	23.013719228398	9898
1	2714	23.020791364183	9898
1	2719	23.027863499968	9898
1	2722	23.034935635753	9898
1	2725	23.042007771538	9898
1	2728	23.049079907323	9898
1	2731	23.056152043108	9898
1	2734	23.063224178893	9898
1	2737	23.063292077299	9898
1	2738	23.070296314678	9899
1	2741	23.070364213084	9899
1	2744	23.077367736034	9899
1	2747	23.07743563444	9899
1	2750	23.08443915739	9899
1	2753	23.084507055796	9899
1	2756	23.091510578746	9899
1	2759	23.091578477152	9899
1	2762	23.098582000102	9899
1	2765	23.098649898508	9899
1	2768	23.101645336565	9899
1	2769	23.105653421458	9899
1	2772	23.105721319864	9899
1	2775	23.108716757921	9899
1	2778	23.112724842814	9899
1	2781	23.11279274122	9899
1	2784	23.115788179277	9899
1	2787	23.11979626417	9899
1	2790	23.119864162576	9899
1	2793	23.122859600633	9899
1	2797	23.126867685526	9899
1	2800	23.126935583932	9899
1	2804	23.129931021989	9899
1	2807	23.133939106882	9899
1	2810	23.134007005288	9899
1	2823	23.153284896301	9900
1	2828	23.183737126936	9900
1	2836	23.241892791107	9901
1	2843	23.274917945094	9901
1	2848	23.287053869778	9902
1	2855	23.364787016668	9903
1	2862	23.5	9904
1	2893	24	8505
1	2936	24.5	9123
1	2982	25	8300
1	3167	25.5	8347
1	3230	26	8376
1	3305	26.5	8470
1	3360	27	8739
1	3388	27.5	9007
1	3413	28	9275
1	3414	28.007824726135	9280
1	3415	28.015367829583	9284
1	3418	28.022907683094	9288
1	3421	28.030444289468	9292
1	3424	28.0379776515	9296
1	3427	28.045507771982	9300
1	3430	28.053034653702	9304
1	3433	28.060558299446	9308
1	3437	28.068078711994	9312
1	3440	28.075595894125	9316
1	3443	28.083109848612	9320
1	3446	28.090620578226	9324
1	3451	28.098128085734	9328
1	3458	28.136056095798	9348
1	3463	28.198917945577	9382
1	3469	28.27919088373	9425
1	3474	28.312483008062	9443
1	3481	28.36225619023	9470
1	3487	28.423900213382	9503
1	3493	28.5	9544
1	3496	28.527588286537	9559
1	3502	28.562060013429	9577
1	3507	28.579397678618	9586
1	3516	28.672469260767	9675
1	3527	28.766974345672	9618
1	3532	28.777779156502	9608
1	3538	28.825879752832	9562
1	3546	28.900091876965	9491
1	3549	28.907467285247	9484
1	3559	29	9395
1	3587	29.5	8916
1	3618	30	8850
1	3656	30.5	8462
1	3680	31	8943
1	3718	31.5	9191
1	3914	32	9396
1	3955	32.5	9095
1	3996	33	9259
1	4033	33.5	9153
1	4216	34	8941
1	4292	34.5	8936
1	4357	35	8993
1	4439	35.5	9051
1	4475	36	8988
1	4508	36.5	9652
1	4638	37	8841
1	4705	37.5	9016
1	4737	38	8212
1	4771	38.5	9307
1	4802	39	9582
1	4837	39.5	8645
1	4880	40	8853
1	5046	40.5	9553
1	5088	41	9123
1	5132	41.5	9227
1	5153	42	9324
1	5310	42.5	9439
1	5384	43	9554
1	5451	43.5	8820
1	5499	44	9391
1	5527	44.5	9222
1	5549	45	9843
1	5552	45.007441267141	9841
1	5553	45.014554365403	9839
1	5556	45.021668909564	9838
1	5559	45.028784176895	9836
1	5562	45.035900891006	9835
1	5565	45.043018328728	9833
1	5568	45.050137214114	9831
1	5571	45.057257547752	9830
1	5576	45.064378605738	9828
1	5579	45.071501112861	9827
1	5582	45.078624344773	9825
1	5585	45.085749026707	9823
1	5588	45.092875159253	9822
1	5591	45.100002017327	9820
1	5594	45.107130326899	9819
1	5602	45.178136666616	9803
1	5608	45.29182202495	9777
1	5613	45.309410394221	9774
1	5616	45.316572252212	9772
1	5629	45.5	9731
1	5695	46	9612
1	5736	46.5	9487
1	5770	47	8182
1	5806	47.5	9800
1	5836	48	8647
1	5865	48.5	8279
1	6074	49	8318
1	6094	49.5	8214
1	6125	50	8110
1	6234	50.5	9030
1	6303	51	9752
1	6362	51.5	9524
1	6428	52	9299
1	6490	52.5	9074
1	6531	53	8722
1	6578	53.5	9495
1	6579	53.507719453022	9493
1	6580	53.515093307441	9492
1	6583	53.522467938709	9491
1	6589	53.529843346991	9490
1	6592	53.537219532449	9489
1	6595	53.544596495248	9488
1	6599	53.551974235552	9487
1	6602	53.559352753524	9485
1	6605	53.566732827325	9484
1	6608	53.574113679286	9483
1	6611	53.581495309572	9482
1	6614	53.588877718347	9481
1	6617	53.596260905774	9480
1	6620	53.603644872019	9478
1	6623	53.611030396391	9477
1	6626	53.618416700074	9476
1	6629	53.625803783231	9475
1	6632	53.633191646028	9474
1	6637	53.640580288629	9473
1	6642	53.647969711198	9471
1	6646	53.655360694199	9470
1	6649	53.662752457663	9469
1	6652	53.670145001754	9468
1	6655	53.677538326638	9467
1	6659	53.684932432479	9466
1	6662	53.692327319443	9465
1	6665	53.699722987694	9463
1	6670	53.707120219016	9462
1	6676	53.714518232121	9461
1	6681	53.721917027174	9460
1	6684	53.729316604341	9459
1	6687	53.736716963787	9458
1	6690	53.744118105677	9456
1	6698	53.760229237552	9454
1	6703	53.777337972133	9451
1	6711	53.836754430147	9442
1	6717	53.875480269544	9436
1	6723	53.931210819694	9427
1	6730	53.99560533165	9417
1	6732	54	9416
1	6763	54.5	9338
1	6842	55	9302
1	6845	55.02643366705	9304
1	6851	55.055484099823	9306
1	6857	55.139498219827	9313
1	6865	55.197271956264	9318
1	6872	55.23291978022	9321
1	6881	55.285211044859	9325
1	6887	55.305531688196	9327
1	6890	55.313036780938	9327
1	6899	55.385241106289	9333
1	6909	55.5	9343
1	6937	56	9383
1	6970	56.5	9424
1	6995	57	9465
1	6996	57.007723711795	9465
1	6997	57.015119380046	9466
1	7000	57.02251426701	9467
1	7003	57.029908372851	9467
1	7006	57.037302478692	9468
1	7011	57.044695803576	9468
1	7014	57.05208912846	9469
1	7017	57.059481672551	9470
1	7020	57.066873436015	9470
1	7023	57.074265199479	9471
1	7026	57.08165618248	9471
1	7031	57.089047165481	9472
1	7034	57.096437368184	9473
1	7037	57.103826790753	9473
1	7040	57.111216213322	9474
1	7043	57.118604855923	9474
1	7048	57.125993498524	9475
1	7051	57.133381361321	9476
1	7054	57.140768444478	9476
1	7059	57.148155527635	9477
1	7062	57.155541831318	9477
1	7065	57.162928135001	9478
1	7068	57.170313659373	9479
1	7071	57.177698404599	9479
1	7074	57.185083149825	9480
1	7077	57.19246711607	9480
1	7080	57.199851082315	9481
1	7088	57.273026306064	9487
1	7096	57.312084745563	9490
1	7101	57.351061497005	9493
1	7104	57.358435351424	9494
1	7111	57.485902060742	9504
1	7116	57.5	9505
1	7146	58	9546
1	7237	58.5	8695
1	7275	59	9524
1	7308	59.5	8856
1	7309	59.5	8856
1	7346	60	9098
1	7499	60.5	9335
1	7556	61	8655
1	7597	61.5	8152
1	7631	62	8152
1	7665	62.5	9388
1	7685	63	9542
1	7835	63.5	9111
1	7874	64	9274
1	7922	64.5	8763
1	7950	65	8253
1	7976	65.5	8614
1	8110	66	9113
1	8194	66.5	8427
1	8252	67	8968
1	8281	67.5	8629
1	8330	68	9182
1	8459	68.5	9548
1	8535	69	9777
1	8542	69.017156375438	9785
1	8548	69.079731823286	9814
1	8551	69.086864490904	9817
1	8560	69.122480809133	8957
1	8566	69.189309229999	8439
1	8572	69.214822187517	8241
1	8575	69.223316302309	8176
1	8583	69.258479486716	8336
1	8588	69.305088823744	8552
1	8591	69.313274043576	8590
1	8598	69.370280907047	8853
1	8604	69.425063400559	9106
1	8611	69.475427034978	9339
1	8614	69.48292248417	9374
1	8622	69.5	9453
1	8646	70	9111
1	8724	70.5	9085
1	8753	71	8727
1	8810	71.5	8288
1	8950	72	8057
1	8989	72.5	8377
1	9023	73	9749
1	9024	73.004959092887	9763
1	9025	73.012129020163	9782
1	9028	73.019285020981	9802
1	9031	73.024310182285	9816
1	9032	73.026426420695	9821
1	9035	73.031441396629	9835
1	9038	73.033554004444	9841
1	9041	73.038558834351	9855
1	9044	73.040667102706	9861
1	9047	73.045661827755	9874
1	9051	73.04776577424	9863
1	9056	73.052751153256	9780
1	9059	73.054863006319	9746
1	9062	73.059908617469	9662
1	9065	73.062045440138	9627
1	9068	73.067153494306	9543
1	9071	73.069316656509	9507
1	9074	73.074488713839	9422
1	9077	73.076679652196	9386
1	9080	73.081918134344	9300
1	9083	73.084137568241	9263
1	9086	73.086864490904	9218
1	9087	73.089445016064	9175
1	9090	73.091694515234	9138
1	9104	73.10999979316	8837
1	9109	73.120703902893	8660
1	9127	73.339203890464	8181
1	9138	73.464311789591	8288
1	9146	73.5	8319
1	9191	74	8746
1	9231	74.5	8929
1	9259	75	8704
1	9409	75.5	8478
1	9438	76	8473
1	9470	76.5	9268
1	9590	77	8237
1	9613	77.5	8659
1	9645	78	9120
1	9747	78.5	9128
1	9811	79	8520
1	9844	79.5	9158
1	9884	80	9693
1	9885	80.007603736693	9695
1	9886	80.014823953299	9697
1	9889	80.02204268074	9699
1	9892	80.029259919631	9701
1	9897	80.036475670585	9703
1	9902	80.043689934215	9704
1	9905	80.050903454413	9706
1	9908	80.058115488207	9708
1	9911	80.065326036209	9710
1	9914	80.072535099031	9712
1	9917	80.079742677285	9714
1	9920	80.086948771582	9716
1	9923	80.094153382533	9718
1	9926	80.101356510749	9720
1	9930	80.10855815684	9721
1	9935	80.115759062097	9723
1	9938	80.122958486143	9725
1	9941	80.130156429588	9727
1	9944	80.13735289304	9729
1	9947	80.144547877108	9731
1	9950	80.1517413824	9733
1	9953	80.158933409524	9735
1	9957	80.166123959087	9736
1	9960	80.173313770098	9738
1	9963	80.180502104458	9740
1	9972	80.296774530387	9771
1	9977	80.34398159299	9783
1	9984	80.478808335686	9818
1	9987	80.485938097348	9820
1	9994	80.5	9824
1	10028	81	9134
1	10029	81	9134
1	10060	81.5	8092
1	10181	82	9704
1	10232	82.5	9308
1	10386	83	8129
1	10428	83.5	8528
1	10532	84	9121
1	10573	84.5	8865
1	10610	85	9586
1	10611	85.007663674184	9590
1	10612	85.014962944257	9594
1	10615	85.022259171065	9598
1	10618	85.029552357145	9602
1	10621	85.036842505031	9606
1	10624	85.044129617253	9610
1	10627	85.051413696337	9614
1	10632	85.058694744808	9618
1	10637	85.065972765186	9622
1	10641	85.07324775999	9626
1	10644	85.080519731733	9630
1	10647	85.087788682927	9634
1	10650	85.09505461608	9638
1	10653	85.102317533698	9642
1	10657	85.109577438282	9646
1	10660	85.116834332331	9650
1	10665	85.124088218341	9653
1	10668	85.131339849958	9657
1	10671	85.138588477896	9661
1	10675	85.145834104643	9665
1	10678	85.153076732682	9669
1	10681	85.160316364495	9673
1	10692	85.243866233264	9718
1	10699	85.310699285202	9755
1	10708	85.413603844085	9254
1	10711	85.421168140605	9188
1	10716	85.428786773605	9123
1	10724	85.481615333857	9054
1	10729	85.5	9064
1	10752	86	9320
1	10841	86.5	9576
1	10876	87	8973
1	10909	87.5	8692
1	10943	88	9245
1	10976	88.5	9603
1	11146	89	8461
1	11172	89.5	9526
1	11208	90	8932
1	11242	90.5	9350
1	11380	91	9161
1	11444	91.5	8927
1	11514	92	9838
1	11523	92.190503987188	9110
1	11532	92.261313661213	9090
1	11537	92.303983195524	9235
1	11542	92.322868880801	9299
1	11550	92.467843813485	9746
1	11556	92.5	9723
1	11589	93	9370
1	11618	93.5	9016
1	11749	94	8663
1	11798	94.5	9081
1	11830	95	9002
1	11865	95.5	9075
1	11888	96	9198
1	11923	96.5	9322
1	11960	97	9445
1	11963	97.007453945267	9447
1	11965	97.014863704979	9449
1	11970	97.022271896322	9450
1	11973	97.029679303729	9452
1	11976	97.037085143763	9454
1	11979	97.044489417086	9456
1	11982	97.051892124362	9458
1	11985	97.059293266252	9460
1	11988	97.066692843419	9461
1	11991	97.074091638472	9463
1	11994	97.081488869794	9465
1	11997	97.088884538045	9467
1	12001	97.096278643886	9469
1	12004	97.103671187977	9471
1	12007	97.111062170978	9472
1	12010	97.118452373681	9474
1	12015	97.125841016282	9476
1	12018	97.133228099439	9478
1	12021	97.140613623811	9480
1	12024	97.147997590056	9481
1	12028	97.155380777483	9483
1	12031	97.162762407769	9485
1	12035	97.17014248157	9487
1	12038	97.177520999542	9489
1	12041	97.184897962341	9491
1	12046	97.192273370623	9492
1	12050	97.199648001891	9494
1	12053	97.207021079624	9496
1	12056	97.214392604477	9498
1	12060	97.221762577103	9500
1	12066	97.229130998156	9501
1	12070	97.236498643667	9503
1	12073	97.243864738584	9505
1	12076	97.25122928356	9507
1	12082	97.258592279247	9509
1	12085	97.265953726297	9511
1	12088	97.273313625361	9512
1	12091	97.280672750676	9514
1	12094	97.288030328982	9516
1	12097	97.295386360928	9518
1	12100	97.302740847165	9520
1	12103	97.310093788341	9521
1	12106	97.317445957231	9523
1	12113	97.324796582034	9525
1	12120	97.332145663399	9526
1	12123	97.339493973288	9527
1	12128	97.346841511863	9529
1	12131	97.354187508295	9530
1	12134	97.361532733898	9531
1	12137	97.368877188835	9533
1	12140	97.376220102923	9534
1	12143	97.383562246829	9535
1	12146	97.390903620715	9537
1	12150	97.398243455044	9538
1	12153	97.405582519837	9539
1	12156	97.412920815256	9541
1	12163	97.451372950128	9547
1	12169	97.5	9556
1	12190	98	9645
1	12191	98	9645
1	12209	98.5	9734
1	12210	98.5	9734
1	12246	99	8419
1	12359	99.5	8731
1	12421	100	8976
1	12511	100.5	9257
1	12571	101	9537
1	12611	101.5	9817
1	12645	102	9504
1	12773	102.5	9191
1	12838	103	8836
1	12865	103.5	9348
1	12963	104	8737
1	13035	104.5	9168
1	13072	105	9119
1	13107	105.5	8540
1	13268	106	8847
1	13304	106.5	9436
1	13347	107	9567
1	13377	107.5	9149
1	13406	108	8850
1	13440	108.5	8776
1	13453	109	8702
1	13653	109.5	8629
1	13680	110	8712
1	13773	110.5	9461
1	13836	111	8804
1	13869	111.5	8577
1	13920	112	9453
1	13997	112.5	8918
1	14052	113	9639
1	14076	113.5	9505
1	14077	113.5	9505
1	14097	114	9371
1	14138	114.5	9050
1	14169	115	8738
1	14203	115.5	8426
1	14259	116	8922
1	14291	116.5	9515
1	14313	117	8843
1	14348	117.5	9697
1	14590	118	8687
1	14709	118.5	9774
1	14763	119	8199
1	14810	119.5	8100
1	14862	120	9139
1	14911	120.5	8959
1	14972	121	8684
1	15045	121.5	9528
1	15067	122	9184
1	15188	122.5	8300
1	15220	123	8825
1	15244	123.5	9446
1	15262	124	9634
1	15291	124.5	9612
1	15292	124.5	9612
1	15342	125	9330
1	15343	125	9330
1	15387	125.5	9037
1	15423	126	9428
1	15452	126.5	8963
1	15472	127	8643
1	15698	127.5	8503
1	15813	128	9626
1	15819	128.104974407191	9709
1	15824	128.135772160281	9678
1	15829	128.17043165986	9644
1	15834	128.213051672628	9601
1	15846	128.496388450456	9320
1	15847	128.5	9316
1	15875	129	8819
1	15925	129.5	8651
1	15988	130	8870
1	16072	130.5	9089
1	16117	131	9307
1	16164	131.5	9337
1	16288	132	9048
1	16311	132.5	8724
1	16380	133	9309
1	16406	133.5	9544
1	16444	134	9780
1	16445	134	9780
1	16470	134.5	9087
1	16471	134.5	9087
1	16506	135	8142
1	16535	135.5	8672
1	16572	136	9937
1	16612	136.5	8639
1	16613	136.5	8639
1	16662	137	8927
1	16699	137.5	8169
1	16928	138	8325
1	17094	138.5	8480
1	17148	139	9249
1	17186	139.5	9701
1	17235	140	9586
1	17287	140.5	9470
1	17371	141	9354
1	17450	141.5	9239
1	17482	142	8850
1	17596	142.5	8621
1	17628	143	8787
1	17655	143.5	8953
1	17687	144	9119
1	17730	144.5	9169
1	17754	145	8452
1	17792	145.5	8917
1	17824	146	8492
1	17860	146.5	8304
1	17891	147	9268
1	18135	147.5	9589
1	18248	148	9237
1	18302	148.5	8304
1	18370	149	9684
1	18429	149.5	9891
1	18433	149.588777143098	9876
1	18439	149.673814595404	9861
1	18446	149.751613084112	9826
1	18452	149.824890136524	8812
1	18459	149.842929892156	8562
1	18466	149.899573771821	8355
1	18471	149.951331280738	8408
1	18476	149.970602191723	8428
1	18480	150	8458
1	18535	150.5	8971
1	18626	151	9489
1	18661	151.5	9782
1	18662	151.50613883304	9781
1	18663	151.51329556548	9780
1	18666	151.514750271949	9779
1	18669	151.520453029693	9779
1	18672	151.521908468084	9778
1	18675	151.521974959739	9778
1	18676	151.527611225828	9778
1	18679	151.52906739629	9777
1	18682	151.529133887945	9777
1	18685	151.529202631396	9777
1	18689	151.534770154034	9777
1	18692	151.536227056718	9776
1	18695	151.536293548373	9776
1	18698	151.536362291824	9776
1	18732	151.699985123835	9753
1	18740	151.750497036805	9746
1	18747	151.788407385324	9741
1	18753	151.821357019979	9736
1	18759	151.90234873868	9724
1	18772	152	9716
1	18798	152.5	9426
1	18875	153	9001
1	18912	153.5	8772
1	18945	154	9145
1	18978	154.5	9158
1	19130	155	9044
1	19169	155.5	8933
1	19198	156	8843
1	19227	156.5	8752
1	19258	157	8692
1	19289	157.5	9567
1	19449	158	8832
1	19537	158.5	8828
1	19566	159	8817
1	19590	159.5	8806
1	19681	160	8823
1	19730	160.5	8988
1	19813	161	9220
1	19906	161.5	9191
1	19938	162	8772
1	19968	162.5	9860
1	20003	163	9739
1	20004	163.007617803896	9734
1	20006	163.014809092164	9730
1	20009	163.022003336768	9725
1	20012	163.029201280213	9721
1	20015	163.03640218547	9716
1	20018	163.043606796421	9712
1	20021	163.050814374675	9707
1	20024	163.058025665496	9703
1	20027	163.065239929126	9698
1	20030	163.072457912215	9694
1	20033	163.079678873634	9689
1	20036	163.086903561424	9685
1	20039	163.094131233081	9680
1	20043	163.10136263804	9676
1	20046	163.108597032418	9671
1	20049	163.115835167047	9667
1	20052	163.123076296663	9662
1	20055	163.1303211735	9658
1	20060	163.137569050907	9653
1	20063	163.144820682524	9649
1	20067	163.15207532031	9644
1	20070	163.159333719315	9640
1	20073	163.166595130103	9635
1	20076	163.173860309138	9631
1	20083	163.18351548317	9625
1	20086	163.190788210443	9620
1	20093	163.218309646595	9603
1	20101	163.285730142501	9561
1	20108	163.340122890621	9527
1	20114	163.42614561056	9474
1	20119	163.433865062611	9469
1	20124	163.457209848036	9454
1	20129	163.478247959406	9441
1	20134	163.489208776614	9434
1	20139	163.5	9428
1	20180	164	9252
1	20211	164.5	9256
1	20246	165	9766
1	20406	165.5	8632
1	20447	166	9628
1	20553	166.5	9217
1	20601	167	9067
1	20628	167.5	9067
1	20671	168	9157
1	20797	168.5	9838
1	20801	168.517136753762	9861
1	20808	168.597566149968	9914
1	20811	168.604626872179	9910
1	20820	168.765007833572	9817
1	20827	168.938195639259	9466
1	20833	169	9329
1	20861	169.5	8845
1	20895	170	8815
1	20924	170.5	8780
1	20964	171	9100
1	20999	171.5	8883
1	21178	172	9134
1	21204	172.5	9197
1	21256	173	8538
1	21294	173.5	8955
1	21444	174	9426
1	21518	174.5	8426
1	21586	175	8863
1	21645	175.5	8795
1	21684	176	8463
1	21713	176.5	8721
1	21845	177	8746
1	21954	177.5	8899
1	21987	178	9171
1	22028	178.5	8912
1	22072	179	9154
1	22112	179.5	8959
1	22144	180	8837
1	22368	180.5	8714
1	22411	181	8592
1	22439	181.5	8603
1	22467	182	9745
1	22470	182.007327541087	9736
1	22471	182.014517352098	9727
1	22474	182.02171381555	9718
1	22479	182.028916943766	9709
1	22482	182.036126749101	9701
1	22485	182.043342500055	9692
1	22488	182.050564951561	9683
1	22491	182.057794116076	9674
1	22494	182.06503000609	9665
1	22500	182.072272634129	9639
1	22504	182.079534798254	9611
1	22509	182.086818119448	9582
1	22512	182.094123483673	9553
1	22517	182.10145102476	9524
1	22520	182.108800877763	9495
1	22524	182.116173178974	9466
1	22527	182.123568065938	9437
1	22530	182.130985677467	9408
1	22534	182.138426153657	9378
1	22537	182.145890431755	9349
1	22540	182.153377863566	9319
1	22543	182.160889399138	9290
1	22546	182.168424382992	9260
1	22549	182.17598377824	9230
1	22552	182.18356774357	9200
1	22557	182.191176439222	9170
1	22560	182.198810027008	9140
1	22563	182.206468670334	9110
1	22566	182.21415253422	9080
1	22569	182.221861785321	9049
1	22577	182.264366176253	8941
1	22581	182.272195278143	8947
1	22586	182.280019129713	8953
1	22594	182.35297330296	9010
1	22602	182.444607594108	9081
1	22607	182.497398419207	9122
1	22608	182.5	9124
1	22662	183	9780
1	22666	183.080254245634	9639
1	22674	183.197938858663	9433
1	22680	183.282032547435	9286
1	22686	183.351092376639	9165
1	22694	183.452753595931	9083
1	22699	183.493930164646	9116
1	22702	183.5	9121
1	22757	184	9525
1	22793	184.5	9707
1	22818	185	9812
1	22819	185.00740114189	9806
1	22820	185.014539628531	9800
1	22823	185.021682485674	9794
1	22826	185.028829718674	9788
1	22829	185.035981332895	9782
1	22832	185.043137333713	9776
1	22835	185.050297726512	9770
1	22839	185.057462516686	9765
1	22842	185.064630975467	9759
1	22845	185.071803841539	9753
1	22848	185.078981120325	9747
1	22852	185.086162817257	9741
1	22857	185.093348937779	9735
1	22860	185.100539487342	9729
1	22864	185.10773447141	9723
1	22867	185.114933895456	9717
1	22870	185.122137764963	9711
1	22873	185.129346085424	9705
1	22876	185.136558862343	9699
1	22887	185.247859181232	9606
1	22892	185.261250792939	9595
1	22903	185.420088726662	9463
1	22909	185.5	9397
1	22945	186	9160
1	22973	186.5	9135
1	23069	187	8982
1	23104	187.5	8344
1	23208	188	8486
1	23248	188.5	9404
1	23348	189	9157
1	23385	189.5	9267
1	23421	190	9263
1	23453	190.5	9073
1	23498	191	8211
1	23667	191.5	8735
1	23712	192	9258
1	23746	192.5	8504
1	23779	193	9249
1	23822	193.5	8586
1	24001	194	9134
1	24044	194.5	9106
1	24111	195	9048
1	24148	195.5	9125
1	24181	196	9597
1	24326	196.5	9729
1	24384	197	8358
1	24446	197.5	8158
1	24484	198	8926
1	24520	198.5	9749
1	24561	199	9365
1	24598	199.5	8980
1	24751	200	8596
1	24780	200.5	8802
1	24817	201	8871
1	24933	201.5	8879
1	24977	202	9216
1	25066	202.5	9415
1	25120	203	9582
1	25188	203.5	9749
1	25214	204	8875
1	25258	204.5	8273
1	25387	205	8340
1	25439	205.5	8611
1	25464	206	8967
1	25515	206.5	8934
1	25694	207	9573
1	25725	207.5	8568
1	25760	208	8415
1	25886	208.5	8263
1	25919	209	8906
1	25983	209.5	8763
1	26031	210	8585
1	26110	210.5	9004
1	26143	211	9455
1	26192	211.5	9494
1	26339	212	9534
1	26366	212.5	9006
1	26476	213	8457
1	26511	213.5	8364
1	26540	214	9425
1	26571	214.5	9220
1	26604	215	9015
1	26808	215.5	8882
1	26833	216	8888
1	26865	216.5	9430
1	26893	217	8394
1	26894	217	8394
1	26930	217.5	8154
1	27089	218	8224
1	27148	218.5	8295
1	27186	219	8808
1	27215	219.5	9405
1	27246	220	9268
1	27369	220.5	9131
1	27422	221	8994
1	27480	221.5	9225
1	27501	222	9663
1	27537	222.5	9502
1	27576	223	9209
1	27594	223.5	8390
1	27759	224	8067
1	27792	224.5	8565
1	27825	225	9806
1	27859	225.5	8518
1	28024	226	9222
1	28072	226.5	9536
1	28114	227	8591
1	28155	227.5	8333
1	28196	228	9234
1	28228	228.5	8947
1	28351	229	9692
1	28359	229.077033051328	9666
1	28372	229.247603803497	9514
1	28377	229.271941638724	9493
1	28382	229.296457439514	9471
1	28387	229.327665555711	9443
1	28393	229.385693668574	9344
1	28398	229.437092698338	9234
1	28404	229.5	9098
1	28425	230	9024
1	28464	230.5	8646
1	28563	231	9057
1	28592	231.5	9062
1	28679	232	8430
1	28745	232.5	9679
1	28771	233	9645
1	28855	233.5	8194
1	28881	234	8325
1	28953	234.5	8245
1	28986	235	8165
1	29020	235.5	8088
1	29060	236	8381
1	29080	236.5	8676
1	29110	237	8496
1	29152	237.5	8283
1	29353	238	8329
1	29387	238.5	8376
1	29484	239	8422
1	29537	239.5	8435
1	29597	240	9317
1	29657	240.5	9692
1	29660	240.508452064719	9697
1	29669	240.561454618275	9718
1	29672	240.568657746491	9701
1	29679	240.694747495067	9413
1	29682	240.702184019023	9396
1	29687	240.709633997737	9379
1	29694	240.717892330431	9360
1	29700	240.784683885384	9208
1	29705	240.817486279476	9133
1	29710	240.85702869234	9043
1	29715	240.871514414838	9010
1	29720	240.902077118647	8940
1	29725	241	8716
1	29777	241.5	8401
1	29797	242	8767
1	29828	242.5	8388
1	29849	243	9057
1	29892	243.5	9417
1	29934	244	8872
1	29981	244.5	8601
1	30019	245	9366
1	30057	245.5	8607
1	30058	245.5	8607
1	30095	246	8354
1	30314	246.5	8877
1	30509	247	8897
1	30566	247.5	8659
1	30629	248	8421
1	30684	248.5	9277
1	30725	249	9935
1	30729	249.03245905531	9918
1	30734	249.099353420774	9859
1	30739	249.116920542009	9843
1	30745	249.212035761737	9758
1	30750	249.238357715166	9735
1	30756	249.34835930771	9637
1	30759	249.355622978977	9630
1	30767	249.460906177006	9537
1	30771	249.5	9502
1	30820	250	9057
1	30844	250.5	8792
1	30975	251	8824
1	31012	251.5	8737
1	31048	252	8522
1	31191	252.5	8306
1	31210	253	9037
1	31256	253.5	9192
1	31295	254	8964
1	31325	254.5	8736
1	31363	255	9457
1	31398	255.5	9539
1	31400	255.507953641632	9540
1	31402	255.515291167837	9542
1	31405	255.522627156099	9543
1	31408	255.529962375632	9544
1	31411	255.537296826596	9545
1	31414	255.544630509152	9546
1	31417	255.551963423462	9548
1	31421	255.559294801761	9549
1	31424	255.566625412296	9550
1	31427	255.573955255228	9551
1	31432	255.581284330717	9552
1	31436	255.588612638925	9554
1	31439	255.595939413051	9555
1	31442	255.603265420377	9556
1	31445	255.610590661063	9557
1	31448	255.61791513527	9559
1	31453	255.625238077	9560
1	31457	255.632560252732	9561
1	31462	255.639881662626	9562
1	31465	255.647202306843	9563
1	31468	255.654522185542	9565
1	31471	255.661840533686	9566
1	31476	255.669158116793	9567
1	31479	255.676474935022	9568
1	31482	255.683790988534	9569
1	31485	255.691106277488	9571
1	31488	255.698420037806	9572
1	31491	255.705733034045	9573
1	31494	255.713045266365	9574
1	31497	255.720356734926	9575
1	31502	255.727667439887	9557
1	31505	255.734991914094	9537
1	31510	255.742331748423	9516
1	31513	255.749687780369	9496
1	31516	255.757059305222	9475
1	31519	255.764447168019	9455
1	31522	255.771850658236	9434
1	31525	255.779270628556	9413
1	31528	255.786707152512	9393
1	31531	255.794159510651	9372
1	31534	255.801628567416	9351
1	31539	255.809114397808	9330
1	31542	255.816617077336	9310
1	31545	255.824135874328	9289
1	31548	255.831671669354	9268
1	31551	255.839224539445	9247
1	31554	255.846794562155	9226
1	31559	255.854381815569	9205
1	31562	255.861986378307	9183
1	31565	255.869609159533	9162
1	31568	255.877249412753	9141
1	31574	255.884907218245	9121
1	31577	255.892581815329	9104
1	31580	255.900270743273	9087
1	31585	255.907974055697	9071
1	31589	255.915690955708	9054
1	31592	255.923422345149	9037
1	31595	255.931168278534	9020
1	31598	255.938928810685	9002
1	31601	255.946704860452	8985
1	31604	255.954495622834	8968
1	31608	255.96230115361	8951
1	31611	255.970121508878	8934
1	31615	255.977956745054	8917
1	31618	255.985806918879	8899
1	31621	255.993672971244	8882
1	31624	256	8868
1	31625	256	8868
1	31678	256.5	8245
1	31705	257	8236
1	31836	257.5	9298
1	31839	257.511585100193	9323
1	31844	257.52217364851	9347
1	31852	257.669714738683	9271
1	31857	257.785815180615	9088
1	31864	257.866541143543	8961
1	31871	257.964277940154	8807
1	31877	257.980094750885	8782
1	31885	258	8739
1	31969	258.5	8370
1	32024	259	8426
1	32067	259.5	9057
1	32100	260	8942
1	32197	260.5	8397
1	32247	261	9389
1	32275	261.5	8889
1	32308	262	8203
1	32337	262.5	9505
1	32373	263	9570
1	32374	263	9570
1	32404	263.5	9733
1	32405	263.50722202544	9738
1	32407	263.5144103598	9742
1	32410	263.521595742678	9747
1	32413	263.52877743961	9751
1	32416	263.535956190507	9756
1	32419	263.543131262258	9761
1	32422	263.550302658631	9765
1	32425	263.557471117412	9770
1	32428	263.564635907586	9775
1	32432	263.571797032906	9779
1	32435	263.578955229041	9784
1	32438	263.586109767062	9789
1	32441	263.593260650707	9793
1	32444	263.600408613538	9798
1	32448	263.607552928704	9802
1	32451	263.614694328418	9807
1	32456	263.621832087162	9812
1	32459	263.628966208646	9816
1	32462	263.63609742299	9821
1	32465	263.643225006739	9826
1	32468	263.650348963588	9830
1	32473	263.657470021574	9835
1	32476	263.664587459296	9839
1	32480	263.671702003457	9844
1	32483	263.678812933973	9849
1	32488	263.685920254513	9853
1	32493	263.69302468971	9858
1	32496	263.700125521522	9862
1	32499	263.707223473256	9867
1	32504	263.714317828176	9871
1	32508	263.721409308269	9870
1	32511	263.728501506851	9865
1	32514	263.735597300059	9860
1	32519	263.74269669154	9854
1	32522	263.749800405768	9849
1	32525	263.756907726308	9843
1	32528	263.764019379259	9838
1	32533	263.77113464659	9833
1	32536	263.778253531976	9827
1	32539	263.785376763888	9822
1	32542	263.792503621962	9816
1	32546	263.799634836306	9811
1	32549	263.806769684945	9805
1	32552	263.813908899631	9800
1	32555	263.821051756774	9795
1	32558	263.828198260092	9789
1	32563	263.835349143737	9784
1	32567	263.842503681758	9778
1	32572	263.849662609964	9773
1	32575	263.856825200775	9767
1	32578	263.863992191663	9762
1	32581	263.871162853413	9756
1	32586	263.878337925164	9751
1	32597	264	9658
1	32626	264.5	9611
1	32730	265	9372
1	32773	265.5	9088
1	32875	266	8986
1	32930	266.5	8955
1	32985	267	8790
1	33065	267.5	9292
1	33094	268	8583
1	33120	268.5	8555
1	33155	269	9497
1	33186	269.5	9536
1	33225	270	9527
1	33226	270	9527
1	33253	270.5	9304
1	33299	271	8580
1	33332	271.5	8524
1	33363	272	8690
1	33599	272.5	9554
1	33710	273	9696
1	33767	273.5	9693
1	33810	274	8869
1	33866	274.5	8489
1	33923	275	8277
1	33994	275.5	9080
1	34073	276	9846
1	34101	276.5	9577
1	34215	277	8410
1	34280	277.5	9062
1	34320	278	9390
1	34343	278.5	9668
1	34375	279	9734
1	34414	279.5	9482
1	34444	280	9566
1	34486	280.5	9649
1	34520	281	9732
1	34521	281	9732
1	34543	281.5	9816
1	34574	282	8840
1	34797	282.5	8976
1	34923	283	9112
1	34982	283.5	8097
1	35082	284	8548
1	35144	284.5	8696
1	35198	285	8780
1	35267	285.5	8573
1	35328	286	8412
1	35365	286.5	8381
1	35480	287	9448
1	35503	287.5	9073
1	35585	288	9359
1	35620	288.5	8714
1	35640	289	8933
1	35679	289.5	8216
1	35709	290	8605
1	35738	290.5	8994
1	35754	291	9398
1	35796	291.5	9279
1	35797	291.5	9279
1	35827	292	8434
1	35861	292.5	8471
1	36078	293	8603
1	36166	293.5	8708
1	36241	294	9147
1	36322	294.5	8472
1	36417	295	8264
1	36486	295.5	8618
1	36531	296	8855
1	36578	296.5	8961
1	36607	297	9796
1	36608	297.003231121216	9811
1	36609	297.010365969855	9845
1	36612	297.014849328355	9866
1	36614	297.017476178083	9876
1	36617	297.021944402346	9875
1	36620	297.022174569041	9875
1	36623	297.024564067917	9874
1	36627	297.029033009941	9872
1	36643	297.04749536423	9865
1	36660	297.17381699852	9817
1	36667	297.311104277061	9765
1	36673	297.337978803108	9754
1	36679	297.358146704493	9747
1	36691	297.470091626369	8677
1	36695	297.478158930737	8669
1	36703	297.5	8646
1	36730	298	9674
1	36854	298.5	9819
1	36882	299	9555
1	36914	299.5	9291
1	36939	300	9027
1	36988	300.5	8915
1	37019	301	9642
1	37051	301.5	9264
1	37088	302	8885
1	37114	302.5	8507
1	37147	303	8488
1	37371	303.5	8776
1	37488	304	9029
1	37562	304.5	9273
1	37629	305	9078
1	37689	305.5	8368
1	37772	306	8280
1	37842	306.5	9103
1	37889	307	8755
1	37911	307.5	8426
1	38014	308	9753
1	38054	308.5	8791
1	38094	309	8976
1	38257	309.5	9517
1	38284	310	9223
1	38385	310.5	8421
1	38418	311	8927
1	38454	311.5	9502
1	38496	312	9413
1	38527	312.5	9111
1	38685	313	9006
1	38712	313.5	8901
1	38744	314	9659
1	38794	314.5	9703
1	38926	315	9747
1	38977	315.5	9791
1	38980	315.51543157168	9792
1	38985	315.545106631454	9795
1	38990	315.556261720701	9796
1	38996	315.646802235347	9804
1	39001	315.738128859204	9812
1	39006	315.766569102781	9814
1	39011	315.780815212341	9816
1	39017	315.797626931149	9817
1	39022	315.818549444635	9819
1	39027	315.852435462094	9822
1	39030	315.859562320168	9822
1	39038	315.878850413858	9824
1	39041	315.885975821024	9825
1	39049	315.92499559956	9828
1	39054	315.982101888354	9833
1	39058	316	9835
1	39129	316.5	9879
1	39154	317	9860
1	39155	317.001763469622	9860
1	39158	317.008862861103	9859
1	39161	317.015962972676	9859
1	39164	317.023063084249	9858
1	39167	317.030163916061	9858
1	39172	317.037264747873	9857
1	39176	317.044366300069	9856
1	39179	317.051468572796	9856
1	39182	317.058570845523	9855
1	39187	317.065673838927	9855
1	39190	317.072776832331	9854
1	39198	317.111348594106	9851
1	39201	317.118454471682	9851
1	39212	317.290723565008	9837
1	39217	317.302786365464	9836
1	39220	317.309903079575	9836
1	39228	317.384639088362	9830
1	39233	317.418491098272	9827
1	39238	317.432774322565	9826
1	39243	317.5	9821
1	39246	317.517156699294	9819
1	39255	317.824457143702	9543
1	39261	317.845847001482	9506
1	39266	317.905053572306	9405
1	39273	317.931283608962	9360
1	39278	317.963713573954	9304
1	39281	317.971237219698	9291
1	39287	318	9242
1	39355	318.5	8948
1	39395	319	8823
1	39434	319.5	8697
1	39464	320	8571
1	39504	320.5	9195
1	39527	321	8970
1	39566	321.5	9136
1	39597	322	9289
1	39632	322.5	8815
1	39670	323	8736
1	39904	323.5	9639
1	40079	324	9594
1	40124	324.5	9543
1	40237	325	9491
1	40284	325.5	9316
1	40360	326	8369
1	40402	326.5	8483
1	40466	327	8492
1	40508	327.5	8833
1	40665	328	8788
1	40706	328.5	8787
1	40833	329	8722
1	40868	329.5	9133
1	40888	330	9314
1	40928	330.5	8752
1	41064	331	9730
1	41094	331.5	8226
1	41095	331.5	8226
1	41123	332	8347
1	41157	332.5	8468
1	41191	333	8496
1	41219	333.5	8768
1	41376	334	9373
1	41451	334.5	9323
1	41487	335	9859
1	41527	335.5	8248
1	41649	336	8506
1	41683	336.5	8764
1	41745	337	9023
1	41800	337.5	9435
1	41834	338	8885
1	41860	338.5	9415
1	41895	339	9029
1	42057	339.5	8704
1	42087	340	8579
1	42115	340.5	8985
1	42146	341	8930
1	42181	341.5	8587
1	42207	342	8343
1	42398	342.5	8501
1	42453	343	9239
1	42498	343.5	9178
1	42520	344	9497
1	42609	344.5	9817
1	42613	344.571648565044	9863
1	42619	344.595031907353	9878
1	42626	344.675036499905	9464
1	42633	344.736588498834	9099
[...]
24	21229	172.701877405555	0.41398335956285
24	21273	173.115860765118	0.45955306081106
24	21324	173.575413825929	0.62159025312122
24	21488	174.19700407905	0.90605964699855
24	21594	175.103063726049	0.18075742359349
24	21604	175.283821149642	0.030569711409052
24	21610	175.314390861051	0.072741608175284
24	21617	175.387132469226	0.72173292118874
24	21693	176.108865390415	0.11405781361741
24	21699	176.222923204032	0.015414494306656
24	21700	176.238337698339	0.94331020481533
24	21890	177.181647903154	0.16041335722214
24	21934	177.342061260376	1.4304264463788
24	22059	178.772487706755	0.53981373499638
24	22092	179.312301441751	0.71026392869996
24	22154	180.022565370451	0.23927119451625
24	22266	180.261836564967	0.68959340154752
24	22407	180.951429966515	0.50012520591206
24	22435	181.451555172427	0.25671291523092
24	22452	181.708268087658	0.064430536335353
24	22454	181.772698623993	0.097048250645038
24	22461	181.869746874638	0.039844641899871
24	22462	181.909591516538	0.46804094857321
24	22598	182.377632465111	0.26370742401866
24	22621	182.64133988913	0.090165521492745
24	22633	182.731505410623	0.16511011374254
24	22653	182.896615524366	0.072518906959541
24	22660	182.969134431326	0.15922363035884
24	22671	183.128358061685	0.21999774340814
24	22684	183.348355805093	1.9521389470088
24	22899	185.300494752102	0.58646617722659
24	22943	185.886960929329	0.53760409910299
24	22971	186.424565028432	0.21755122581578
24	23011	186.642116254248	0.95514721387389
24	23155	187.597263468122	0.20209371155466
24	23181	187.799357179677	0.11523702911125
24	23196	187.914594208788	0.60822244054054
24	23259	188.522816649329	0.13803936552035
24	23300	188.660856014849	0.54251054312785
24	23359	189.203366557977	0.047311058774491
24	23368	189.250677616751	0.31052263310979
24	23395	189.561200249861	1.617431430583
24	23574	191.178631680444	0.068028270560958
24	23608	191.246659951005	0.26460178266596
24	23668	191.511261733671	0.06412073829034
24	23670	191.575382471961	0.11655233475688
24	23684	191.691934806718	0.17076841745483
24	23695	191.862703224173	2.2984936975057
24	24019	194.161196921679	0.8137903296723
24	24105	194.974987251351	0.25904755037631
24	24124	195.234034801727	0.0059452906844277
24	24125	195.239980092411	0.12264739998725
24	24136	195.362627492398	0.090147910472658
24	24143	195.452775402871	0.43909243476361
24	24176	195.891867837635	1.0721003389905
24	24376	196.963968176625	0.24699572483947
24	24395	197.210963901464	0.11562333395302
24	24409	197.326587235417	0.18363053124999
24	24449	197.510217766667	0.76389840180669
24	24506	198.274116168474	0.21227331846825
24	24516	198.486389486942	0.25082504579675
24	24547	198.737214532739	1.02869750467
24	24713	199.765912037409	1.6365757491087
24	24920	201.402487786518	0.4559095033781
24	24966	201.858397289896	0.41913099053139
24	25044	202.277528280427	0.64833490024176
24	25114	202.925863180669	1.1617361844983
24	25225	204.087599365167	0.52598900876534
24	25308	204.613588373932	0.33825090329106
24	25382	204.951839277223	0.026261454949561
24	25383	204.978100732173	0.03178496828111
24	25394	205.009885700454	0.46152403697184
24	25435	205.471409737426	0.63908695768345
24	25482	206.110496695109	0.67498365583132
24	25677	206.78548035094	0.075746344122715
24	25684	206.861226695063	0.73414620873854
24	25736	207.595372903802	0.7274227748581
24	25854	208.32279567866	0.022819859674212
24	25858	208.345615538334	0.3900804927129
24	25903	208.735696031047	0.70336843286358
24	25976	209.439064463911	1.431128049528
24	26136	210.870192513439	1.0457864094012
24	26330	211.91597892284	0.24646126889808
24	26348	212.162440191738	0.87738870130215
24	26481	213.03982889304	0.54388556612806
24	26518	213.583714459168	1.0561558438907
24	26585	214.639870303059	0.2222364084135
24	26599	214.862106711473	0.3219831532024
24	26688	215.184089864675	0.12296975360351
24	26741	215.307059618279	0.1860215294395
24	26806	215.493081147718	0.64397489273678
24	26838	216.137056040455	0.76588003077809
24	26887	216.902936071233	0.031587003850204
24	26888	216.934523075083	0.37787933022296
24	26919	217.312402405306	0.44430884253233
24	27051	217.756711247838	0.63417217146011
24	27143	218.390883419298	0.081596938518152
24	27147	218.472480357816	0.11455497855987
24	27165	218.587035336376	0.60343596204949
24	27201	219.190471298425	0.9614308626481
24	27312	220.151902161073	0.19745413627728
24	27358	220.34935629735	0.36446547165647
24	27398	220.713821769006	0.22468990872624
24	27421	220.938511677732	1.7062135916679
24	27556	222.6447252694	0.021083229044221
24	27557	222.665808498444	0.24849816941905
24	27569	222.914306667863	0.83869433635951
24	27713	223.753001004223	0.89448202721034
24	27801	224.647483031433	0.3818352780094
24	27832	225.029318309442	0.29046001067597
24	27850	225.319778320118	0.052450367194785
24	27855	225.372228687313	0.72019365887553
24	28028	226.092422346189	0.024235093042934
24	28034	226.116657439232	0.29964277023834
24	28049	226.41630020947	0.99559369501433
24	28133	227.411893904484	0.32192845527369
24	28175	227.733822359758	0.25824582708016
24	28194	227.992068186838	0.099422763925165
24	28202	228.091490950763	0.027921843595149
24	28207	228.119412794358	0.15792048841644
24	28219	228.277333282774	0.24363443562215
24	28234	228.520967718396	0.55623001900322
24	28360	229.077197737399	0.41881636654772
24	28402	229.496014103947	0.37344509602996
24	28417	229.869459199977	0.19387762058634
24	28435	230.063336820563	0.52791388794203
24	28522	230.591250708505	0.027945516049052
24	28524	230.619196224554	0.65473169464782
24	28576	231.273927919202	0.30846737484308
24	28635	231.582395294045	1.1446340225764
24	28755	232.727029316621	0.34566117837712
24	28797	233.072690494998	0.32212946746399
24	28840	233.394819962462	0.33000923524958
24	28868	233.724829197712	0.4913558707781
24	28927	234.21618506849	1.0850360977059
24	29008	235.301221166196	0.52139023490798
24	29045	235.822611401104	1.4971232741543
24	29131	237.319734675258	0.44860788429103
24	29281	237.768342559549	0.29551170733095
24	29356	238.06385426688	0.35167855787489
24	29381	238.415532824755	1.522278604046
24	29589	239.937811428801	1.5101903678384
24	29765	241.448001796639	1.5857409458167
24	29857	243.033742742456	0.0015435885750895
24	29860	243.035286331031	0.11215062136892
24	29874	243.1474369524	0.97204954096471
24	29947	244.119486493365	0.99432316741122
24	30032	245.113809660776	0.27195633946746
24	30053	245.385766000243	1.3046212820858
24	30411	246.690387282329	0.18940292551872
24	30466	246.879790207848	0.23420228941533
24	30521	247.113992497263	0.54738716450671
24	30577	247.66137966177	0.05445936314906
24	30579	247.715839024919	0.099376223056014
24	30595	247.815215247975	0.07827748202387
24	30601	247.893492729999	0.055660276369516
24	30620	247.949153006369	0.025026148433292
24	30626	247.974179154802	1.5969333379722
24	30780	249.571112492774	0.49273459907375
24	30822	250.063847091848	0.42550825623683
24	30841	250.489355348085	0.68696723596362
24	30983	251.176322584049	0.17791410142183
24	31000	251.354236685471	0.70929685735479
24	31075	252.063533542826	0.24417526985495
24	31151	252.307708812681	1.2609463040038
24	31269	253.568655116685	0.13245558262549
24	31278	253.70111069931	0.74328446121861
24	31320	254.444395160529	0.14697234609528
24	31332	254.591367506624	0.014320191888526
24	31335	254.605687698513	0.30972430433509
24	31356	254.915412002848	0.34115416989458
24	31377	255.256566172743	0.85115034720926
24	31642	256.107716519952	0.20014189106155
24	31662	256.307858411014	0.74273835865172
24	31723	257.050596769666	0.6025373822334
24	31850	257.653134151899	0.21668247000975
24	31865	257.869816621909	0.04373659461508
24	31869	257.913553216524	0.077843973490014
24	31883	257.991397190014	0.1934488670951
24	31910	258.184846057109	0.23805884799054
24	31952	258.4229049051	0.53328925367202
24	32021	258.956194158772	0.048282279227293
24	32025	259.004476437999	0.003317656730823
24	32027	259.00779409473	0.071306015683976
24	32030	259.079100110414	1.5551340037877
24	32209	260.634234114202	0.28746017407599
24	32235	260.921694288278	0.24462716784506
24	32256	261.166321456123	0.21212448044206
24	32271	261.378445936565	0.013951732184262
24	32272	261.392397668749	0.29316383907898
24	32285	261.685561507828	0.13346356577098
24	32290	261.819025073599	0.28302418294937
24	32313	262.102049256548	0.65042570416194
24	32360	262.75247496071	0.36641122366562
24	32382	263.118886184376	0.36891902341649
24	32403	263.487805207792	0.30997626226858
24	32545	263.797781470061	0.12733580731567
24	32594	263.925117277377	0.40764765122686
24	32611	264.332764928604	1.906179448492
24	32903	266.238944377096	0.18773490380351
24	32923	266.4266792809	0.16907311556231
24	32938	266.595752396462	0.0036273396155663
24	32939	266.599379736078	0.40643231580762
24	32986	267.005812051886	0.21125741207841
24	33023	267.217069463964	0.82849378884613
24	33100	268.04556325281	0.57761238808833
24	33132	268.623175640898	1.2075375440907
24	33218	269.830713184989	0.61023269921591
24	33247	270.440945884205	0.27836502815231
24	33286	270.719310912357	0.47243757410406
24	33309	271.191748486461	2.6910558527334
24	33804	273.882804339194	0.3241673183605
24	33829	274.206971657554	1.6069605046677
24	34042	275.813932162222	0.26801829248645
24	34084	276.081950454708	0.22042230113471
24	34096	276.302372755843	0.24713073012753
24	34141	276.549503485971	0.67743351577679
24	34243	277.226937001748	0.66761114527827
24	34309	277.894548147026	0.15925197940505
24	34326	278.053800126431	1.1207865242755
24	34393	279.174586650706	0.1073011643847
24	34398	279.281887815091	0.49716174546018
24	34431	279.779049560551	0.6444811130827
24	34480	280.423530673634	1.3245810785472
24	34556	281.748111752181	1.5596227022622
24	34953	283.307734454443	0.9858998090255
24	35131	284.293634263468	0.25789377113932
24	35147	284.551528034607	0.37156459307911
24	35186	284.923092627686	0.11186446944612
24	35218	285.034957097132	0.43327516935658
24	35256	285.468232266489	0.048755443225283
24	35269	285.516987709714	0.82930295610064
24	35350	286.346290665815	2.0406687410823
24	35605	288.386959406897	2.3777160792371
24	35745	290.764675486134	0.36933405740881
24	35771	291.134009543543	0.94014315723781
24	35834	292.074152700781	0.068992392174416
24	35843	292.143145092955	1.8900503749316
24	36251	294.033195467887	1.2948212265529
24	36464	295.32801669444	0.98189218995044
24	36568	296.30990888439	0.091511807917237
24	36569	296.401420692307	1.9222379963987
24	36801	298.323658688706	0.071576369436048
24	36822	298.395235058142	0.30356916627001
24	36864	298.698804224412	0.19161666567219
24	36874	298.890420890084	0.091214936713254
24	36880	298.981635826797	0.020585444902377
24	36883	299.002221271699	0.40910969397095
24	36906	299.41133096567	0.010072507496378
24	36907	299.421403473166	0.51738587868708
24	36930	299.938789351853	0.34760289783479
24	36963	300.286392249688	0.29955508190209
24	36993	300.58594733159	0.30214175802389
24	37011	300.888089089614	0.13028696040057
24	37026	301.018376050015	0.033569842120083
24	37028	301.051945892135	0.44440786672728
24	37049	301.496353758862	0.6965149383206
24	37098	302.192868697183	0.04888925579943
24	37099	302.241757952982	0.40084594583715
24	37128	302.642603898819	0.16441229000003
24	37136	302.807016188819	0.62178553294417
24	37341	303.428801721763	0.48543376878204
24	37477	303.914235490545	0.13826795246951
24	37496	304.052503443015	1.6335823870312
24	37721	305.686085830046	0.29542991913645
24	37769	305.981515749182	1.2918741130441
24	37904	307.273389862226	1.7141425684579
24	38089	308.987532430684	1.7665339693769
24	38402	310.754066400061	1.0870994321531
24	38481	311.841165832214	0.13439066155524
24	38492	311.975556493769	0.29327504519445
24	38511	312.268831538963	0.10182957706963
24	38516	312.370661116033	0.16424197613121
24	38538	312.534903092164	0.16333623785782
24	38608	312.698239330022	0.45241402994567
24	38699	313.150653359968	0.38809157422744
24	38717	313.538744934195	0.14069251191865
24	38725	313.679437446114	1.0489589815473
24	38894	314.728396427661	0.058606843964244
24	38901	314.787003271625	0.14651743904933
24	38914	314.933520710674	0.072604409096591
24	38927	315.006125119771	0.18786805411931
24	38952	315.19399317389	0.19227414118554
24	38964	315.386267315076	1.8318093207179
24	39209	317.218076635794	0.70742575346247
24	39271	317.925502389256	0.18709030966218
24	39311	318.112592698918	0.27710717806504
24	39344	318.389699876983	0.023755383595892
24	39346	318.413455260579	0.21522138796165
24	39366	318.628676648541	0.056791940104918
24	39371	318.685468588646	1.5029791416689
24	39484	320.188447730315	0.11043334480842
24	39490	320.298881075123	0.09940515443952
24	39500	320.398286229563	0.66432914303387
24	39532	321.062615372597	0.33774025621613
24	39559	321.400355628813	0.048283350614594
24	39563	321.448638979428	0.20191610744615
24	39577	321.650555086874	0.86601428103276
24	39639	322.516569367907	0.14526594161172
24	39646	322.661835309519	0.6429495322819
24	39808	323.304784841801	0.24596324706759
24	39928	323.550748088869	0.093170231847431
24	39976	323.643918320716	0.48855803312901
24	40083	324.132476353845	0.3694723738563
24	40127	324.501948727701	0.3504787790849
24	40197	324.852427506786	0.095123565537111
24	40230	324.947551072323	0.063589585349715
24	40239	325.011140657673	0.059000296320654
24	40246	325.070140953994	0.81790922361427
24	40352	325.888050177608	0.049388868730149
24	40358	325.937439046338	0.39678033946546
24	40392	326.334219385803	0.67194859820288
24	40469	327.006167984006	0.019145255035872
24	40470	327.025313239042	0.0036076201288966
24	40471	327.028920859171	0.34191700233161
24	40500	327.370837861503	0.12596683527642
24	40507	327.496804696779	1.9834402807386
24	40865	329.480244977518	0.7290918842884
24	40902	330.209336861806	0.47577140270939
24	41023	330.685108264515	0.45532465207104
24	41076	331.140432916586	0.038461630005758
24	41081	331.178894546592	0.33924132843408
24	41099	331.518135875026	0.95036622194871
24	41149	332.468502096975	0.33115502078077
24	41180	332.799657117756	0.23626577970584
24	41199	333.035922897462	0.15219122284168
24	41201	333.188114120304	0.45387335037448
24	41283	333.641987470678	1.4167479811961
24	41494	335.058735451874	0.77621849418398
24	41627	335.834953946058	0.15800860728869
24	41648	335.992962553347	0.56702079578914
24	41691	336.559983349136	0.47613817033734
24	41747	337.036121519473	0.356909986838
24	41792	337.393031506311	0.52763890358354
24	41830	337.920670409895	0.12705248783971
24	41842	338.047722897735	0.52637040087746
24	41869	338.574093298612	0.58577613842246
24	41973	339.159869437034	0.5123150027232
24	42063	339.672184439757	0.026607405557012
24	42064	339.698791845314	0.41128159693947
24	42095	340.110073442253	1.2110118108224
24	42171	341.321085253075	1.2641121237958
24	42403	342.585197376871	0.19625704054602
24	42434	342.781454417417	0.29262839084684
24	42461	343.074082808264	0.15604871482913
24	42477	343.230131523093	0.2131604771804
24	42496	343.443292000273	0.14249666651344
24	42504	343.585788666786	0.58342620318141
24	42591	344.169214869967	0.0889283606239
24	42595	344.258143230591	1.7491146105395
24	42783	346.00725784113	0.20422769374849
24	42792	346.211485534878	0.50488951925284
24	42879	346.716375054131	0.060622019985327
24	42889	346.776997074116	0.28524491706521
24	42915	347.062241991181	1.6359238468497
24	43084	348.698165838031	1.9535921717744
24	43347	350.651758009805	0.10429552085037
24	43355	350.756053530655	0.44404297085849
24	43381	351.200096501513	0.03072618098488
24	43382	351.230822682498	0.23501878584337
24	43402	351.465841468341	1.4477480311108
24	43697	352.913589499452	0.15655845922878
24	43743	353.070147958681	0.12861683595628
24	43760	353.198764794637	0.56306592070807
24	43809	353.761830715345	0.40040504404149
24	43834	354.162235759386	0.036663640160652
24	43835	354.198899399547	0.29631643347755
24	43853	354.495215833025	1.0524469754887
24	44011	355.547662808514	1.0786075619374
24	44111	356.626270370451	0.22067204164515
24	44126	356.846942412096	0.067589001955579
24	44129	356.914531414052	0.69475981155918
24	44185	357.609291225611	0.25376435993346
24	44205	357.863055585544	0.27353618480749
24	44268	358.136591770351	0.011239744659819
24	44273	358.147831515011	0.10094663956764
24	44303	358.248778154579	0.039440390358223
24	44304	358.288218544937	0.21835792036461
24	44340	358.506576465302	1.4012304047033
24	44425	359.907806870005	0.061181121903004
24	44430	359.968987991908	0.68783007354984
24	44497	360.656818065458	0.57280322814676
24	44635	361.229621293605	1.3034349326989
24	44888	362.533056226304	1.8571774120528
24	45132	364.390233638357	0.18361161465257
24	45164	364.57384525301	0.035344179365382
24	45165	364.609189432375	0.30677919351436
24	45204	364.915968625889	0.27223591461553
24	45231	365.188204540505	3.194958277539
24	45556	368.383162818044	1.2819481534427
24	45725	369.665110971487	0.97227322886926
24	45935	370.637384200356	0.22019610474746
24	45948	370.857580305103	0.20116146107195
24	45963	371.058741766175	0.47035117057597
24	46001	371.529092936751	0.02343614162471
24	46015	371.552529078376	0.96826558756111
24	46182	372.520794665937	0.31922535541938
24	46201	372.840020021356	0.54584928005189
24	46283	373.385869301408	0.019243149775627
24	46284	373.405112451184	1.0695045761139
24	46352	374.474617027298	0.19289989990549
24	46436	374.667516927203	0.25118560627554
24	46471	374.918702533479	1.034755417703
24	46598	375.953457951182	0.0022334554980043
24	46599	375.95569140668	0.32629644474522
24	46618	376.281987851425	0.3219159123555
24	46646	376.603903763781	0.3455338697113
24	46668	376.949437633492	0.0068052238097225
24	46669	376.956242857302	0.20805158544636
24	46687	377.164294442748	0.22000460304413
24	46698	377.384299045792	0.29175434022972
24	46717	377.676053386022	0.55448738418726
24	46846	378.230540770209	1.1016946643928
24	47031	379.332235434602	0.2198693666924
24	47068	379.552104801294	0.06547249447546
24	47100	379.617577295769	0.13347015442692
24	47166	379.751047450196	0.16377252356679
24	47189	379.914819973763	0.44094452281865
24	47240	380.355764496582	0.92240881311793
24	47332	381.2781733097	0.25238689815517
24	47370	381.530560207855	0.4051678581016
24	47425	381.935728065957	0.42906044644086
24	47442	382.364788512398	0.41606983391267
24	47463	382.780858346311	0.22054129762588
24	47477	383.001399643937	0.4354537208228
24	47533	383.43685336476	0.7870889257013
24	47594	384.223942290461	0.35358515727757
24	47624	384.577527447739	0.46894942088116
24	47650	385.04647686862	0.22087927905709
24	47659	385.267356147677	0.27113269487068
24	47686	385.538488842548	0.28557256000462
24	47711	385.824061402553	0.74876621895029
24	47779	386.572827621503	0.89087240397246
24	47987	387.463700025475	0.25416044687908
24	48013	387.717860472354	0.5042429198392
24	48103	388.222103392193	0.04129908314359
24	48105	388.263402475337	0.038009698719485
24	48111	388.301412174056	0.38006007355838
24	48176	388.681472247614	0.7318230412755
24	48271	389.413295288889	2.1081352271652
24	48466	391.521430516054	0.071398089144094
24	48502	391.592828605198	0.12287213272605
24	48529	391.715700737924	0.0084576371652485
24	48530	391.724158375089	0.23404444962789
24	48576	391.958202824717	0.011724162378721
24	48581	391.969926987096	0.30270880742416
24	48614	392.27263579452	0.19190584020949
24	48634	392.464541634729	0.3822359496239
24	48662	392.846777584353	0.25530928060334
24	48690	393.102086864956	0.13395155545113
24	48698	393.236038420407	0.10459800353253
24	48706	393.34063642394	0.26434778831458
24	48732	393.604984212255	0.12801311726505
24	48743	393.73299732952	0.051835935882262
24	48745	393.784833265402	0.2582785003819
24	48764	394.043111765784	0.81546162357074
24	48813	394.858573389355	0.63372478035923
24	49054	395.492298169714	0.70706892630453
24	49106	396.199367096019	0.50802190198579
24	49226	396.707388998005	0.75837586977784
24	49374	397.465764867783	0.0028707719416193
24	49375	397.468635639725	0.66271305478922
24	49461	398.131348694514	0.2945380317445
24	49502	398.425886726259	0.46680134597191
24	49580	398.892688072231	0.10065945214061
24	49587	398.993347524372	2.1118629602937

