file 1988677 1613479555                                         
version 2
run Exponential-capacity-23-20210216-13:45:54-23728
attr configname Exponential-capacity
attr datetime 20210216-13:45:54
attr experiment Exponential-capacity
attr inifile aerocom.ini
attr iterationvars "$0=0.5, $1=50, $2=4, $3=4"
attr iterationvarsf 0.5,50,4,4-
attr measurement "$0=0.5, $1=50, $2=4, $3=4"
attr network Aerocom
attr processid 23728
attr repetition 2
attr replication #2
attr resultdir results
attr runnumber 23
attr seedset 2
param **.t 0.5s
param **.k 50ms
param **.X 4s
param **.m 4s
param **.tDistribution "\"exponential\""
param **.operationMode 0
param **.s "70 byte"
param **.dimPoolMax 10000
param **.dimPoolMin 8000
param **.nDL 10
param **.nA 1
param **.DLMaxCapacity 0
param **.trasmitting false

vector 0 Aerocom.aircraft[0].packetGenerator arrivalTime:vector ETV
attr "" ""
attr source computeArrivalTime
vector 1 Aerocom.aircraft[0].linkSelector waitingTime:vector ETV
attr "" ""
attr source computeWaitingTime
vector 2 Aerocom.aircraft[0].linkSelector queueLength:vector ETV
attr "" ""
attr source computeQueueLength
vector 3 Aerocom.aircraft[0].dataLink[6] actualCapacity:vector ETV
attr "" ""
attr source computeActualCapacity
vector 4 Aerocom.aircraft[0].linkSelector serviceTime:vector ETV
attr "" ""
attr source computeServiceTime
vector 5 Aerocom.aircraft[0].linkSelector responseTime:vector ETV
attr "" ""
attr source computeResponseTime
vector 6 Aerocom.aircraft[0].dataLink[4] tDistribution:vector ETV
attr "" ""
attr source computeTDistribution
vector 7 Aerocom.aircraft[0].dataLink[9] tDistribution:vector ETV
attr "" ""
attr source computeTDistribution
vector 8 Aerocom.aircraft[0].dataLink[2] tDistribution:vector ETV
attr "" ""
attr source computeTDistribution
vector 9 Aerocom.aircraft[0].dataLink[1] tDistribution:vector ETV
attr "" ""
attr source computeTDistribution
vector 10 Aerocom.aircraft[0].dataLink[7] tDistribution:vector ETV
attr "" ""
attr source computeTDistribution
vector 11 Aerocom.aircraft[0].dataLink[5] tDistribution:vector ETV
attr "" ""
attr source computeTDistribution
vector 12 Aerocom.aircraft[0].dataLink[0] tDistribution:vector ETV
attr "" ""
attr source computeTDistribution
vector 13 Aerocom.aircraft[0].dataLink[8] tDistribution:vector ETV
attr "" ""
attr source computeTDistribution
vector 14 Aerocom.aircraft[0].dataLink[3] tDistribution:vector ETV
attr "" ""
attr source computeTDistribution
vector 15 Aerocom.aircraft[0].dataLink[6] tDistribution:vector ETV
attr "" ""
attr source computeTDistribution
vector 16 Aerocom.aircraft[0].dataLink[0] actualCapacity:vector ETV
attr "" ""
attr source computeActualCapacity
vector 17 Aerocom.aircraft[0].dataLink[1] actualCapacity:vector ETV
attr "" ""
attr source computeActualCapacity
vector 18 Aerocom.aircraft[0].dataLink[2] actualCapacity:vector ETV
attr "" ""
attr source computeActualCapacity
vector 19 Aerocom.aircraft[0].dataLink[3] actualCapacity:vector ETV
attr "" ""
attr source computeActualCapacity
vector 20 Aerocom.aircraft[0].dataLink[4] actualCapacity:vector ETV
attr "" ""
attr source computeActualCapacity
vector 21 Aerocom.aircraft[0].dataLink[5] actualCapacity:vector ETV
attr "" ""
attr source computeActualCapacity
vector 22 Aerocom.aircraft[0].dataLink[7] actualCapacity:vector ETV
attr "" ""
attr source computeActualCapacity
vector 23 Aerocom.aircraft[0].dataLink[8] actualCapacity:vector ETV
attr "" ""
attr source computeActualCapacity
vector 24 Aerocom.aircraft[0].dataLink[9] actualCapacity:vector ETV
attr "" ""
attr source computeActualCapacity
0	3614 308436 1193 48674 10.009046581726 399.97097773048 7643 1.717179e-006 0.55693822094 390.06880740153 39.713779780724
1	312050 224908 1194 48676 10.009046581726 399.973053004354 7643 0 0.025128341892 5.205594915182 0.034621561458001
2	536958 209935 1194 48676 10.009046581726 399.973053004354 7643 0 3 99 121
3	746893 24239 1194 48682 10.009046581726 400 841 8076 9969 7700231 70727120797
4	771132 338774 1194 48676 10.009046581726 399.973053004354 7643 0.0070035017508754 0.0087347142500624 58.95976094444 0.45618433823456
5	1109906 308465 1195 48679 10.01614525326 399.980642725703 7643 0.007003501751 0.032571982896 64.1653558596 0.57158828242861
6	1418371 33039 1218 48604 10.162350335492 399.557132409877 779 0.00058957674707913 3.6283714383534 391.59541878135 415.01298547421
7	1451410 31946 1221 48597 10.206470056365 399.518541338397 754 0.00059160080491825 3.5116036912708 390.07744971619 404.55139725648
8	1483356 34239 1227 48632 10.220926336418 399.74303304599 807 0.00033187725437789 2.6876159157321 390.28746093496 359.33867690759
9	1517595 34929 1231 48496 10.231070570013 398.833424272917 823 0.00083131507087317 3.1229545787128 389.85701768492 366.53037532545
10	1552524 34120 1264 48659 10.563737682349 399.840620911304 785 0.00037208571592645 3.6611044395179 389.68089320656 404.0064416672
11	1586644 34391 1267 48547 10.587818711263 399.288274335633 792 0.00020412202666193 2.9057882684976 389.82506612159 373.81622392629
12	1621035 33624 1271 48671 10.60670321773 399.962513772338 773 0.00090236662441967 4.4561266191636 393.81193717377 446.9900336573
13	1654659 33604 1341 48658 11.094711622537 399.839199635025 774 0.00024187057767713 3.0758182532393 389.40609766046 382.99501037556
14	1688263 33870 1395 48549 11.765387951768 399.32225448279 780 0.00050532535334727 5.0995094750189 389.22719569684 410.62137295466
15	1722133 32895 1413 48670 11.840123531286 399.895811930559 756 5.4463101410255e-005 3.8535725813892 388.21719007396 420.92893785527
16	1755028 30715 1434 48682 12 400 1014 8065 9919 9156754 82919803832
17	1785743 28073 1434 48682 12 400 930 8032 9988 8410860 76315819824
18	1813816 21293 1434 48682 12 400 718 8046 9963 6506243 59116929223
19	1835109 20976 1434 48682 12 400 711 8153 9915 6508539 59707289845
20	1856085 36648 1434 48682 12 400 1207 8014 9942 10918090 99058454300
21	1892733 30794 1434 48682 12 400 1021 8033 9945 9357665 86009936463
22	1923527 14379 1434 48682 12 400 494 8086 9826 4471270 40566688946
23	1937906 26616 1434 48682 12 400 884 8060 9973 8049766 73508244564
24	1964522 24153 1434 48682 12 400 803 8040 9995 7301327 66593398881

