version 2
run Exponential-capacity-39-20210216-13:46:21-15344
attr configname Exponential-capacity
attr datetime 20210216-13:46:21
attr experiment Exponential-capacity
attr inifile aerocom.ini
attr iterationvars "$0=2, $1=50, $2=0.5, $3=4"
attr iterationvarsf 2,50,0.5,4-
attr measurement "$0=2, $1=50, $2=0.5, $3=4"
attr network Aerocom
attr processid 15344
attr repetition 0
attr replication #0
attr resultdir results
attr runnumber 39
attr seedset 0
param **.t 2s
param **.k 50ms
param **.X 0.5s
param **.m 4s
param **.tDistribution "\"exponential\""
param **.operationMode 0
param **.s "70 byte"
param **.dimPoolMax 10000
param **.dimPoolMin 8000
param **.nDL 10
param **.nA 1
param **.DLMaxCapacity 0
param **.trasmitting false

vector 0 Aerocom.aircraft[0].packetGenerator arrivalTime:vector ETV
attr "" ""
attr source computeArrivalTime
vector 1 Aerocom.aircraft[0].linkSelector waitingTime:vector ETV
attr "" ""
attr source computeWaitingTime
vector 2 Aerocom.aircraft[0].linkSelector queueLength:vector ETV
attr "" ""
attr source computeQueueLength
vector 3 Aerocom.aircraft[0].dataLink[4] actualCapacity:vector ETV
attr "" ""
attr source computeActualCapacity
vector 4 Aerocom.aircraft[0].linkSelector serviceTime:vector ETV
attr "" ""
attr source computeServiceTime
vector 5 Aerocom.aircraft[0].linkSelector responseTime:vector ETV
attr "" ""
attr source computeResponseTime
vector 6 Aerocom.aircraft[0].dataLink[1] tDistribution:vector ETV
attr "" ""
attr source computeTDistribution
vector 7 Aerocom.aircraft[0].dataLink[2] tDistribution:vector ETV
attr "" ""
attr source computeTDistribution
vector 8 Aerocom.aircraft[0].dataLink[7] tDistribution:vector ETV
attr "" ""
attr source computeTDistribution
vector 9 Aerocom.aircraft[0].dataLink[5] tDistribution:vector ETV
attr "" ""
attr source computeTDistribution
vector 10 Aerocom.aircraft[0].dataLink[0] tDistribution:vector ETV
attr "" ""
attr source computeTDistribution
vector 11 Aerocom.aircraft[0].dataLink[8] tDistribution:vector ETV
attr "" ""
attr source computeTDistribution
vector 12 Aerocom.aircraft[0].dataLink[9] tDistribution:vector ETV
attr "" ""
attr source computeTDistribution
vector 13 Aerocom.aircraft[0].dataLink[0] actualCapacity:vector ETV
attr "" ""
attr source computeActualCapacity
vector 14 Aerocom.aircraft[0].dataLink[1] actualCapacity:vector ETV
attr "" ""
attr source computeActualCapacity
vector 15 Aerocom.aircraft[0].dataLink[2] actualCapacity:vector ETV
attr "" ""
attr source computeActualCapacity
vector 16 Aerocom.aircraft[0].dataLink[3] actualCapacity:vector ETV
attr "" ""
attr source computeActualCapacity
vector 17 Aerocom.aircraft[0].dataLink[5] actualCapacity:vector ETV
attr "" ""
attr source computeActualCapacity
vector 18 Aerocom.aircraft[0].dataLink[6] actualCapacity:vector ETV
attr "" ""
attr source computeActualCapacity
vector 19 Aerocom.aircraft[0].dataLink[7] actualCapacity:vector ETV
attr "" ""
attr source computeActualCapacity
vector 20 Aerocom.aircraft[0].dataLink[8] actualCapacity:vector ETV
attr "" ""
attr source computeActualCapacity
vector 21 Aerocom.aircraft[0].dataLink[9] actualCapacity:vector ETV
attr "" ""
attr source computeActualCapacity
vector 22 Aerocom.aircraft[0].dataLink[3] tDistribution:vector ETV
attr "" ""
attr source computeTDistribution
vector 23 Aerocom.aircraft[0].dataLink[4] tDistribution:vector ETV
attr "" ""
attr source computeTDistribution
vector 24 Aerocom.aircraft[0].dataLink[6] tDistribution:vector ETV
attr "" ""
attr source computeTDistribution
0	1072	10.005245567619	0.042154151607
0	1077	10.047399719226	0.015736083043
0	1082	10.063135802269	0.060825432672
0	1089	10.123961234941	0.066437893688
0	1094	10.190399128629	0.017017336912
0	1099	10.207416465541	0.163757158886
0	1106	10.371173624427	0.028395207674
0	1111	10.399568832101	0.014301048625
0	1116	10.413869880726	0.070551220465
0	1122	10.484421101191	0.042919648391
0	1127	10.527340749582	0.025217190329
0	1132	10.552557939911	0.044829543539
0	1137	10.59738748345	0.113186678793
0	1143	10.710574162243	0.042461040578
0	1148	10.753035202821	0.050932936501
0	1153	10.803968139322	0.012620999645
0	1158	10.816589138967	0.111075344924
0	1164	10.927664483891	0.152614082844
0	1169	11.080278566735	0.056980398177
0	1174	11.137258964912	0.029631201373
0	1180	11.166890166285	0.029818969716
0	1185	11.196709136001	0.093672993993
0	1190	11.290382129994	0.192150329162
0	1195	11.482532459156	0.060111928362
0	1200	11.542644387518	0.006176332368
0	1203	11.548820719886	0.017651006664
0	1211	11.56647172655	0.072840927928
0	1216	11.639312654478	0.084046110227
0	1221	11.723358764705	0.026536124831
0	1226	11.749894889536	0.025250937388
0	1231	11.775145826924	0.056264100842
0	1236	11.831409927766	0.106474969803
0	1242	11.937884897569	0.014370523804
0	1247	11.952255421373	0.043526791316
0	1252	11.995782212689	0.01878694212
0	1258	12.014569154809	0.106741522499
0	1261	12.121310677308	0.168218522653
0	1263	12.289529199961	0.058969146682
0	1266	12.348498346643	0.044393070522
0	1269	12.392891417165	0.06459546344
0	1271	12.457486880605	0.053891744207
0	1277	12.511378624812	0.034789973045
0	1295	12.546168597857	0.038093388565
0	1303	12.584261986422	0.156273417883
0	1308	12.740535404305	0.013102862084
0	1313	12.753638266389	0.051639850532
0	1319	12.805278116921	0.025115539913
0	1325	12.830393656834	0.027569799507
0	1330	12.857963456341	0.048222678275
0	1335	12.906186134616	0.04662014402
0	1340	12.952806278636	0.032205235416
0	1345	12.985011514052	0.000968989067
0	1347	12.985980503119	0.031756385782
0	1357	13.017736888901	0.017946360793
0	1364	13.035683249694	0.062952175863
0	1374	13.098635425557	0.053966009933
0	1380	13.15260143549	0.016983236629
0	1386	13.169584672119	0.017129981235
0	1391	13.186714653354	0.024181784329
0	1396	13.210896437683	0.048118752789
0	1402	13.259015190472	0.069148960327
0	1409	13.328164150799	0.027998053504
0	1415	13.356162204303	0.105372380248
0	1424	13.461534584551	0.007278698922
0	1426	13.468813283473	0.005427354925
0	1431	13.474240638398	0.017711206612
0	1439	13.49195184501	0.004846137729
0	1442	13.496797982739	0.04219442363
0	1452	13.538992406369	0.021851400689
0	1458	13.560843807058	0.044686453915
0	1463	13.605530260973	0.040127599288
0	1469	13.645657860261	0.042703986782
0	1476	13.688361847043	0.001710170918
0	1478	13.690072017961	0.052950469269
0	1488	13.74302248723	0.173626773964
0	1496	13.916649261194	0.052792480433
0	1502	13.969441741627	0.019356504607
0	1510	13.988798246234	0.028230525056
0	1517	14.01702877129	0.012504074749
0	1522	14.029532846039	0.113431699635
0	1530	14.142964545674	0.007614681263
0	1532	14.150579226937	0.022908644198
0	1541	14.173487871135	0.005116030743
0	1543	14.178603901878	0.028623077571
0	1553	14.207226979449	0.206890488026
0	1563	14.414117467475	0.111245732861
0	1571	14.525363200336	0.015078295661
0	1578	14.540441495997	0.082044878896
0	1583	14.622486374893	0.038503842977
0	1590	14.66099021787	0.060850974767
0	1598	14.721841192637	0.029703674916
0	1603	14.751544867553	0.005280632181
0	1605	14.756825499734	0.00524409178
0	1610	14.762069591514	0.125964106504
0	1618	14.888033698018	0.021717282797
0	1623	14.909750980815	0.062630376246
0	1630	14.972381357061	0.031673130886
0	1635	15.004054487947	0.338269525997
0	1648	15.342324013944	0.091986639254
0	1655	15.434310653198	0.008093504336
0	1657	15.442404157534	0.117508864488
0	1668	15.559913022022	0.101295440855
0	1673	15.661208462877	0.001914145644
0	1675	15.663122608521	0.008866278757
0	1680	15.671988887278	0.035495896361
0	1688	15.707484783639	0.047798321196
0	1693	15.755283104835	0.009126930094
0	1698	15.764410034929	0.006609185481
0	1700	15.77101922041	0.07549117278
0	1709	15.84651039319	0.094196444329
0	1715	15.940706837519	0.100099324776
0	1723	16.040806162295	0.082335955066
0	1729	16.123142117361	0.026500143907
0	1734	16.149642261268	0.042094048087
0	1742	16.191736309355	0.00753955051
0	1747	16.199275859865	0.026143501504
0	1753	16.225419361369	0.001689339278
0	1755	16.227108700647	0.003583769216
0	1757	16.230692469863	0.20249234194
0	1775	16.433184811803	0.059771928314
0	1781	16.492956740117	0.02336362832
0	1787	16.516320368437	0.030214953592
0	1792	16.546535322029	0.027242856407
0	1797	16.573778178436	0.064016710191
0	1802	16.637794888627	0.002595627609
0	1804	16.640390516236	0.10063863681
0	1812	16.741029153046	0.02274559224
0	1817	16.763774745286	0.185498029595
0	1823	16.949272774881	0.0008383883
0	1825	16.950111163181	0.096828861875
0	1833	17.046940025056	0.013116465458
0	1839	17.060056490514	0.000589161596
0	1841	17.06064565211	0.072389704099
0	1849	17.133035356209	0.022312641026
0	1854	17.155347997235	0.144230587605
0	1859	17.29957858484	0.065464918201
0	1866	17.365043503041	0.069314567601
0	1871	17.434358070642	0.009414748761
0	1876	17.443772819403	0.020730627133
0	1881	17.464503446536	0.036806554999
0	1886	17.501310001535	0.033623025842
0	1891	17.534933027377	0.002793502644
0	1893	17.537726530021	0.020698946134
0	1901	17.558425476155	0.011156960405
0	1906	17.56958243656	0.009891475373
0	1911	17.579473911933	0.000934773521
0	1913	17.580408685454	0.00937594756
0	1918	17.589784633014	0.078920636105
0	1926	17.668705269119	0.031129867199
0	1931	17.699835136318	0.012675285257
0	1936	17.712510421575	0.103801553022
0	1941	17.816311974597	0.021182855068
0	1946	17.837494829665	0.14422721442
0	1951	17.981722044085	0.131610943127
0	1956	18.113332987212	0.046856935886
0	1962	18.160189923098	0.060939840167
0	1967	18.221129763265	0.045398201366
0	1972	18.266527964631	0.001617840232
0	1974	18.268145804863	0.076541561313
0	1982	18.344687366176	0.008997867078
0	1987	18.353685233254	0.034659988477
0	1993	18.388345221731	0.048574107905
0	1999	18.436919329636	0.00258414529
0	2001	18.439503474926	0.043046181834
0	2009	18.48254965676	0.060048545327
0	2014	18.542598202087	0.013583403517
0	2019	18.556181605604	0.2439566444
0	2026	18.800138250004	0.136067412796
0	2031	18.9362056628	0.015548390248
0	2036	18.951754053048	0.047591485377
0	2041	18.999345538425	0.056829824763
0	2046	19.056175363188	0.038353982729
0	2051	19.094529345917	0.099858598374
0	2058	19.194387944291	0.044568928846
0	2064	19.238956873137	0.069483853189
0	2070	19.308440726326	0.065489268568
0	2075	19.373929994894	0.166896716693
0	2080	19.540826711587	0.018694324795
0	2085	19.559521036382	0.04039900267
0	2090	19.599920039052	0.025393256134
0	2095	19.625313295186	0.011937643642
0	2100	19.637250938828	0.011776228671
0	2105	19.649027167499	0.012579930656
0	2110	19.661607098155	0.010301602424
0	2115	19.671908700579	0.01234296344
0	2120	19.684251664019	0.144453779595
0	2125	19.828705443614	0.042148938771
0	2130	19.870854382385	0.067267371662
0	2136	19.938121754047	0.030083949326
0	2141	19.968205703373	0.033712228482
0	2147	20.001917931855	0.175723934027
0	2149	20.177641865882	0.012900638197
0	2151	20.190542504079	0.057056895143
0	2153	20.247599399222	0.014675382596
0	2155	20.262274781818	0.0044577145
0	2157	20.266732496318	0.002989048146
0	2159	20.269721544464	0.002903618106
0	2161	20.27262516257	0.028494878265
0	2163	20.301120040835	0.033455686184
0	2165	20.334575727019	0.01868348972
0	2167	20.353259216739	0.106433504727
0	2170	20.459692721466	0.059592905183
0	2180	20.519285626649	0.187334730691
0	2215	20.70662035734	0.023720814517
0	2220	20.730341171857	0.048071978579
0	2225	20.778413150436	0.009898386767
0	2230	20.788311537203	0.039098786044
0	2235	20.827410323247	0.001249417666
0	2237	20.828659740913	0.096418006844
0	2246	20.925077747757	0.003480883554
0	2248	20.928558631311	0.068096586215
0	2256	20.996655217526	0.056876925277
0	2261	21.053532142803	0.032561536596
0	2266	21.086093679399	0.030229060917
0	2271	21.116322740316	0.056517777296
0	2276	21.172840517612	0.038455990055
0	2282	21.211296507667	0.04670301663
0	2287	21.257999524297	0.113492000789
0	2292	21.371491525086	0.062710163505
0	2297	21.434201688591	0.231982626319
0	2302	21.66618431491	0.03169650097
0	2307	21.69788081588	0.012224551102
0	2312	21.710105366982	0.030441645687
0	2317	21.740547012669	0.054395221681
0	2323	21.79494223435	0.118445908542
0	2328	21.913388142892	0.015280245091
0	2333	21.928668387983	0.007379801645
0	2338	21.936048189628	0.001043360931
0	2340	21.937091550559	0.013017570577
0	2345	21.950109121136	0.071019172779
0	2353	22.021128293915	0.106678164374
0	2359	22.127806458289	0.019284384702
0	2364	22.147090842991	0.117392188071
0	2369	22.264483031062	0.024181919374
0	2374	22.288664950436	0.051892503774
0	2380	22.34055745421	0.044375096424
0	2385	22.384932550634	0.019628651409
0	2390	22.404561202043	0.088907166842
0	2395	22.493468368885	0.036668383658
0	2400	22.530136752543	0.049575214645
0	2405	22.579711967188	2.767595e-006
0	2407	22.579714734783	0.103041062044
0	2415	22.682755796827	0.018688164691
0	2420	22.701443961518	0.015978732744
0	2425	22.717422694262	0.027708541452
0	2430	22.745131235714	0.079985972092
0	2435	22.825117207806	0.108288184044
0	2440	22.93340539185	0.010267388437
0	2445	22.943672780287	0.056952882534
0	2450	23.000625662821	0.15265923348
0	2456	23.153284896301	0.030452230635
0	2461	23.183737126936	0.058155664171
0	2466	23.241892791107	0.033025153987
0	2471	23.274917945094	0.012135924684
0	2477	23.287053869778	0.07773314689
0	2482	23.364787016668	0.147224013871
0	2488	23.512011030539	0.013032006469
0	2493	23.525043037008	0.065625399648
0	2499	23.590668436656	0.106137332697
0	2506	23.696805769353	0.014647572924
0	2511	23.711453342277	0.018821467576
0	2516	23.730274809853	0.011996175972
0	2521	23.742270985825	0.157854777071
0	2526	23.900125762896	0.036511383262
0	2531	23.936637146158	0.03190943028
0	2536	23.968546576438	0.00129988726
0	2538	23.969846463698	0.062167538897
0	2547	24.032014002595	0.011626250919
0	2549	24.043640253514	0.008343732062
0	2551	24.051983985576	0.027641918533
0	2553	24.079625904109	0.065548618408
0	2556	24.145174522517	0.023433823799
0	2558	24.168608346316	0.051960281829
0	2560	24.220568628145	0.031141465488
0	2563	24.251710093633	0.012095982239
0	2565	24.263806075872	0.016260800899
0	2567	24.280066876771	0.01031789968
0	2569	24.290384776451	0.044189282802
0	2571	24.334574059253	0.082403808658
0	2573	24.416977867911	0.099701960064
0	2583	24.516679827975	0.06873399769
0	2610	24.585413825665	0.006251629496
0	2615	24.591665455161	0.056173024977
0	2632	24.647838480138	0.036426192137
0	2638	24.684264672275	0.016209955674
0	2643	24.700474627949	0.00708210174
0	2645	24.707556729689	0.009613072042
0	2653	24.717169801731	0.063090633674
0	2658	24.780260435405	0.060949967259
0	2663	24.841210402664	0.025213996663
0	2668	24.866424399327	0.031101845954
0	2673	24.897526245281	0.041668912032
0	2679	24.939195157313	0.091763170147
0	2686	25.03095832746	0.010122938185
0	2691	25.041081265645	0.01146221626
0	2696	25.052543481905	0.007823788519
0	2698	25.060367270424	0.009013714979
0	2706	25.069380985403	0.033477029543
0	2711	25.102858014946	0.006667031164
0	2713	25.10952504611	0.021972769525
0	2722	25.131497815635	0.064021217699
0	2727	25.195519033334	0.141031797421
0	2732	25.336550830755	0.001546314578
0	2734	25.338097145333	0.072477738821
0	2742	25.410574884154	0.068717150721
0	2747	25.479292034875	0.069048154783
0	2752	25.548340189658	0.004858383918
0	2754	25.553198573576	0.117024598033
0	2762	25.670223171609	0.012259904632
0	2767	25.682483076241	0.004355429163
0	2769	25.686838505404	0.069165823308
0	2777	25.756004328712	0.040169588133
0	2782	25.796173916845	0.065781312915
0	2787	25.86195522976	0.043910753936
0	2792	25.905865983696	0.002334387182
0	2794	25.908200370878	0.163424820041
0	2802	26.071625190919	0.011732792463
0	2807	26.083357983382	0.017275979185
0	2812	26.100633962567	0.016907735742
0	2818	26.117541698309	0.013776396852
0	2823	26.131318095161	0.056545923959
0	2828	26.18786401912	0.005284358705
0	2830	26.193148377825	0.003255643239
0	2835	26.196404021064	0.000828304721
0	2837	26.197232325785	0.040557051111
0	2848	26.237789376896	0.132627925776
0	2853	26.370417302672	0.000464151219
0	2855	26.370881453891	0.055420487711
0	2864	26.426301941602	0.089499480224
0	2869	26.515801421826	0.076891435724
0	2875	26.59269285755	0.207798554778
0	2880	26.800491412328	0.016545494059
0	2885	26.817036906387	0.060784523668
0	2890	26.877821430055	0.044144027248
0	2895	26.921965457303	0.010022109754
0	2900	26.931987567057	0.003304600535
0	2902	26.935292167592	0.035912324005
0	2911	26.971204491597	0.033240387478
0	2916	27.004444879075	0.043428286573
0	2921	27.047873165648	0.189701189154
0	2928	27.237574354802	0.077450583958
0	2933	27.31502493876	0.104577828631
0	2938	27.419602767391	0.046630592763
0	2944	27.466233360154	0.020636493336
0	2949	27.48686985349	0.012320791111
0	2954	27.499190644601	0.162946048859
0	2960	27.66213669346	0.030363964431
0	2965	27.692500657891	0.013178855642
0	2970	27.705679513533	0.105544438719
0	2975	27.811223952252	0.149110033774
0	2980	27.960333986026	0.033890100103
0	2985	27.994224086129	0.141832009669
0	2991	28.136056095798	0.062861849779
0	2995	28.198917945577	0.080272938153
0	2997	28.27919088373	0.033292124332
0	2999	28.312483008062	0.049773182168
0	3001	28.36225619023	0.061644023152
0	3004	28.423900213382	0.103688073155
0	3017	28.527588286537	0.034471726892
0	3031	28.562060013429	0.017337665189
0	3036	28.579397678618	0.093071582149
0	3041	28.672469260767	0.094505084905
0	3046	28.766974345672	0.01080481083
0	3051	28.777779156502	0.04810059633
0	3057	28.825879752832	0.074212124133
0	3062	28.900091876965	0.000666262241
0	3064	28.900758139206	0.182982866538
0	3080	29.083741005744	0.021326790602
0	3086	29.105067796346	0.09913744523
0	3092	29.204205241576	0.008016704724
0	3097	29.2122219463	0.075803446491
0	3104	29.288025392791	0.200397482744
0	3115	29.488422875535	0.210092971312
0	3122	29.698515846847	0.032539867118
0	3130	29.731055713965	0.070033784848
0	3136	29.801089498813	0.034397173923
0	3141	29.835486672736	0.000202816066
0	3143	29.835689488802	0.051009354398
0	3151	29.8866988432	0.015699894903
0	3156	29.902398738103	0.022989565889
0	3161	29.925388303992	0.026423361415
0	3166	29.951811665407	0.007361251866
0	3169	29.959172917273	0.0279503835
0	3177	29.987123300773	0.086331668987
0	3183	30.07345496976	0.017679828763
0	3188	30.091134798523	0.01052666441
0	3193	30.101661462933	0.025635732131
0	3198	30.127297195064	0.0358022659
0	3203	30.163099460964	0.006429011864
0	3205	30.169528472828	0.012700568918
0	3213	30.182229041746	0.197381663378
0	3225	30.379610705124	0.005148418186
0	3227	30.38475912331	0.026053941054
0	3237	30.410813064364	0.099094517055
0	3247	30.509907581419	0.042106815142
0	3252	30.552014396561	0.180447050249
0	3266	30.73246144681	0.021049664902
0	3271	30.753511111712	0.161998148345
0	3279	30.915509260057	0.077764718018
0	3285	30.993273978075	0.118519379031
0	3293	31.111793357106	0.026498078964
0	3299	31.13829143607	0.074371487717
0	3304	31.212662923787	0.02225746697
0	3309	31.234920390757	0.020259144117
0	3315	31.255179534874	0.025499541692
0	3321	31.280679076566	0.004228974588
0	3323	31.284908051154	0.017964695256
0	3331	31.30287274641	0.026148382683
0	3336	31.329021129093	0.07463160821
0	3341	31.403652737303	0.013213523207
0	3346	31.41686626051	0.130328590116
0	3355	31.547194850626	0.00710627557
0	3357	31.554301126196	0.019675120556
0	3365	31.573976246752	0.002745368628
0	3367	31.57672161538	0.15274298895
0	3378	31.72946460433	0.06465739294
0	3386	31.79412199727	0.000702329562
0	3388	31.794824326832	0.00057466251
0	3390	31.795398989342	0.038121184211
0	3403	31.833520173553	0.0736102079
0	3409	31.907130381453	0.018162110945
0	3415	31.925292492398	0.007946658983
0	3418	31.933239151381	0.107219273226
0	3428	32.040458424607	0.004143113646
0	3430	32.044601538253	0.014425635517
0	3433	32.05902717377	0.004693727364
0	3438	32.063720901134	0.05656893838
0	3453	32.120289839514	0.055744371095
0	3458	32.176034210609	0.083148289034
0	3464	32.259182499643	0.014076201124
0	3469	32.273258700767	0.028294727082
0	3474	32.301553427849	0.027282885738
0	3482	32.328836313587	0.069743454563
0	3488	32.39857976815	0.040750916545
0	3495	32.439330684695	0.08848099116
0	3503	32.527811675855	0.09850287828
0	3509	32.626314554135	0.02382392913
0	3514	32.650138483265	0.06492228178
0	3519	32.715060765045	0.005076704197
0	3521	32.720137469242	0.015758001436
0	3529	32.735895470678	0.014795093662
0	3534	32.75069056434	0.007048394221
0	3536	32.757738958561	0.044816460251
0	3544	32.802555418812	0.002848326623
0	3546	32.805403745435	0.032358735202
0	3555	32.837762480637	0.017948065919
0	3560	32.855710546556	0.033465143599
0	3565	32.889175690155	0.015198577961
0	3570	32.904374268116	0.03067195448
0	3576	32.935046222596	0.030453222766
0	3581	32.965499445362	0.037179159589
0	3586	33.002678604951	0.057487069387
0	3592	33.060165674338	0.029171188552
0	3597	33.08933686289	0.059474812567
0	3602	33.148811675457	0.095742112882
0	3608	33.244553788339	0.016670166919
0	3613	33.261223955258	0.028408524187
0	3618	33.289632479445	0.023895899376
0	3623	33.313528378821	0.087685732251
0	3629	33.401214111072	0.009992776896
0	3634	33.411206887968	0.035600403281
0	3639	33.446807291249	0.077687275102
0	3645	33.524494566351	0.004516862204
0	3647	33.529011428555	0.002926394947
0	3652	33.531937823502	0.053946345425
0	3660	33.585884168927	0.05970066853
0	3665	33.645584837457	0.011571048598
0	3670	33.657155886055	0.075410761581
0	3676	33.732566647636	0.093955921711
0	3681	33.826522569347	0.075120639686
0	3687	33.901643209033	0.057184531029
0	3692	33.958827740062	0.015016254014
0	3697	33.973843994076	0.009823094295
0	3702	33.983667088371	0.023405322662
0	3707	34.007072411033	0.003620955506
0	3709	34.010693366539	0.044288032301
0	3717	34.05498139884	0.000486770467
0	3719	34.055468169307	0.015929192394
0	3727	34.071397361701	0.111304199472
0	3732	34.182701561173	0.023169501377
0	3738	34.20587106255	0.007162651069
0	3743	34.213033713619	0.010973408045
0	3748	34.224007121664	0.075523080061
0	3753	34.299530201725	0.030795964189
0	3758	34.330326165914	0.129622430439
0	3765	34.459948596353	0.002281902475
0	3767	34.462230498828	0.062794674217
0	3776	34.525025173045	0.080420892454
0	3781	34.605446065499	0.033747548683
0	3787	34.639193614182	0.004003942797
0	3789	34.643197556979	0.031696606325
0	3799	34.674894163304	0.036577266957
0	3804	34.711471430261	0.107154985021
0	3809	34.818626415282	0.018322564592
0	3814	34.836948979874	0.033511593829
0	3819	34.870460573703	0.04308337459
0	3824	34.913543948293	0.026770217555
0	3829	34.940314165848	0.160240441481
0	3835	35.100554607329	0.009564802295
0	3840	35.110119409624	0.051862254705
0	3845	35.161981664329	0.032245424558
0	3850	35.194227088887	0.001800141487
0	3852	35.196027230374	0.076542420947
0	3860	35.272569651321	0.028141260091
0	3865	35.300710911412	0.040644918059
0	3870	35.341355829471	0.03566921414
0	3875	35.377025043611	0.008709758019
0	3880	35.38573480163	0.038412667093
0	3885	35.424147468723	0.007764279275
0	3887	35.431911747998	0.057189768956
0	3895	35.489101516954	0.052414455248
0	3901	35.541515972202	0.016258543524
0	3906	35.557774515726	0.038742118975
0	3911	35.596516634701	0.006897661596
0	3913	35.603414296297	0.019702878597
0	3921	35.623117174894	0.024934616644
0	3926	35.648051791538	0.00795060084
0	3928	35.656002392378	0.156641474477
0	3936	35.812643866855	0.008709935829
0	3941	35.821353802684	0.010359259113
0	3946	35.831713061797	0.006929341071
0	3948	35.838642402868	0.117161996505
0	3956	35.955804399373	0.043246905471
0	3961	35.999051304844	0.03924185098
0	3969	36.038293155824	0.004839873615
0	3971	36.043133029439	0.03052414225
0	3973	36.073657171689	0.120700821525
0	3975	36.194357993214	0.106871084521
0	3977	36.301229077735	0.004330849722
0	3979	36.305559927457	0.030680210487
0	3981	36.336240137944	0.080566599956
0	3983	36.4168067379	0.064398098754
0	3985	36.481204836654	0.104831813676
0	4016	36.58603665033	0.025460124343
0	4021	36.611496774673	0.004905976131
0	4023	36.616402750804	0.11719348204
0	4031	36.733596232844	0.027782945658
0	4036	36.761379178502	0.058563184747
0	4042	36.819942363249	0.032048677263
0	4047	36.851991040512	0.060135689191
0	4052	36.912126729703	0.043398499101
0	4058	36.955525228804	0.019854047501
0	4063	36.975379276305	0.062982058531
0	4072	37.038361334836	0.070689166477
0	4084	37.109050501313	0.001372105022
0	4086	37.110422606335	0.050538458155
0	4096	37.16096106449	0.065726104904
0	4102	37.226687169394	0.0137231761
0	4107	37.240410345494	0.072828010579
0	4114	37.313238356073	0.008749752411
0	4119	37.321988108484	0.00049072182
0	4121	37.322478830304	0.07957780614
0	4131	37.402056636444	0.018429146981
0	4137	37.420485783425	0.159912748839
0	4146	37.580398532264	0.01325465507
0	4151	37.593653187334	0.030637272243
0	4158	37.624290459577	0.035001281806
0	4163	37.659291741383	0.044700070134
0	4169	37.703991811517	0.153653761139
0	4179	37.857645572656	0.097498845592
0	4187	37.955144418248	0.040800928198
0	4192	37.995945346446	0.030552878064
0	4197	38.02649822451	0.00512759465
0	4199	38.03162581916	0.15169712862
0	4211	38.18332294778	0.048600544553
0	4217	38.231923492333	0.042871755131
0	4222	38.274795247464	0.099396972742
0	4228	38.374192220206	0.085953465589
0	4233	38.460145685795	0.008576931369
0	4239	38.468722617164	0.119758989469
0	4249	38.588481606633	0.244174949517
0	4257	38.83265655615	0.084511747738
0	4263	38.917168303888	0.004441619133
0	4265	38.921609923021	0.00868282816
0	4270	38.930292751181	0.004961076324
0	4275	38.935253827505	0.049563975288
0	4285	38.984817802793	0.050202558694
0	4290	39.035020361487	0.025410972703
0	4295	39.06043133419	0.149088982866
0	4303	39.209520317056	0.003238284639
0	4305	39.212758601695	0.138030222784
0	4314	39.350788824479	0.02758518063
0	4319	39.378374005109	0.029654079866
0	4325	39.408028084975	0.014966419121
0	4330	39.422994504096	0.065041871373
0	4339	39.488036375469	0.094536457722
0	4347	39.582572833191	0.067785925693
0	4352	39.650358758884	0.001693592762
0	4354	39.652052351646	0.01833525769
0	4362	39.670387609336	0.159688093634
0	4369	39.83007570297	0.00637867869
0	4371	39.83645438166	0.021953849279
0	4379	39.858408230939	0.029338440334
0	4386	39.887746671273	0.022057740536
0	4391	39.909804411809	0.024860464317
0	4398	39.934664876126	0.000823164199
0	4400	39.935488040325	0.037948238712
0	4408	39.973436279037	0.010242613357
0	4413	39.983678892394	0.093332023509
0	4420	40.077010915903	0.025646349591
0	4426	40.102657265494	0.03842312887
0	4431	40.141080394364	0.132459413112
0	4441	40.273539807476	0.057013943846
0	4446	40.330553751322	0.005246637366
0	4448	40.335800388688	0.046975099293
0	4459	40.382775487981	0.145295980183
0	4472	40.528071468164	0.005183541832
0	4474	40.533255009996	0.101814709364
0	4482	40.63506971936	0.004827063951
0	4484	40.639896783311	0.030271689082
0	4492	40.670168472393	0.002879645841
0	4494	40.673048118234	0.01977828002
0	4503	40.692826398254	0.004525373507
0	4505	40.697351771761	0.013246746882
0	4513	40.710598518643	0.013536219537
0	4518	40.72413473818	0.047656126913
0	4524	40.771790865093	0.091477107793
0	4530	40.863267972886	0.001681696046
0	4532	40.864949668932	0.036946000997
0	4540	40.901895669929	0.000786456189
0	4542	40.902682126118	0.035982244884
0	4550	40.938664371002	0.028000418667
0	4556	40.966664789669	0.052467108296
0	4561	41.019131897965	0.003525097418
0	4564	41.022656995383	0.039327954595
0	4572	41.061984949978	0.014513670756
0	4577	41.076498620734	0.001650199253
0	4579	41.078148819987	0.012497540832
0	4584	41.090646360819	0.043393093494
0	4592	41.134039454313	0.014597303586
0	4597	41.148636757899	0.073721111239
0	4602	41.222357869138	0.007023785848
0	4604	41.229381654986	0.023598404389
0	4612	41.252980059375	0.000605462253
0	4614	41.253585521628	0.033767793509
0	4622	41.287353315137	0.006135750366
0	4624	41.293489065503	0.199878173836
0	4633	41.493367239339	0.048179634814
0	4638	41.541546874153	0.014028796309
0	4643	41.555575670462	0.182978105923
0	4649	41.738553776385	0.023446066364
0	4654	41.761999842749	0.232013999797
0	4661	41.994013842546	0.002336745087
0	4663	41.996350587633	0.026301539788
0	4671	42.022652127421	0.01855808604
0	4676	42.041210213461	0.008893837893
0	4681	42.050104051354	0.089046733745
0	4687	42.139150785099	0.05091087894
0	4692	42.190061664039	0.082259171354
0	4698	42.272320835393	0.033697172211
0	4703	42.306018007604	0.05108591737
0	4708	42.357103924974	0.227391192593
0	4715	42.584495117567	0.022951396374
0	4720	42.607446513941	0.003376707844
0	4722	42.610823221785	0.018753097156
0	4730	42.629576318941	0.076446943536
0	4735	42.706023262477	0.080933053321
0	4740	42.786956315798	0.017011860981
0	4745	42.803968176779	0.003652582858
0	4747	42.807620759637	0.013815259646
0	4755	42.821436019283	0.057533129646
0	4760	42.878969148929	0.054310165558
0	4765	42.933279314487	0.023960634724
0	4770	42.957239949211	0.014122335598
0	4775	42.971362284809	0.050246665453
0	4780	43.021608950262	0.05480962805
0	4785	43.076418578312	0.130782046621
0	4791	43.207200624933	0.036418878652
0	4796	43.243619503585	0.096186928533
0	4801	43.339806432118	0.027590106082
0	4807	43.3673965382	0.034425694402
0	4812	43.401822232602	0.040448984757
0	4817	43.442271217359	0.027916339463
0	4822	43.470187556822	0.016917305935
0	4827	43.487104862757	0.086455981884
0	4832	43.573560844641	0.061306610612
0	4837	43.634867455253	0.067013798099
0	4842	43.701881253352	0.026794939767
0	4847	43.728676193119	0.029632870897
0	4852	43.758309064016	0.02235699513
0	4858	43.780666059146	0.173532254027
0	4864	43.954198313173	0.088204369609
0	4871	44.042402682782	0.022561939925
0	4873	44.064964622707	0.129491307275
0	4876	44.194455929982	0.025336160695
0	4878	44.219792090677	0.002354963553
0	4880	44.22214705423	0.067100987059
0	4883	44.289248041289	0.013239113667
0	4885	44.302487154956	0.02980859457
0	4887	44.332295749526	0.021425380209
0	4889	44.353721129735	0.138457224142
0	4891	44.492178353877	0.084360914438
0	4924	44.576539268315	0.014868676395
0	4929	44.59140794471	0.211650789817
0	4934	44.803058734527	0.024043911215
0	4939	44.827102645742	0.173642785295
0	4944	45.000745431037	0.059724497175
0	4949	45.060469928212	0.117666738404
0	4955	45.178136666616	0.113685358334
0	4961	45.29182202495	0.017588369271
0	4966	45.309410394221	0.006451925159
0	4968	45.31586231938	0.241486012398
0	4979	45.557348331778	0.013823635827
0	4984	45.571171967605	0.014345454769
0	4989	45.585517422374	0.012955612794
0	4994	45.598473035168	0.005597227057
0	4996	45.604070262225	0.033619145102
0	5004	45.637689407327	0.150748413609
0	5009	45.788437820936	0.11106070916
0	5015	45.899498530096	0.013290827451
0	5020	45.912789357547	0.0221667198
0	5025	45.934956077347	0.058521786501
0	5030	45.993477863848	0.024325956988
0	5035	46.017803820836	0.003006418457
0	5037	46.020810239293	0.124281554217
0	5045	46.14509179351	0.065598154054
0	5050	46.210689947564	0.006041569813
0	5052	46.216731517377	0.106735119727
0	5060	46.323466637104	0.049864946208
0	5065	46.373331583312	0.01590272726
0	5070	46.389234310572	0.007125147283
0	5072	46.396359457855	0.023825791049
0	5080	46.420185248904	0.023439784582
0	5085	46.443625033486	0.023443907781
0	5090	46.467068941267	0.019608064481
0	5095	46.486677005748	0.069072953992
0	5100	46.55574995974	0.056989770333
0	5105	46.612739730073	0.013577789584
0	5110	46.626317519657	0.079367861485
0	5115	46.705685381142	0.009428236213
0	5120	46.715113617355	0.035052275466
0	5125	46.750165892821	0.029827495844
0	5130	46.779993388665	0.017566064077
0	5135	46.797559452742	0.018153942009
0	5140	46.815713394751	0.108561294068
0	5146	46.924274688819	0.091376313391
0	5151	47.01565100221	0.021683242769
0	5156	47.037334244979	0.013573498321
0	5161	47.0509077433	0.06704508623
0	5167	47.11795282953	0.034896877442
0	5172	47.152849706972	0.040524657359
0	5177	47.193374364331	0.142871267391
0	5182	47.336245631722	0.011252124693
0	5187	47.347497756415	0.050255782429
0	5192	47.397753538844	0.039761110065
0	5197	47.437514648909	0.100979225161
0	5203	47.53849387407	0.036661266934
0	5208	47.575155141004	0.140845586498
0	5213	47.716000727502	0.021445591789
0	5218	47.737446319291	0.069467925347
0	5224	47.806914244638	0.001246404786
0	5226	47.808160649424	0.060127867235
0	5234	47.868288516659	0.008057128941
0	5240	47.8763456456	0.172047202379
0	5246	48.048392847979	0.007069655637
0	5248	48.055462503616	0.259256471152
0	5251	48.314718974768	0.061535942552
0	5253	48.37625491732	0.030057732319
0	5255	48.406312649639	0.061733993803
0	5257	48.468046643442	0.003675318871
0	5259	48.471721962313	0.047305087063
0	5268	48.519027049376	0.017321666375
0	5279	48.536348715751	0.055722911586
0	5293	48.592071627337	0.008264650616
0	5298	48.600336277953	0.029666528413
0	5303	48.630002806366	0.02702013488
0	5308	48.657022941246	0.05954907267
0	5314	48.716572013916	0.007037257771
0	5316	48.723609271687	0.023766983482
0	5324	48.747376255169	0.046331930015
0	5329	48.793708185184	0.005269806496
0	5331	48.79897799168	0.024128760758
0	5339	48.823106752438	0.161265804186
0	5345	48.984372556624	0.112873839538
0	5350	49.097246396162	0.003759590458
0	5352	49.10100598662	0.171781169624
0	5361	49.272787156244	0.000974464648
0	5363	49.273761620892	0.03958045473
0	5371	49.313342075622	0.19454550452
0	5379	49.507887580142	0.016067015143
0	5384	49.523954595285	0.008036502028
0	5389	49.531991097313	0.044852650705
0	5395	49.576843748018	0.014967650147
0	5400	49.591811398165	0.11353550537
0	5405	49.705346903535	0.012137271868
0	5410	49.717484175403	0.026105565221
0	5415	49.743589740624	0.043364600942
0	5420	49.786954341566	0.040156838596
0	5425	49.827111180162	0.185970415545
0	5430	50.013081595707	0.015848868994
0	5436	50.028930464701	0.015942052421
0	5441	50.044872517122	0.030389238206
0	5447	50.075261755328	0.17545317755
0	5454	50.250714932878	0.025684280663
0	5459	50.276399213541	0.001291402221
0	5461	50.277690615762	0.014278446025
0	5469	50.291969061787	0.109482335728
0	5475	50.401451397515	0.035247466069
0	5480	50.436698863584	0.061654436361
0	5486	50.498353299945	0.018580787741
0	5491	50.516934087686	0.016270835858
0	5496	50.533204923544	0.023343217178
0	5501	50.556548140722	0.112624643504
0	5509	50.669172784226	0.03721891307
0	5514	50.706391697296	0.001344030976
0	5516	50.707735728272	0.069433863693
0	5524	50.777169591965	0.049126417136
0	5529	50.826296009101	0.020286317193
0	5534	50.846582326294	0.019989763624
0	5539	50.866572089918	0.128955656539
0	5546	50.995527746457	0.170746245122
0	5553	51.166273991579	0.099140629014
0	5558	51.265414620593	0.009230793645
0	5563	51.274645414238	0.002495780121
0	5565	51.277141194359	0.115876303128
0	5575	51.393017497487	0.01462753006
0	5580	51.407645027547	0.020019076573
0	5585	51.42766410412	0.02954176102
0	5590	51.45720586514	0.110016466022
0	5597	51.567222331162	0.00552579383
0	5599	51.572748124992	0.035918291761
0	5608	51.608666416753	0.02142205144
0	5613	51.630088468193	0.035731709369
0	5618	51.665820177562	0.067372441185
0	5624	51.733192618747	0.024455420531
0	5630	51.757648039278	0.057052166713
0	5635	51.814700205991	0.037760590888
0	5641	51.852460796879	0.048693929574
0	5646	51.901154726453	0.144755880851
0	5652	52.045910607304	0.061984904031
0	5654	52.107895511335	0.111681992555
0	5658	52.21957750389	0.011465858582
0	5660	52.231043362472	0.056522859916
0	5662	52.287566222388	0.020904582947
0	5664	52.308470805335	0.050947659054
0	5666	52.359418464389	0.056388021679
0	5668	52.415806486068	0.039743641803
0	5670	52.455550127871	0.105695340732
0	5699	52.561245468603	0.015919650803
0	5708	52.577165119406	0.039227834846
0	5713	52.616392954252	0.008024205368
0	5718	52.62441715962	0.016613031179
0	5723	52.641030190799	0.097002410494
0	5728	52.738032601293	0.001535088651
0	5730	52.739567689944	0.050400677024
0	5739	52.789968366968	0.061951825369
0	5745	52.851920192337	0.017808289078
0	5750	52.869728481415	0.000395767325
0	5752	52.87012424874	0.030829654426
0	5760	52.900953903166	0.023314851322
0	5765	52.924268754488	0.001241660387
0	5767	52.925510414875	0.03780831239
0	5775	52.963318727265	0.040829634442
0	5780	53.004148361707	0.127623824677
0	5785	53.131772186384	0.022404398419
0	5790	53.154176584803	0.00468776938
0	5792	53.158864354183	0.034929050304
0	5800	53.193793404487	0.026038943244
0	5805	53.219832347731	0.008339787906
0	5810	53.228172135637	0.001230682204
0	5812	53.229402817841	0.027713423671
0	5820	53.257116241512	0.020973966173
0	5826	53.278090207685	0.118314513192
0	5831	53.396404720877	0.048673627182
0	5836	53.445078348059	0.000427400932
0	5838	53.445505748991	0.016360519066
0	5847	53.461866268057	0.173469691939
0	5854	53.635335959996	0.011770293325
0	5859	53.647106253321	0.05870350684
0	5864	53.705809760161	0.006148128344
0	5866	53.711957888505	0.005235613671
0	5871	53.717193502176	0.043035735376
0	5879	53.760229237552	0.017108734581
0	5885	53.777337972133	0.059416458014
0	5890	53.836754430147	0.038725839397
0	5895	53.875480269544	0.05573055015
0	5900	53.931210819694	0.064394511956
0	5905	53.99560533165	0.148660416974
0	5912	54.144265748624	0.024622068819
0	5917	54.168887817443	0.000135343729
0	5919	54.169023161172	0.012879243317
0	5924	54.181902404489	0.052092223241
0	5932	54.23399462773	0.030335620462
0	5937	54.264330248192	0.045863589846
0	5943	54.310193838038	0.178925086292
0	5948	54.48911892433	0.044426435616
0	5953	54.533545359946	0.0897336557
0	5958	54.623279015646	0.164532441513
0	5965	54.787811457159	0.12313221347
0	5971	54.910943670629	0.000850781186
0	5973	54.911794451815	0.055023426524
0	5981	54.966817878339	0.059615788711
0	5988	55.02643366705	0.029050432773
0	5994	55.055484099823	0.084014120004
0	5999	55.139498219827	0.057773736437
0	6005	55.197271956264	0.035647823956
0	6010	55.23291978022	0.052291264639
0	6015	55.285211044859	0.020320643337
0	6020	55.305531688196	0.001476590558
0	6022	55.307008278754	0.078232827535
0	6030	55.385241106289	0.125994434692
0	6036	55.511235540981	0.00511508905
0	6038	55.516350630031	0.039094221155
0	6046	55.555444851186	0.029173008615
0	6051	55.584617859801	0.236319759843
0	6058	55.820937619644	0.036693498351
0	6063	55.857631117995	0.024152651213
0	6068	55.881783769208	0.059201386817
0	6073	55.940985156025	0.08216766176
0	6079	56.023152817785	0.004764224144
0	6081	56.027917041929	0.030902618857
0	6083	56.058819660786	0.012922962436
0	6085	56.071742623222	0.087672405914
0	6087	56.159415029136	0.026407199536
0	6089	56.185822228672	0.038730686818
0	6092	56.22455291549	0.048814601148
0	6094	56.273367516638	0.109135694464
0	6096	56.382503211102	0.109001022358
0	6099	56.49150423346	0.106057722842
0	6132	56.597561956302	0.048224988088
0	6138	56.64578694439	0.019897419732
0	6143	56.665684364122	0.007162435189
0	6145	56.672846799311	0.025911392405
0	6153	56.698758191716	0.197072934231
0	6159	56.895831125947	0.039334155773
0	6164	56.93516528172	0.102702624193
0	6169	57.037867905913	0.048602448424
0	6174	57.086470354337	0.034930178347
0	6179	57.121400532684	0.023849887547
0	6184	57.145250420231	0.127775885833
0	6190	57.273026306064	0.039058439499
0	6195	57.312084745563	0.038976751442
0	6200	57.351061497005	0.006443932302
0	6202	57.357505429307	0.128396631435
0	6210	57.485902060742	0.057080776176
0	6215	57.542982836918	0.088567665966
0	6221	57.631550502884	0.016922056641
0	6226	57.648472559525	0.172550506468
0	6237	57.821023065993	0.002196361706
0	6239	57.823219427699	0.126150873068
0	6249	57.949370300767	0.006170473575
0	6251	57.955540774342	0.001834953514
0	6256	57.957375727856	0.005626497319
0	6258	57.963002225175	0.009604778807
0	6263	57.972607003982	0.019025547428
0	6274	57.99163255141	0.024643938418
0	6279	58.016276489828	0.014153621792
0	6284	58.03043011162	0.151976579507
0	6289	58.182406691127	0.04136629618
0	6294	58.223772987307	0.017835812634
0	6299	58.241608799941	0.11841180265
0	6304	58.360020602591	0.008745513005
0	6309	58.368766115596	0.043387757147
0	6314	58.412153872743	0.108711645357
0	6319	58.5208655181	0.045557290404
0	6324	58.566422808504	0.029565139278
0	6329	58.595987947782	0.013593291929
0	6334	58.609581239711	0.119230767162
0	6340	58.728812006873	0.043480768042
0	6346	58.772292774915	0.008731389824
0	6351	58.781024164739	0.007883602641
0	6353	58.78890776738	0.054105094224
0	6361	58.843012861604	0.020445876462
0	6366	58.863458738066	0.029014479399
0	6372	58.892473217465	0.04911190922
0	6378	58.941585126685	0.003978507755
0	6380	58.94556363444	0.022416465331
0	6388	58.967980099771	0.059612612104
0	6394	59.027592711875	0.120952569708
0	6400	59.148545281583	0.014210987176
0	6405	59.162756268759	0.10538901792
0	6412	59.268145286679	0.002021078883
0	6414	59.270166365562	0.028471805694
0	6422	59.298638171256	0.003090807432
0	6424	59.301728978688	0.036450336069
0	6433	59.338179314757	0.003151172213
0	6435	59.34133048697	0.032186240293
0	6443	59.373516727263	0.11915341366
0	6450	59.492670140923	0.01018926911
0	6455	59.502859410033	0.067331364427
0	6460	59.57019077446	0.028525299404
0	6465	59.598716073864	0.114169701721
0	6470	59.712885775585	0.010385164311
0	6475	59.723270939896	0.055825928678
0	6480	59.779096868574	0.062799779939
0	6485	59.841896648513	0.037638482602
0	6490	59.879535131115	0.037012609571
0	6495	59.916547740686	0.01815235772
0	6500	59.934700098406	0.019324709102
0	6505	59.954024807508	0.309795505936
0	6515	60.263820313444	0.00015521784
0	6517	60.263975531284	0.022485668397
0	6519	60.286461199681	0.045478535244
0	6522	60.331939734925	0.031805172718
0	6524	60.363744907643	0.052359612775
0	6527	60.416104520418	0.023760471939
0	6529	60.439864992357	0.00026015664
0	6531	60.440125148997	0.194432236138
0	6560	60.634557385135	0.175698941148
0	6565	60.810256326283	0.009597895098
0	6570	60.819854221381	0.054512279323
0	6575	60.874366500704	0.019873953996
0	6580	60.8942404547	0.017346444158
0	6585	60.911586898858	0.057026223748
0	6591	60.968613122606	0.011179952917
0	6596	60.979793075523	0.003264679782
0	6598	60.983057755305	0.129983662267
0	6606	61.113041417572	0.046729020817
0	6611	61.159770438389	0.018498958988
0	6616	61.178269397377	0.03247053634
0	6621	61.210739933717	0.025810172747
0	6626	61.236550106464	0.016703754153
0	6631	61.253253860617	0.050128120416
0	6637	61.303381981033	0.013617561318
0	6642	61.316999542351	0.110661361577
0	6647	61.427660903928	0.036130111877
0	6652	61.463791015805	0.028335097992
0	6657	61.492126113797	0.022937565132
0	6662	61.515063678929	0.131706569797
0	6668	61.646770248726	0.030488108643
0	6674	61.677258357369	0.044834291829
0	6679	61.722092649198	0.020585028894
0	6684	61.742677678092	0.028262764066
0	6689	61.770940442158	0.176157567061
0	6695	61.947098009219	0.044920118322
0	6700	61.992018127541	0.007161163574
0	6702	61.999179291115	0.021886972806
0	6710	62.021066263921	0.005090782099
0	6712	62.02615704602	0.053504124481
0	6720	62.079661170501	0.02103338362
0	6726	62.100694554121	0.052822049709
0	6731	62.15351660383	0.044705294406
0	6737	62.198221898236	0.086219594273
0	6742	62.284441492509	0.053819522971
0	6748	62.33826101548	0.0257723775
0	6753	62.36403339298	0.025313198354
0	6758	62.389346591334	0.001914439889
0	6760	62.391261031223	0.36167342264
0	6769	62.752934453863	0.208772180211
0	6774	62.961706634074	0.02168497352
0	6779	62.983391607594	0.029723300835
0	6784	63.013114908429	0.063900106458
0	6789	63.077015014887	0.138737731079
0	6794	63.215752745966	0.050747947918
0	6799	63.266500693884	0.055743342704
0	6806	63.322244036588	0.08384673665
0	6813	63.406090773238	0.015509806163
0	6818	63.421600579401	0.186957423902
0	6826	63.608558003303	0.041513032338
0	6831	63.650071035641	0.11027004019
0	6837	63.760341075831	0.157249877635
0	6842	63.917590953466	0.072315378608
0	6847	63.989906332074	0.006022913388
0	6849	63.995929245462	0.059907569392
0	6858	64.055836814854	0.015888467069
0	6860	64.071725281923	0.020435882712
0	6862	64.092161164635	0.004281039706
0	6864	64.096442204341	0.007989989022
0	6866	64.104432193363	0.072466093474
0	6868	64.176898286837	0.003234180257
0	6870	64.180132467094	0.001096369034
0	6872	64.181228836128	0.013847111266
0	6874	64.195075947394	0.007381594162
0	6876	64.202457541556	0.028306477585
0	6878	64.230764019141	0.015097750174
0	6880	64.245861769315	0.036906837127
0	6882	64.282768606442	0.10242915783
0	6885	64.385197764272	0.074158670402
0	6888	64.459356434674	0.009886588397
0	6890	64.469243023071	0.159394208614
0	6941	64.628637231685	0.028394384656
0	6946	64.657031616341	0.006239654613
0	6948	64.663271270954	0.01966086435
0	6956	64.682932135304	0.00565866662
0	6958	64.688590801924	0.043781939905
0	6968	64.732372741829	0.044542690095
0	6973	64.776915431924	0.137810653874
0	6979	64.914726085798	0.068402701069
0	6984	64.983128786867	0.141326198528
0	7006	65.124454985395	0.09424323071
0	7017	65.218698216105	0.002696847821
0	7019	65.221395063926	0.137312593511
0	7030	65.358707657437	0.045343155365
0	7035	65.404050812802	0.204996714633
0	7045	65.609047527435	0.111189140788
0	7051	65.720236668223	0.025524758135
0	7058	65.745761426358	0.07591845742
0	7063	65.821679883778	0.023928828553
0	7068	65.845608712331	0.011883293555
0	7073	65.857492005886	0.007997210668
0	7078	65.865489216554	0.072407306197
0	7086	65.937896522751	0.057748726678
0	7091	65.995645249429	0.010478224286
0	7096	66.006123473715	0.053466552918
0	7101	66.059590026633	0.114512860995
0	7107	66.174102887628	0.099047764806
0	7114	66.273150652434	0.000448569367
0	7116	66.273599221801	0.005115923979
0	7118	66.27871514578	0.004728336825
0	7123	66.283443482605	0.034435542198
0	7135	66.317879024803	0.048271789985
0	7145	66.366150814788	0.043503995518
0	7151	66.409654810306	0.024098960478
0	7156	66.433753770784	0.013824384205
0	7162	66.447578154989	0.005077438529
0	7164	66.452655593518	0.009257802674
0	7169	66.461913396192	0.209763431006
0	7181	66.671676827198	0.098156164478
0	7187	66.769832991676	0.113448454331
0	7199	66.883281446007	0.003015901189
0	7201	66.886297347196	0.015811855292
0	7209	66.902109202488	0.031802523556
0	7215	66.933911726044	0.03204577116
0	7223	66.965957497204	0.006155522746
0	7226	66.97211301995	0.032672662986
0	7234	67.004785682936	0.030537708743
0	7239	67.035323391679	0.035503517283
0	7244	67.070826908962	0.195507038483
0	7250	67.266333947445	0.170956825134
0	7261	67.437290772579	0.027556897416
0	7267	67.464847669995	0.00526572096
0	7269	67.470113390955	0.097289229196
0	7281	67.567402620151	0.002022897783
0	7283	67.569425517934	0.006239376118
0	7288	67.575664894052	0.033053990041
0	7297	67.608718884093	0.015821369559
0	7302	67.624540253652	0.030648363434
0	7307	67.655188617086	0.025858346354
0	7312	67.68104696344	0.013411154664
0	7317	67.694458118104	0.025525628797
0	7322	67.719983746901	0.003033715009
0	7324	67.72301746191	0.055643190581
0	7334	67.778660652491	0.006610579991
0	7336	67.785271232482	0.021134489403
0	7344	67.806405721885	0.097160027816
0	7350	67.903565749701	0.062547433033
0	7357	67.966113182734	0.025513569888
0	7364	67.991626752622	0.050969759403
0	7370	68.042596512025	0.02401459069
0	7372	68.066611102715	0.025471425511
0	7383	68.092082528226	0.001110932601
0	7385	68.093193460827	0.028260581742
0	7394	68.121454042569	0.023480401606
0	7400	68.144934444175	0.047664296561
0	7407	68.192598740736	0.054177409415
0	7417	68.246776150151	0.003630802905
0	7419	68.250406953056	0.04908924528
0	7429	68.299496198336	0.086412968648
0	7435	68.385909166984	0.122665292075
0	7444	68.508574459059	0.05298224716
0	7450	68.561556706219	0.055705736823
0	7455	68.617262443042	0.064793890825
0	7460	68.682056333867	0.019584226994
0	7465	68.701640560861	0.038493096791
0	7470	68.740133657652	0.019005951567
0	7475	68.759139609219	0.005853501966
0	7477	68.764993111185	0.089582716794
0	7485	68.854575827979	0.025962686244
0	7490	68.880538514223	0.074761555906
0	7495	68.955300070129	0.025991097244
0	7500	68.981291167373	0.016505334703
0	7505	68.997796502076	0.019359873362
0	7510	69.017156375438	0.062575447848
0	7515	69.079731823286	0.001520399688
0	7517	69.081252222974	0.041228586159
0	7525	69.122480809133	0.066828420866
0	7531	69.189309229999	0.025512957518
0	7536	69.214822187517	0.005814583338
0	7538	69.220636770855	0.037842715861
0	7546	69.258479486716	0.046609337028
0	7552	69.305088823744	0.004454297875
0	7554	69.309543121619	0.060737785428
0	7562	69.370280907047	0.054782493512
0	7567	69.425063400559	0.050363634419
0	7572	69.475427034978	0.001504139777
0	7574	69.476931174755	0.15988293787
0	7583	69.636814112625	0.110040843718
0	7588	69.746854956343	0.005451593181
0	7590	69.752306549524	0.057303901753
0	7598	69.809610451277	0.100933187996
0	7603	69.910543639273	0.110964776089
0	7608	70.021508415362	0.001481237615
0	7610	70.022989652977	6.0415094e-005
0	7612	70.023050068071	0.038276954114
0	7624	70.061327022185	0.138405002884
0	7629	70.199732025069	0.025896172254
0	7635	70.225628197323	0.158871531073
0	7642	70.384499728396	0.037136187485
0	7647	70.421635915881	0.079560113167
0	7652	70.501196029048	0.022714378853
0	7657	70.523910407901	0.241879372453
0	7662	70.765789780354	0.010571058749
0	7667	70.776360839103	0.021942708852
0	7672	70.798303547955	0.00096540526
0	7674	70.799268953215	0.094305755342
0	7682	70.893574708557	0.036506101013
0	7688	70.93008080957	0.073630643127
0	7694	71.003711452697	0.092504460994
0	7699	71.096215913691	0.063742572627
0	7704	71.159958486318	0.023357661323
0	7709	71.183316147641	0.050176219395
0	7714	71.233492367036	0.012606983822
0	7719	71.246099350858	0.018363408375
0	7724	71.264462759233	0.004198002002
0	7726	71.268660761235	0.03853155304
0	7734	71.307192314275	0.004458554113
0	7736	71.311650868388	0.016049882895
0	7744	71.327700751283	0.01251266402
0	7749	71.340213415303	0.000436394815
0	7751	71.340649810118	0.005268807032
0	7753	71.34591861715	0.00126305609
0	7755	71.34718167324	0.015396939779
0	7766	71.362578613019	0.007790959306
0	7771	71.370369572325	0.003421943769
0	7773	71.373791516094	0.036052620221
0	7784	71.409844136315	0.003392793902
0	7786	71.413236930217	0.012593739235
0	7794	71.425830669452	0.09699308798
0	7800	71.522823757432	0.02306128888
0	7806	71.545885046312	0.008844035306
0	7811	71.554729081618	0.002834194058
0	7813	71.557563275676	0.04101294963
0	7822	71.598576225306	0.121066832322
0	7828	71.719643057628	0.074240703702
0	7833	71.79388376133	0.108120247136
0	7839	71.902004008466	0.030477959042
0	7844	71.932481967508	0.113785999154
0	7850	72.046267966662	0.008324509696
0	7852	72.054592476358	0.020187645356
0	7854	72.074780121714	0.011131942602
0	7856	72.085912064316	0.062400911564
0	7858	72.14831297588	0.028368405983
0	7860	72.176681381863	0.027838540572
0	7862	72.204519922435	0.037563618684
0	7864	72.242083541119	0.017954784141
0	7866	72.26003832526	0.021496110137
0	7868	72.281534435397	0.003650627192
0	7870	72.285185062589	0.076043795382
0	7873	72.361228857971	0.027395621885
0	7875	72.388624479856	0.069519466361
0	7878	72.458143946217	0.024577267938
0	7880	72.482721214155	0.131010078844
0	7929	72.613731292999	0.008741100002
0	7934	72.622472393001	0.001468997364
0	7936	72.623941390365	0.021555091361
0	7944	72.645496481726	0.113020022369
0	7950	72.758516504095	0.005025276187
0	7952	72.763541780282	0.024925816596
0	7960	72.788467596878	0.102436899679
0	7965	72.890904496557	0.105339606294
0	7970	72.996244102851	0.055069803915
0	7976	73.051313906766	0.058685886394
0	7982	73.10999979316	0.010704109733
0	7987	73.120703902893	0.218499987571
0	7992	73.339203890464	0.125107899127
0	7999	73.464311789591	0.071206550782
0	8005	73.535518340373	0.043337053533
0	8010	73.578855393906	0.022670670917
0	8015	73.601526064823	0.030430967703
0	8021	73.631957032526	0.034763789049
0	8026	73.666720821575	0.051410265914
0	8031	73.718131087489	0.023611437432
0	8036	73.741742524921	0.014653174889
0	8042	73.75639569981	0.022699572337
0	8047	73.779095272147	0.040045434143
0	8053	73.81914070629	0.015116406902
0	8058	73.834257113192	0.007072605249
0	8061	73.841329718441	0.034256003897
0	8069	73.875585722338	0.011189438607
0	8074	73.886775160945	0.057244322473
0	8080	73.944019483418	0.036082937385
0	8085	73.980102420803	0.016240840232
0	8090	73.996343261035	0.005128962995
0	8092	74.00147222403	0.037156782715
0	8100	74.038629006745	0.095477750925
0	8105	74.13410675767	0.006243042892
0	8107	74.140349800562	0.025171305773
0	8115	74.165521106335	0.008708461055
0	8120	74.17422956739	0.013268497889
0	8125	74.187498065279	0.002396859979
0	8127	74.189894925258	0.044025921915
0	8135	74.233920847173	0.176562070025
0	8140	74.410482917198	0.068685963234
0	8145	74.479168880432	0.000193391159
0	8147	74.479362271591	0.046950930176
0	8155	74.526313201767	0.009836034431
0	8160	74.536149236198	0.043257452946
0	8165	74.579406689144	0.047449317339
0	8171	74.626856006483	0.00932248171
0	8176	74.636178488193	0.004243570552
0	8178	74.640422058745	0.0579757983
0	8186	74.698397857045	0.106809696316
0	8191	74.805207553361	0.188184039677
0	8197	74.993391593038	0.063580500116
0	8202	75.056972093154	0.04690040578
0	8207	75.103872498934	0.169646535732
0	8213	75.273519034666	0.019903050249
0	8218	75.293422084915	0.035426803772
0	8223	75.328848888687	0.081149500853
0	8229	75.40999838954	0.017862589763
0	8234	75.427860979303	0.090505550573
0	8239	75.518366529876	0.039869923792
0	8244	75.558236453668	0.026831104149
0	8249	75.585067557817	0.133551248675
0	8255	75.718618806492	0.026859186854
0	8261	75.745477993346	0.036777837747
0	8266	75.782255831093	0.137928066146
0	8272	75.920183897239	0.015544603155
0	8277	75.935728500394	0.064039816153
0	8282	75.999768316547	0.104940921429
0	8288	76.104709237976	0.001672737956
0	8290	76.106381975932	0.023254287187
0	8292	76.129636263119	0.027751586266
0	8294	76.157387849385	6.921563e-005
0	8296	76.157457065015	0.00492997501
0	8298	76.162387040025	0.0142300092
0	8300	76.176617049225	0.192095815173
0	8303	76.368712864398	0.019153403354
0	8305	76.387866267752	0.04280830787
0	8307	76.430674575622	0.097870919612
0	8316	76.528545495234	0.051596035146
0	8342	76.58014153038	0.030670903306
0	8350	76.610812433686	0.022664223541
0	8355	76.633476657227	0.029402190584
0	8360	76.662878847811	0.055088095866
0	8366	76.717966943677	0.020481358004
0	8371	76.738448301681	0.042413340492
0	8376	76.780861642173	0.106296528497
0	8382	76.88715817067	0.074512454334
0	8387	76.961670625004	0.145045452059
0	8404	77.106716077063	0.115180343831
0	8413	77.221896420894	0.240734899987
0	8424	77.462631320881	0.025901452856
0	8430	77.488532773737	0.023639677236
0	8435	77.512172450973	0.112854357082
0	8443	77.625026808055	0.169287045145
0	8450	77.7943138532	0.00336484836
0	8452	77.79767870156	0.07848191773
0	8461	77.87616061929	0.057834964485
0	8466	77.933995583775	0.056302639885
0	8472	77.99029822366	0.013137770497
0	8478	78.003435994157	0.014044557775
0	8483	78.017480551932	0.038703602134
0	8489	78.056184154066	0.012196483493
0	8494	78.068380637559	0.074147968219
0	8500	78.142528605778	0.009078960883
0	8505	78.151607566661	0.068636200292
0	8510	78.220243766953	0.128039695738
0	8517	78.348283462691	0.063904314694
0	8524	78.412187777385	0.017412431709
0	8529	78.429600209094	0.032975140003
0	8536	78.462575349097	0.030173939621
0	8541	78.492749288718	0.010784992064
0	8547	78.503534280782	0.034056763905
0	8554	78.537591044687	0.011506288408
0	8559	78.549097333095	0.075292557154
0	8567	78.624389890249	0.038336269106
0	8574	78.662726159355	0.092970328621
0	8580	78.755696487976	0.028796148644
0	8585	78.78449263662	0.007487260413
0	8590	78.791979897033	0.184423598774
0	8599	78.976403495807	0.027835133205
0	8605	79.004238629012	0.017892633616
0	8612	79.022131262628	0.092529282329
0	8619	79.114660544957	0.004113128274
0	8621	79.118773673231	0.085196580221
0	8631	79.203970253452	0.064891828457
0	8637	79.268862081909	0.005402303344
0	8639	79.274264385253	0.185299531866
0	8651	79.459563917119	0.00850285444
0	8656	79.468066771559	0.076183514017
0	8665	79.544250285576	0.01813455681
0	8671	79.562384842386	0.014187505127
0	8676	79.576572347513	0.003917490055
0	8678	79.580489837568	0.001862304615
0	8680	79.582352142183	0.027639966675
0	8691	79.609992108858	0.026121462167
0	8698	79.636113571025	0.005693032865
0	8700	79.64180660389	0.105084679204
0	8709	79.746891283094	0.041991675069
0	8716	79.788882958163	0.028281146051
0	8722	79.817164104214	0.01415509145
0	8727	79.831319195664	0.016709770748
0	8732	79.848028966412	0.045370645997
0	8737	79.893399612409	0.136901164764
0	8745	80.030300777173	0.006251277442
0	8747	80.036552054615	0.073978757067
0	8760	80.110530811682	0.186243718705
0	8771	80.296774530387	0.047207062603
0	8778	80.34398159299	0.134826742696
0	8785	80.478808335686	0.000134032917
0	8787	80.478942368603	0.024862323492
0	8796	80.503804692095	0.134049754487
0	8801	80.637854446582	0.013865376447
0	8806	80.651719823029	0.056017954138
0	8811	80.707737777167	0.014410658395
0	8816	80.722148435562	0.012710233136
0	8821	80.734858668698	0.033023694714
0	8826	80.767882363412	0.001253229378
0	8828	80.76913559279	0.002040725018
0	8830	80.771176317808	0.000374817222
0	8832	80.77155113503	0.051041620953
0	8846	80.822592755983	0.131141276095
0	8852	80.953734032078	0.026238022204
0	8857	80.979972054282	0.05907026993
0	8863	81.039042324212	0.02369307895
0	8868	81.062735403162	0.061064008845
0	8873	81.123799412007	0.082869726033
0	8878	81.20666913804	0.045325063861
0	8883	81.251994201901	0.061727693489
0	8888	81.31372189539	0.038526866038
0	8893	81.352248761428	0.154319856944
0	8898	81.506568618372	0.030401581288
0	8903	81.53697019966	0.021688309475
0	8908	81.558658509135	0.045838693584
0	8914	81.604497202719	0.11391548714
0	8919	81.718412689859	0.053077665815
0	8924	81.771490355674	0.073476665793
0	8929	81.844967021467	0.023343608873
0	8934	81.86831063034	0.02211355945
0	8940	81.89042418979	0.055166265135
0	8946	81.945590454925	0.048598819654
0	8951	81.994189274579	0.030521677152
0	8956	82.024710951731	0.017023909577
0	8961	82.041734861308	0.004445211245
0	8963	82.046180072553	0.10373261912
0	8972	82.149912691673	0.013274752132
0	8977	82.163187443805	0.005963243499
0	8979	82.169150687304	0.004243686191
0	8984	82.173394373495	0.011940427972
0	8989	82.185334801467	0.019431678312
0	8997	82.204766479779	0.010107846813
0	9003	82.214874326592	0.047250899531
0	9008	82.262125226123	0.025794086126
0	9013	82.287919312249	0.022913728153
0	9018	82.310833040402	0.06837028595
0	9023	82.379203326352	0.064772833196
0	9028	82.443976159548	0.037423211746
0	9033	82.481399371294	0.056669413015
0	9038	82.538068784309	0.033439934209
0	9043	82.571508718518	0.007814632125
0	9049	82.579323350643	2.7305998e-005
0	9051	82.579350656641	0.009198697182
0	9056	82.588549353823	0.027704207242
0	9064	82.616253561065	0.003330256862
0	9066	82.619583817927	0.003283159259
0	9068	82.622866977186	0.015348869127
0	9076	82.638215846313	0.011675685302
0	9084	82.649891531615	0.021412901441
0	9089	82.671304433056	0.134702884249
0	9098	82.806007317305	0.004619375938
0	9100	82.810626693243	0.012128947944
0	9108	82.822755641187	0.046093962914
0	9113	82.868849604101	0.097715438585
0	9119	82.966565042686	0.0626539047
0	9124	83.029218947386	0.08120052219
0	9130	83.110419469576	0.008552590952
0	9135	83.118972060528	0.008666876061
0	9140	83.127638936589	0.020937967613
0	9145	83.148576904202	0.046533677831
0	9150	83.195110582033	0.064959966622
0	9156	83.260070548655	0.006145789408
0	9158	83.266216338063	0.054430808653
0	9166	83.320647146716	0.065077105423
0	9171	83.385724252139	0.096365224863
0	9177	83.482089477002	0.050731337713
0	9182	83.532820814715	0.040439506314
0	9187	83.573260321029	0.08354932876
0	9192	83.656809649789	0.001304698248
0	9194	83.658114348037	0.032637181027
0	9203	83.690751529064	0.002951452643
0	9205	83.693702981707	0.123174731459
0	9214	83.816877713166	0.004172400878
0	9217	83.821050114044	0.002530410466
0	9219	83.82358052451	0.03640114415
0	9231	83.85998166866	0.017328350456
0	9236	83.877310019116	0.070346527264
0	9241	83.94765654638	0.062772533575
0	9247	84.010429079955	0.001640277736
0	9249	84.012069357691	0.027073624683
0	9251	84.039142982374	0.030503539564
0	9253	84.069646521938	0.009494587873
0	9255	84.079141109811	0.087090701073
0	9257	84.166231810884	0.00567023611
0	9259	84.171902046994	0.055222340249
0	9261	84.227124387243	0.085006196463
0	9264	84.312130583706	0.039473829742
0	9266	84.351604413448	0.032041303575
0	9268	84.383645717023	0.044435201381
0	9270	84.428080918404	0.106973876149
0	9285	84.535054794553	0.113399519542
0	9315	84.648454314095	0.066079505309
0	9321	84.714533819404	0.042792461072
0	9327	84.757326280476	0.026358439485
0	9332	84.783684719961	0.027393434699
0	9337	84.81107815466	0.023381203863
0	9342	84.834459358523	0.060693028153
0	9347	84.895152386676	0.036246171815
0	9353	84.931398558491	0.022096659444
0	9358	84.953495217935	0.109938264483
0	9363	85.063433482418	0.180432750846
0	9368	85.243866233264	0.066833051938
0	9373	85.310699285202	0.102904558883
0	9378	85.413603844085	0.000258314305
0	9380	85.41386215839	0.008518867934
0	9385	85.422381026324	0.059234307533
0	9394	85.481615333857	0.057620550969
0	9399	85.539235884826	0.125979507948
0	9404	85.665215392774	0.001733235128
0	9406	85.666948627902	0.061972357939
0	9414	85.728920985841	0.108231358784
0	9420	85.837152344625	0.009740304826
0	9425	85.846892649451	0.09316929919
0	9432	85.940061948641	0.033035754671
0	9437	85.973097703312	0.035680557663
0	9442	86.008778260975	0.007559521322
0	9444	86.016337782297	0.006830442985
0	9449	86.023168225282	0.022235922748
0	9457	86.04540414803	0.048573397678
0	9462	86.093977545708	0.138324008403
0	9468	86.232301554111	0.013678243112
0	9473	86.245979797223	0.128396135988
0	9478	86.374375933211	0.049830463958
0	9483	86.424206397169	0.016622596079
0	9488	86.440828993248	0.059166976168
0	9494	86.499995969416	0.020747829136
0	9499	86.520743798552	0.005616734033
0	9501	86.526360532585	0.045841151865
0	9509	86.57220168445	0.032403517984
0	9514	86.604605202434	0.165109197623
0	9521	86.769714400057	0.044045380864
0	9526	86.813759780921	0.007996780193
0	9528	86.821756561114	0.014626403646
0	9536	86.83638296476	0.014847352939
0	9541	86.851230317699	0.011220360177
0	9546	86.862450677876	0.103398115758
0	9552	86.965848793634	0.050785633653
0	9557	87.016634427287	0.033853085618
0	9562	87.050487512905	0.071510967413
0	9567	87.121998480318	0.114612481292
0	9573	87.23661096161	0.022244923449
0	9578	87.258855885059	0.010260140916
0	9583	87.269116025975	0.061704001337
0	9588	87.330820027312	0.038035830092
0	9594	87.368855857404	0.044260842233
0	9600	87.413116699637	0.019746264605
0	9605	87.432862964242	0.082929669345
0	9611	87.515792633587	0.019029544966
0	9616	87.534822178553	0.01141233116
0	9621	87.546234509713	0.029608740199
0	9626	87.575843249912	0.079579105654
0	9632	87.655422355566	0.028376629192
0	9637	87.683798984758	0.015490106728
0	9642	87.699289091486	0.022107508596
0	9647	87.721396600082	0.017709930704
0	9652	87.739106530786	0.123238006821
0	9657	87.862344537607	0.191228482822
0	9664	88.053573020429	0.065790711589
0	9666	88.119363732018	0.002355291874
0	9668	88.121719023892	0.065014457102
0	9671	88.186733480994	0.010520845162
0	9673	88.197254326156	0.017118420643
0	9675	88.214372746799	0.036789666351
0	9677	88.25116241315	0.043103081365
0	9680	88.294265494515	0.023579786023
0	9682	88.317845280538	0.075520240934
0	9685	88.393365521472	0.013860171926
0	9687	88.407225693398	0.079381464379
0	9689	88.486607157777	0.057688188168
0	9710	88.544295345945	0.02112017247
0	9721	88.565415518415	0.055317653248
0	9738	88.620733171663	0.073673888833
0	9743	88.694407060496	0.165853368886
0	9748	88.860260429382	0.066570217522
0	9753	88.926830646904	0.105433374094
0	9758	89.032264020998	0.007628807407
0	9763	89.039892828405	0.298311784988
0	9769	89.338204613393	0.100475430835
0	9774	89.438680044228	0.022540490531
0	9779	89.461220534759	0.029109052657
0	9784	89.490329587416	0.002314475296
0	9786	89.492644062712	0.033316543801
0	9794	89.525960606513	0.019674119848
0	9799	89.545634726361	0.029743812795
0	9804	89.575378539156	0.034349781795
0	9809	89.609728320951	0.041948664146
0	9814	89.651676985097	0.009448925836
0	9819	89.661125910933	0.048533287392
0	9824	89.709659198325	0.004445718117
0	9826	89.714104916442	0.034475646096
0	9834	89.748580562538	0.0301405454
0	9840	89.778721107938	0.100790873217
0	9845	89.879511981155	0.134904152148
0	9851	90.014416133303	0.049407432658
0	9856	90.063823565961	0.07201958025
0	9862	90.135843146211	0.025660419062
0	9867	90.161503565273	0.018660986418
0	9874	90.180164551691	0.026951975427
0	9879	90.207116527118	0.109738352439
0	9885	90.316854879557	0.083257736369
0	9890	90.400112615926	0.059746406669
0	9895	90.459859022595	0.021400257523
0	9900	90.481259280118	0.031119901217
0	9906	90.512379181335	0.011878277147
0	9911	90.524257458482	0.015368363638
0	9916	90.53962582212	0.003060971606
0	9918	90.542686793726	0.042846155074
0	9926	90.5855329488	0.104384513157
0	9932	90.689917461957	0.010839501287
0	9937	90.700756963244	0.125386116763
0	9942	90.826143080007	0.067591104303
0	9947	90.89373418431	0.006398497243
0	9949	90.900132681553	0.138173822029
0	9958	91.038306503582	0.020358859027
0	9963	91.058665362609	0.053832932443
0	9969	91.112498295052	0.00964114944
0	9974	91.122139444492	0.064548135279
0	9980	91.186687579771	0.006159168614
0	9982	91.192846748385	0.008985552962
0	9990	91.201832301347	0.115062668302
0	9997	91.316894969649	0.068960767537
0	10002	91.385855737186	0.002927942416
0	10004	91.388783679602	0.034393738574
0	10012	91.423177418176	0.196830306491
0	10019	91.620007724667	0.004571932402
0	10021	91.624579657069	0.00507123917
0	10026	91.629650896239	0.02442446432
0	10034	91.654075360559	0.099560782025
0	10039	91.753636142584	0.06536456925
0	10045	91.819000711834	0.041793878377
0	10050	91.860794590211	0.043162427213
0	10055	91.903957017424	0.022936767067
0	10060	91.926893784491	0.018291741957
0	10065	91.945185526448	0.020953540178
0	10070	91.966139066626	0.224364920562
0	10078	92.190503987188	0.070809674025
0	10080	92.261313661213	0.042669534311
0	10082	92.303983195524	0.018885685277
0	10084	92.322868880801	0.144974932684
0	10086	92.467843813485	0.053547752319
0	10100	92.521391565804	0.041023378396
0	10111	92.5624149442	0.03642069877
0	10116	92.59883564297	0.041582147635
0	10121	92.640417790605	0.033176084247
0	10126	92.673593874852	0.002626304518
0	10128	92.67622017937	0.115713744931
0	10136	92.791933924301	0.005495138759
0	10138	92.79742906306	0.040444184431
0	10146	92.837873247491	0.047652671309
0	10152	92.8855259188	0.087683200867
0	10158	92.973209119667	0.065770124628
0	10163	93.038979244295	0.064653596894
0	10169	93.103632841189	0.01398784012
0	10174	93.117620681309	0.001966012496
0	10176	93.119586693805	0.16617810632
0	10185	93.285764800125	0.074164509915
0	10190	93.35992931004	0.067592342845
0	10195	93.427521652885	0.01222284463
0	10200	93.439744497515	0.013591175951
0	10205	93.453335673466	0.116729411103
0	10210	93.570065084569	0.051700291137
0	10215	93.621765375706	0.002193633898
0	10217	93.623959009604	0.020757319724
0	10225	93.644716329328	0.020253661459
0	10231	93.664969990787	0.065002300459
0	10236	93.729972291246	0.005253191645
0	10238	93.735225482891	0.043924774525
0	10246	93.779150257416	0.032273988551
0	10251	93.811424245967	0.070663490764
0	10256	93.882087736731	0.085746155205
0	10261	93.967833891936	0.014481784896
0	10266	93.982315676832	0.017704440005
0	10271	94.000020116837	0.134629993383
0	10278	94.13465011022	0.008180970676
0	10283	94.142831080896	0.248101637245
0	10289	94.390932718141	0.020043810682
0	10294	94.410976528823	0.008988204409
0	10299	94.419964733232	0.084068219762
0	10304	94.504032952994	0.035964838614
0	10309	94.539997791608	0.007563472252
0	10314	94.54756126386	0.099562824567
0	10319	94.647124088427	0.012897261464
0	10324	94.660021349891	0.021362380815
0	10329	94.681383730706	0.003566850321
0	10331	94.684950581027	0.01389565234
0	10339	94.698846233367	0.061159487028
0	10344	94.760005720395	0.065664317767
0	10349	94.825670038162	0.025145620834
0	10354	94.850815658996	0.189751616686
0	10359	95.040567275682	0.018614089157
0	10364	95.059181364839	0.035033552108
0	10369	95.094214916947	0.063403596193
0	10375	95.15761851314	0.024914440861
0	10380	95.182532954001	0.020471965633
0	10385	95.203004919634	0.024873498871
0	10390	95.227878418505	0.065055631893
0	10395	95.292934050398	0.079117032514
0	10400	95.372051082912	0.084423891401
0	10405	95.456474974313	0.061219151799
0	10410	95.517694126112	0.012273474107
0	10415	95.529967600219	0.019203578585
0	10421	95.549171178804	0.182135484401
0	10428	95.731306663205	0.183627979262
0	10433	95.914934642467	0.008858220546
0	10438	95.923792863013	0.111087360125
0	10446	96.034880223138	0.01718376925
0	10449	96.052063992388	0.060353558045
0	10451	96.112417550433	0.009910066028
0	10453	96.122327616461	0.029060365156
0	10456	96.151387981617	0.021194617016
0	10458	96.172582598633	0.011615268207
0	10460	96.18419786684	0.032702178126
0	10463	96.216900044966	0.054675968857
0	10465	96.271576013823	0.036925626851
0	10468	96.308501640674	0.07009884735
0	10470	96.378600488024	0.096072696799
0	10472	96.474673184823	0.046326845527
0	10482	96.52100003035	0.110113422272
0	10518	96.631113452622	0.034220947078
0	10523	96.6653343997	0.012429726214
0	10528	96.677764125914	0.006280517467
0	10530	96.684044643381	0.048761452122
0	10538	96.732806095503	0.076793243289
0	10543	96.809599338792	0.005910809752
0	10545	96.815510148544	0.033823493993
0	10553	96.849333642537	0.030714013931
0	10558	96.880047656468	0.096246791883
0	10564	96.976294448351	0.01945500292
0	10569	96.995749451271	0.007240806724
0	10571	97.002990257995	0.019026485505
0	10579	97.0220167435	0.167748218968
0	10585	97.189764962468	0.032945427342
0	10591	97.22271038981	0.033785115788
0	10596	97.256495505598	0.065434757987
0	10601	97.321930263585	0.003755058543
0	10603	97.325685322128	0.003584610903
0	10605	97.329269933031	0.016433102883
0	10616	97.345703035914	0.105669914214
0	10621	97.451372950128	0.116436294359
0	10626	97.567809244487	0.066366148624
0	10631	97.634175393111	0.020324628378
0	10636	97.654500021489	0.009709548939
0	10641	97.664209570428	0.175458230457
0	10647	97.839667800885	0.139976138423
0	10652	97.979643939308	0.029360268565
0	10657	98.009004207873	0.035292599756
0	10662	98.044296807629	0.022867895573
0	10667	98.067164703202	0.428050912966
0	10674	98.495215616168	0.077977564086
0	10679	98.573193180254	0.010986187275
0	10684	98.584179367529	0.031472895067
0	10689	98.615652262596	0.038276023692
0	10694	98.653928286288	0.003928711348
0	10696	98.657856997636	0.017141986293
0	10704	98.674998983929	0.088258088979
0	10711	98.763257072908	0.018132750652
0	10718	98.78138982356	0.07814257772
0	10724	98.85953240128	0.044709999511
0	10730	98.904242400791	0.036179588405
0	10735	98.940421989196	0.127372562545
0	10741	99.067794551741	0.000486525297
0	10743	99.068281077038	0.08180548703
0	10752	99.150086564068	0.007329789628
0	10754	99.157416353696	0.064357105291
0	10763	99.221773458987	0.06223810394
0	10768	99.284011562927	0.040955227169
0	10774	99.324966790096	0.044684594587
0	10781	99.369651384683	0.127744039487
0	10786	99.49739542417	0.060206058006
0	10792	99.557601482176	0.033899276086
0	10797	99.591500758262	0.022387413738
0	10802	99.613888172	0.103507116908
0	10807	99.717395288908	0.049628455892
0	10812	99.7670237448	0.089782846942
0	10817	99.856806591742	0.0285311379
0	10823	99.885337729642	0.012029451388
0	10828	99.89736718103	0.026704799398
0	10833	99.924071980428	0.073750915729
0	10838	99.997822896157	0.026809959507
0	10844	100.024632855664	0.000612291942
0	10846	100.025245147606	0.001629032679
0	10848	100.026874180285	0.019491612326
0	10850	100.046365792611	0.003146724093
0	10852	100.049512516704	0.013040157811
0	10854	100.062552674515	0.094629566453
0	10857	100.157182240968	0.035348408203
0	10859	100.192530649171	0.059458403725
0	10862	100.251989052896	0.066752154216
0	10865	100.318741207112	0.013094979529
0	10867	100.331836186641	0.005139101601
0	10869	100.336975288242	0.006285344438
0	10871	100.34326063268	0.036172300003
0	10873	100.379432932683	0.00207810594
0	10875	100.381511038623	0.139364431634
0	10881	100.520875470257	0.032668173361
0	10898	100.553543643618	0.012980428984
0	10903	100.566524072602	0.04433260673
0	10923	100.610856679332	0.056527001506
0	10944	100.667383680838	0.114117528249
0	10950	100.781501209087	0.044932397735
0	10955	100.826433606822	0.126456571998
0	10960	100.95289017882	0.000505733781
0	10962	100.953395912601	0.022804588286
0	10970	100.976200500887	0.032296597679
0	10975	101.008497098566	0.133566233521
0	10999	101.142063332087	0.06168216388
0	11007	101.203745495967	0.039458608288
0	11012	101.243204104255	0.002248583397
0	11014	101.245452687652	0.042676583517
0	11023	101.288129271169	0.105814192402
0	11031	101.393943463571	0.009839423306
0	11036	101.403782886877	0.036706940817
0	11041	101.440489827694	0.006157075346
0	11043	101.44664690304	0.001557046672
0	11048	101.448203949712	0.014010573905
0	11054	101.462214523617	0.012706795643
0	11063	101.47492131926	0.006635951492
0	11065	101.481557270752	0.153604432011
0	11076	101.635161702763	0.012634518846
0	11081	101.647796221609	0.043651952586
0	11087	101.691448174195	0.038806158881
0	11093	101.730254333076	0.005684901421
0	11095	101.735939234497	0.101344347854
0	11108	101.837283582351	0.016951891383
0	11113	101.854235473734	0.079234285342
0	11121	101.933469759076	0.03050501511
0	11129	101.963974774186	0.00164456349
0	11131	101.965619337676	0.001058631593
0	11133	101.966677969269	0.059958784803
0	11147	102.026636754072	0.026518733244
0	11153	102.053155487316	0.002396095855
0	11155	102.055551583171	0.033614180583
0	11163	102.089165763754	0.311371608399
0	11177	102.400537372153	0.013964395101
0	11182	102.414501767254	0.076650320289
0	11191	102.491152087543	0.044414205108
0	11197	102.535566292651	0.01315804483
0	11202	102.548724337481	0.069966978121
0	11210	102.618691315602	0.033678039523
0	11215	102.652369355125	0.013448526417
0	11220	102.665817881542	0.068148666585
0	11226	102.733966548127	0.048445020145
0	11231	102.782411568272	0.091568649005
0	11236	102.873980217277	0.051030124233
0	11243	102.92501034151	0.012994097604
0	11248	102.938004439114	0.148347816354
0	11256	103.086352255468	0.00719056774
0	11258	103.093542823208	0.075316133113
0	11269	103.168858956321	0.133737969693
0	11280	103.302596926014	0.094307441345
0	11286	103.396904367359	0.055548667318
0	11293	103.452453034677	0.033708411473
0	11298	103.48616144615	0.104488694384
0	11303	103.590650140534	0.010249748703
0	11309	103.600899889237	0.013223228096
0	11315	103.614123117333	0.27381594257
0	11325	103.887939059903	0.006888252177
0	11327	103.89482731208	0.006926092106
0	11332	103.901753404186	0.021564166607
0	11341	103.923317570793	0.031881585963
0	11346	103.955199156756	0.01456442417
0	11352	103.969763580926	0.00352611823
0	11354	103.973289699156	0.003776823045
0	11356	103.977066522201	0.143987189067
0	11372	104.121053711268	0.051708561938
0	11378	104.172762273206	0.167513255285
0	11384	104.340275528491	0.014464966408
0	11389	104.354740494899	0.063539305969
0	11397	104.418279800868	0.029912260768
0	11403	104.448192061636	0.021538595654
0	11409	104.46973065729	0.017004979157
0	11416	104.486735636447	0.014677120167
0	11423	104.501412756614	0.127037171859
0	11428	104.628449928473	0.015414877563
0	11433	104.643864806036	0.029910868738
0	11438	104.673775674774	0.006807828669
0	11440	104.680583503443	0.105953497639
0	11449	104.786537001082	0.03730724985
0	11454	104.823844250932	0.002250724041
0	11456	104.826094974973	0.007646911837
0	11461	104.83374188681	0.038372196152
0	11469	104.872114082962	0.019043307718
0	11474	104.89115739068	0.030140695219
0	11479	104.921298085899	0.049269512228
0	11484	104.970567598127	0.019734989961
0	11489	104.990302588088	0.065013836473
0	11494	105.055316424561	0.017847281814
0	11499	105.073163706375	0.001228607289
0	11501	105.074392313664	0.015516030735
0	11509	105.089908344399	0.028116121248
0	11514	105.118024465647	0.011127781849
0	11519	105.129152247496	0.052795544966
0	11524	105.181947792462	0.033925977424
0	11529	105.215873769886	0.095949871234
0	11535	105.31182364112	0.021166520303
0	11540	105.332990161423	0.032248791884
0	11545	105.365238953307	0.020068713761
0	11550	105.385307667068	0.174021571018
0	11557	105.559329238086	0.003425034089
0	11559	105.562754272175	0.015437288397
0	11567	105.578191560572	0.000698103413
0	11569	105.578889663985	0.000680038799
0	11571	105.579569702784	0.121326277956
0	11583	105.70089598074	0.033058484206
0	11588	105.733954464946	0.026701167036
0	11593	105.760655631982	0.014793360359
0	11599	105.775448992341	0.056512041946
0	11604	105.831961034287	0.086783422475
0	11609	105.918744456762	0.030110414703
0	11614	105.948854871465	0.013248606786
0	11619	105.962103478251	0.011197048022
0	11624	105.973300526273	0.018598800421
0	11629	105.991899326694	0.132589531271
0	11635	106.124488857965	0.078325490259
0	11640	106.202814348224	0.006543146789
0	11642	106.209357495013	0.06278844309
0	11650	106.272145938103	0.032828732124
0	11655	106.304974670227	0.040828066554
0	11661	106.345802736781	0.004810574708
0	11663	106.350613311489	0.061030193593
0	11671	106.411643505082	0.013021253474
0	11676	106.424664758556	0.027118984686
0	11681	106.451783743242	0.057825038308
0	11686	106.50960878155	0.00026620992
0	11688	106.50987499147	0.037370933776
0	11696	106.547245925246	0.000571004327
0	11698	106.547816929573	0.039931441522
0	11706	106.587748371095	0.035792322366
0	11711	106.623540693461	0.089260705879
0	11717	106.71280139934	0.004348258884
0	11719	106.717149658224	0.003135178613
0	11724	106.720284836837	0.002621300943
0	11726	106.72290613778	0.117602794254
0	11738	106.840508932034	0.16836391561
0	11743	107.008872847644	0.052666780677
0	11749	107.061539628321	0.097950706024
0	11754	107.159490334345	0.05120873895
0	11759	107.210699073295	0.008245337797
0	11764	107.218944411092	0.001533693784
0	11766	107.220478104876	3.3221811e-005
0	11768	107.220511326687	0.120437637035
0	11780	107.340948963722	0.142080047792
0	11785	107.483029011514	0.001419047439
0	11787	107.484448058953	0.016309039876
0	11795	107.500757098829	0.010255848776
0	11800	107.511012947605	0.010283455998
0	11805	107.521296403603	0.113125540189
0	11810	107.634421943792	0.058802986361
0	11816	107.693224930153	0.006775391382
0	11818	107.700000321535	0.005765141193
0	11823	107.705765462728	0.0253739082
0	11831	107.731139370928	0.015370407508
0	11836	107.746509778436	0.071366068234
0	11841	107.81787584667	0.184633686061
0	11847	108.002509532731	0.041385091088
0	11849	108.043894623819	0.051008003068
0	11851	108.094902626887	0.065555273183
0	11853	108.16045790007	0.036769112119
0	11855	108.197227012189	0.01071204609
0	11857	108.207939058279	0.025368132804
0	11859	108.233307191083	0.026555875956
0	11862	108.259863067039	0.074471968505
0	11865	108.334335035544	0.03449642859
0	11868	108.368831464134	0.00759684293
0	11870	108.376428307064	0.013960801914
0	11872	108.390389108978	0.171076837308
0	11899	108.561465946286	0.308709853648
0	11916	108.870175799934	0.098708334516
0	11921	108.96888413445	0.055602444318
0	11927	109.024486578768	0.048071855295
0	11933	109.072558434063	0.107613276629
0	11938	109.180171710692	0.002192693584
0	11940	109.182364404276	0.024958587669
0	11948	109.207322991945	0.060341451065
0	11953	109.26766444301	0.129406683319
0	11958	109.397071126329	0.122256042085
0	11963	109.519327168414	0.01449267178
0	11969	109.533819840194	0.037177524366
0	11975	109.57099736456	0.008591867739
0	11980	109.579589232299	0.021865192802
0	11986	109.601454425101	0.077290310446
0	11992	109.678744735547	0.006407429295
0	11994	109.685152164842	0.180626727161
0	12003	109.865778892003	0.070304675853
0	12008	109.936083567856	0.003202175904
0	12010	109.93928574376	0.108150659953
0	12018	110.047436403713	0.005268174619
0	12020	110.052704578332	0.005282013778
0	12025	110.05798659211	0.019128793703
0	12033	110.077115385813	0.071144713074
0	12039	110.148260098887	0.037322223626
0	12045	110.185582322513	0.000860384657
0	12047	110.18644270717	0.060915638808
0	12055	110.247358345978	0.170645663134
0	12060	110.418004009112	0.155670134023
0	12065	110.573674143135	0.047733133411
0	12070	110.621407276546	0.006267943133
0	12072	110.627675219679	0.040197128387
0	12080	110.667872348066	0.022027289008
0	12085	110.689899637074	0.017545283585
0	12090	110.707444920659	0.015481661289
0	12095	110.722926581948	0.132459596193
0	12100	110.855386178141	0.082361800152
0	12105	110.937747978293	0.01545588451
0	12110	110.953203862803	0.008929952153
0	12115	110.962133814956	0.088055677181
0	12121	111.050189492137	0.104713372377
[...]
22	27997	263.29113343546	2.440711567166
22	28283	265.731845002626	2.1600330872233
22	28498	267.891878089849	0.40166750676129
22	28511	268.29354559661	3.7625784364593
22	28879	272.056124033069	2.01154911814
22	29086	274.067673151209	0.49371199004339
22	29135	274.561385141252	0.60495919367035
22	29205	275.166344334922	0.55617086799599
22	29265	275.722515202918	0.041557998017274
22	29283	275.764073200935	0.34921255118441
22	29321	276.113285752119	1.7561371866686
22	29511	277.869422938788	1.6063656153841
22	29674	279.475788554172	0.3897450555697
22	29723	279.865533609742	2.358377995699
22	29902	282.223911605441	0.74263450538362
22	29990	282.966546110825	2.3355072378078
22	30268	285.302053348633	0.4365032620464
22	30330	285.738556610679	2.7438282430602
22	30545	288.482384853739	0.4349718264056
22	30609	288.917356680145	0.78528501411604
22	30687	289.702641694261	1.1612261493072
22	30772	290.863867843568	0.2349698493648
22	30800	291.098837692933	0.26988226514647
22	30832	291.368719958079	5.6759698809259
22	31421	297.044689839005	1.7035157868714
22	31592	298.748205625876	2.3796595963716
22	31821	301.127865222248	2.1561386156505
22	32015	303.284003837898	0.95256467338983
22	32104	304.236568511288	0.95838639767766
22	32247	305.194954908966	3.066711810683
22	32545	308.261666719649	0.52076410340507
22	32663	308.782430823054	1.3202918609578
22	32795	310.102722684012	1.0714087109999
22	32935	311.174131395012	0.57011273901757
22	32996	311.74424413403	3.6408858706895
22	33343	315.38513000472	1.0158600024636
22	33453	316.400990007184	2.53874163406
22	33753	318.939731641244	3.438702527906
22	34103	322.37843416915	1.6874174491752
22	34291	324.065851618325	2.550560421597
22	34580	326.616412039922	0.10196501539871
22	34596	326.718377055321	0.021135659556045
22	34602	326.739512714877	4.5071482336868
22	35107	331.246660948564	0.31617951457083
22	35128	331.562840463135	0.40791818333312
22	35167	331.970758646468	1.1947249345392
22	35290	333.165483581007	0.57392226714717
22	35347	333.739405848154	0.83519609368044
22	35432	334.574601941834	0.74348422087448
22	35536	335.318086162708	1.619468853425
22	35664	336.937555016133	0.058196040233825
22	35677	336.995751056367	8.6514258261669
22	36624	345.647176882534	8.4757869249944
22	37591	354.122963807528	1.0795799262797
22	37693	355.202543733808	0.48129154552561
22	37738	355.683835279334	1.6654924059519
22	37893	357.349327685286	0.93731772129801
22	37975	358.286645406584	4.9437864312747
22	38581	363.230431837859	1.0235284075902
22	38664	364.253960245449	1.5663133383537
22	38841	365.820273583803	3.8235655942849
22	39273	369.643839178088	5.5309620177218
22	39866	375.17480119581	0.071606510493639
22	39882	375.246407706304	1.6852045490939
22	40067	376.931612255398	2.9527022124677
22	40538	379.884314467866	0.53033542695495
22	40602	380.414649894821	0.81194578349414
22	40679	381.226595678315	4.1152070627947
22	41032	385.34180274111	0.33133236324526
22	41064	385.673135104355	3.3579709823507
22	41412	389.031106086706	2.142814696217
22	41617	391.173920782923	4.7353955880445
22	42212	395.909316370968	0.83959447623356
22	42314	396.748910847202	6.6989894188138
23	1324	12.816289886563	1.1156456673606
23	1501	13.931935553924	2.9972174468076
23	1822	16.929153000732	3.4619079589
23	2169	20.391060959632	1.3983798019308
23	2322	21.789440761563	2.4520415148137
23	2562	24.241482276377	2.870381052346
23	2926	27.111863328723	1.7049541577859
23	3056	28.816817486509	2.6075752472146
23	3349	31.424392733724	2.9176291096681
23	3763	34.342021843392	0.085392722716967
23	3764	34.427414566109	2.0826550453429
23	3988	36.510069611452	2.0647612581499
23	4247	38.574830869602	6.9022824762708
23	4978	45.477113345873	2.6396840020551
23	5250	48.116797347928	1.3438134009302
23	5378	49.460610748858	0.56422498577552
23	5435	50.024835734634	0.41313131418718
23	5482	50.437967048821	0.4784629692644
23	5544	50.916430018085	0.19499692970905
23	5551	51.111426947794	0.38502596049309
23	5595	51.496452908287	4.2403662647574
23	6057	55.736819173044	1.9524654428623
23	6232	57.689284615906	0.036877988317754
23	6234	57.726162604224	0.032482892600327
23	6235	57.758645496824	0.062134202692537
23	6236	57.820779699517	5.4678356409686
23	6804	63.288615340486	0.46398980475238
23	6836	63.752605145238	2.806319185498
23	7179	66.558924330736	3.7738377579891
23	7640	70.332762088725	1.1760287698041
23	7799	71.508790858529	0.016968509258035
23	7802	71.525759367787	0.36032891189518
23	7838	71.886088279682	5.6418946182346
23	8440	77.527982897917	1.0820070142072
23	8566	78.609989912124	2.2638304912623
23	8851	80.873820403386	3.3858472534381
23	9263	84.259667656824	0.46082399978017
23	9323	84.720491656604	1.0525542597689
23	9419	85.773045916373	0.088173462836073
23	9430	85.861219379209	0.62990856248766
23	9493	86.491127941697	1.1421552215011
23	9631	87.633283163198	2.4965969295231
23	9861	90.129880092721	1.9688391786607
23	10076	92.098719271382	0.39278374437637
23	10088	92.491503015758	3.043398367673
23	10417	95.534901383431	0.50489400649916
23	10448	96.03979538993	0.25575718203214
23	10467	96.295552571962	0.58878032799738
23	10560	96.884332899959	0.268849610301
23	10584	97.15318251026	0.99178949898014
23	10672	98.14497200924	0.70341105907372
23	10723	98.848383068314	0.44353673315952
23	10770	99.291919801474	2.5312341792648
23	11107	101.823153980739	1.4618020697894
23	11278	103.284956050528	1.4447485468314
23	11448	104.729704597359	0.78238662595799
23	11556	105.512091223317	1.2723809123831
23	11737	106.7844721357	1.5202195402045
23	11864	108.304691675904	6.052801629209
23	12404	114.357493305113	1.1477789478299
23	12537	115.505272252943	1.7087284672017
23	12753	117.214000720145	1.0655176145649
23	12911	118.27951833471	0.52414720657858
23	12956	118.803665541289	4.72727476004
23	13437	123.530940301329	0.79163884221441
23	13471	124.322579143543	0.018990622254802
23	13472	124.341569765798	2.7372139362936
23	13795	127.078783702092	0.14441161843169
23	13816	127.223195320524	0.38789052710095
23	13843	127.611085847625	1.8533935621945
23	13972	129.464479409819	4.5345279623234
23	14449	133.999007372142	2.1081987459075
23	14623	136.10720611805	1.5459356291571
23	14824	137.653141747207	1.9953671025707
23	15017	139.648508849778	0.34936622092758
23	15048	139.997875070706	2.9904149555249
23	15362	142.988290026231	0.55928271597019
23	15400	143.547572742201	0.43331508309471
23	15457	143.980887825296	0.12972875536348
23	15465	144.110616580659	0.45104150588879
23	15513	144.561658086548	3.3552377385218
23	15857	147.91689582507	3.2508893740642
23	16207	151.167785199134	0.97196992460968
23	16289	152.139755123744	0.63067568293131
23	16342	152.770430806675	1.3678278725537
23	16486	154.138258679229	0.29052269648729
23	16503	154.428781375716	0.72825136865637
23	16585	155.157032744372	0.33462815921733
23	16620	155.491660903589	2.7581213992101
23	16850	158.249782302799	4.8612637269095
23	17352	163.111046029709	2.6995538931646
23	17663	165.810599922874	1.5675387604531
23	17852	167.378138683327	1.5171573487414
23	18027	168.895296032068	5.5046070183616
23	18608	174.39990305043	7.2891603206948
23	19470	181.689063371125	0.13593824026026
23	19477	181.825001611385	0.76335074724486
23	19555	182.58835235863	0.21202475589188
23	19573	182.800377114522	1.1422931978135
23	19670	183.942670312335	0.10480552141096
23	19672	184.047475833746	1.7167718541126
23	19807	185.764247687859	0.26703342698387
23	19823	186.031281114843	2.8745906431541
23	20115	188.905871757997	0.577455521967
23	20191	189.483327279964	2.4688033751762
23	20450	191.95213065514	0.98086676138064
23	20541	192.932997416521	0.91034217074837
23	20692	193.843339587269	0.62010033189945
23	20754	194.463439919168	0.70253618653646
23	20840	195.165976105704	2.1810645023221
23	21099	197.347040608026	2.9672549446088
23	21402	200.314295552635	1.575625351714
23	21575	201.889920904349	5.9753488597394
23	22271	207.865269764088	0.55667597449967
23	22312	208.421945738588	0.0071596781372453
23	22313	208.429105416725	0.25757845063641
23	22373	208.686683867361	2.4092643487456
23	22622	211.095948216107	0.29456498640113
23	22681	211.390513202508	0.81262187609968
23	22751	212.203135078608	0.21403077763006
23	22762	212.417165856238	1.1179508404184
23	22924	213.535116696656	0.65753814425046
23	22979	214.192654840906	0.39963898926503
23	23035	214.592293830171	0.67090804524745
23	23121	215.263201875418	1.7109181080052
23	23267	216.974119983423	0.81187015643258
23	23376	217.785990139856	1.180106366472
23	23477	218.966096506328	0.77834253800311
23	23567	219.744439044331	1.5933571101794
23	23719	221.33779615451	0.17335776594573
23	23743	221.511153920456	1.3101005239499
23	23871	222.821254444406	2.2218934371512
23	24086	225.043147881557	1.7868739630011
23	24274	226.830021844558	6.8232222776438
23	24862	233.653244122202	1.29934828234
23	24986	234.952592404542	2.2516990776166
23	25193	237.204291482159	0.76583529053333
23	25265	237.970126772692	2.7445589212259
23	25564	240.714685693918	1.401376215436
23	25676	242.116061909354	1.0029112685528
23	25762	243.118973177907	0.078216258333925
23	25791	243.197189436241	1.1727404836625
23	25904	244.369929919903	1.2688986766883
23	26081	245.638828596591	1.1678146011649
23	26213	246.806643197756	2.0746522665053
23	26448	248.881295464261	2.4422579449471
23	26711	251.323553409208	2.7996233841522
23	27077	254.12317679336	7.0992788753375
23	27790	261.222455668698	3.6318582619784
23	28149	264.854313930676	2.7516322457306
23	28453	267.605946176407	1.387086470904
23	28592	268.993032647311	0.00093716124287715
23	28593	268.993969808554	0.024248803280448
23	28595	269.018218611834	0.46408266372505
23	28632	269.482301275559	1.3040421470192
23	28790	270.786343422578	4.6690898530367
23	29244	275.455433275615	6.300077029643
23	29855	281.755510305258	2.0126384609198
23	30079	283.768148766178	0.029940050626971
23	30080	283.798088816805	0.78872648008502
23	30193	284.58681529689	0.49351986567575
23	30251	285.080335162566	2.5518157585301
23	30493	287.632150921096	0.47894933620524
23	30522	288.111100257301	1.2697927322475
23	30650	289.380892989549	1.1319825671142
23	30771	290.512875556663	1.3738849515456
23	30878	291.886760508209	0.86961490917418
23	30953	292.756375417383	0.97538560662643
23	31041	293.731761024009	0.15700382929268
23	31070	293.888764853302	5.7035857222727
23	31661	299.592350575575	3.9842417244993
23	32053	303.576592300074	2.3070748411462
23	32335	305.88366714122	0.25539551555331
23	32353	306.139062656773	0.8752446243438
23	32442	307.014307281117	1.1506527050952
23	32540	308.164959986212	0.18648226431889
23	32555	308.351442250531	0.65271475142365
23	32687	309.004157001955	0.38466861159124
23	32734	309.388825613546	1.2840537138598
23	32869	310.672879327406	4.4657113787524
23	33329	315.138590706158	1.0597696600482
23	33441	316.198360366206	1.1366375389689
23	33579	317.334997905175	1.7666041937973
23	33774	319.101602098972	8.9792967001633
23	34772	328.080898799135	1.0021142983444
23	34915	329.083013097479	0.25006967146897
23	34951	329.333082768948	0.84375327233601
23	34996	330.176836041284	0.91895378252271
23	35085	331.095789823807	0.031694048159055
23	35093	331.127483871966	1.9467025437684
23	35289	333.074186415734	4.8524021785655
23	35780	337.926588594299	0.216440405294
23	35801	338.143028999593	2.6274140914431
23	36063	340.770443091036	0.50649724480807
23	36121	341.276940335844	1.3330366702845
23	36285	342.609977006128	5.22120365196
23	36874	347.831180658088	2.0650514574702
23	37133	349.896232115558	0.80848868383421
23	37225	350.704720799392	0.48096918525538
23	37264	351.185689984647	2.8457498894404
23	37590	354.031439874087	1.4262609296267
23	37730	355.457700803714	2.0044434574247
23	37899	357.462144261139	0.34350707179376
23	37941	357.805651332933	1.3841252581751
23	38059	359.189776591108	4.8775155667561
23	38661	364.067292157864	2.259350699992
23	38910	366.326642857856	0.16869846698754
23	38931	366.495341324844	1.9589950995315
23	39072	368.454336424376	0.55560900762528
23	39196	369.009945432001	1.7277403794276
23	39398	370.737685811429	0.71030684458678
23	39467	371.447992656016	2.5477746759897
23	39738	373.995767332006	0.43999284012272
23	39775	374.435760172129	0.14913749610228
23	39792	374.584897668231	0.92720418196023
23	39923	375.512101850191	0.44845314948711
23	39970	375.960554999678	0.83584021117957
23	40061	376.796395210858	0.11511721539568
23	40065	376.911512426254	0.81204060176827
23	40164	377.723553028022	1.5366707151561
23	40445	379.260223743178	8.1813305503691
23	41226	387.441554293547	0.274360623832
23	41267	387.715914917379	0.32172600561863
23	41296	388.037640922998	0.83271876442963
23	41391	388.870359687428	5.1348997164327
23	41988	394.005259403861	1.4783957368259
23	42165	395.483655140687	6.0912867207993
24	2057	19.157218708739	4.3839442278578
24	2498	23.541162936597	1.1103302582972
24	2634	24.651493194894	8.1672178227013
24	3554	32.818711017595	1.0611944014282
24	3686	33.879905419023	0.75159472910279
24	3786	34.631500148126	6.3328358283617
24	4555	40.964335976488	1.5676552134877
24	4714	42.531991189976	1.6172932818458
24	4875	44.149284471822	7.600372186709
24	5629	51.749656658531	1.5092843594483
24	5822	53.258941017979	8.9325052385208
24	6736	62.1914462565	1.1437035807693
24	6811	63.335149837269	1.1080484341739
24	6887	64.443198271443	0.78218735471738
24	7021	65.22538562616	0.28333856395359
24	7043	65.508724190114	0.020043916886749
24	7044	65.528768107001	3.006446731538
24	7449	68.535214838539	3.901597399278
24	7877	72.436812237817	0.21547768330454
24	7946	72.652289921122	2.1692281718886
24	8196	74.821518093011	4.9709644120662
24	8718	79.792482505077	5.6643676102719
24	9393	85.456850115349	2.8252790032845
24	9679	88.282129118633	0.082518736424354
24	9684	88.364647855057	0.8031863126365
24	9768	89.167834167693	1.0057613999263
24	9873	90.173595567619	1.0705073098798
24	9995	91.244102877499	0.0030838470345357
24	9996	91.247186724534	3.8636943405601
24	10374	95.110881065094	0.56539859096201
24	10427	95.676279656056	2.7746158545087
24	10673	98.450895510565	2.653677285127
24	10992	101.104572795692	1.0423527900242
24	11169	102.146925585716	0.18376474915951
24	11174	102.330690334876	0.35667326188759
24	11225	102.687363596764	1.6371976585134
24	11383	104.324561255277	0.90976785905515
24	11534	105.234329114332	1.7787967388516
24	11745	107.013125853184	2.6460367469817
24	11991	109.659162600166	0.46649287040051
24	12038	110.125655470567	0.045957162270828
24	12044	110.171612632838	0.87147927089492
24	12120	111.043091903733	0.10994785495312
24	12126	111.153039758686	0.36011693374631
24	12143	111.513156692432	4.4729615721159
24	12620	115.986118264548	0.92811046430501
24	12702	116.914228728853	0.31195243914705
24	12754	117.226181168	4.6722042672702
24	13265	121.89838543527	0.088927443362884
24	13281	121.987312878633	1.1899130729154
24	13415	123.177225951548	1.4369742787314
24	13514	124.614200230279	0.58484865381325
24	13615	125.199048884092	0.37431171550528
24	13671	125.573360599597	0.99978529032611
24	13761	126.573145889923	0.20619369976117
24	13783	126.779339589684	1.373247002408
24	13886	128.152586592092	1.2480347256187
24	13968	129.400621317711	0.47549326721203
24	14021	129.876114584923	3.5269874393432
24	14378	133.403102024266	0.78625348970948
24	14466	134.189355513975	0.21064312376745
24	14472	134.399998637742	3.770401397929
24	14902	138.170400035671	2.2690272328052
24	15069	140.439427268476	1.1191225575231
24	15251	141.558549825999	0.21098343179651
24	15273	141.769533257796	2.5474794210237
24	15481	144.31701267882	4.7515900979277
24	15968	149.068602776748	1.7010635086389
24	16122	150.769666285387	0.57199175815161
24	16229	151.341658043539	3.6784896511766
24	16556	155.020147694716	0.069753311440892
24	16567	155.089901006157	14.577784375094
24	18101	169.667685381251	0.33179611028359
24	18136	169.999481491535	0.94873985663859
24	18211	170.948221348174	2.2746606106965
24	18467	173.222881958871	0.42688685032984
24	18500	173.649768809201	0.12620713251697
24	18516	173.775975941718	4.2278109532856
24	19049	178.003786895004	3.8634226831709
24	19483	181.867209578175	0.93892006431866
24	19574	182.806129642494	0.68325521837817
24	19617	183.489384860872	1.6878315678711
24	19780	185.177216428743	0.026111098092842
24	19781	185.203327526836	1.1828718239782
24	19855	186.386199350814	2.0243008985026
24	20033	188.410500249317	1.4248006741863
24	20217	189.835300923503	0.76340122387088
24	20304	190.598702147374	1.1943108404189
24	20417	191.793012987793	1.1632239017044
24	20547	192.956236889497	0.29992328961226
24	20613	193.256160179109	1.6094090918737
24	20802	194.865569270983	3.6886456372951
24	21236	198.554214908278	1.1040117423465
24	21368	199.658226650625	3.7169795200772
24	21721	203.375206170702	0.61451719207303
24	21788	203.989723362775	0.13211957171486
24	21798	204.12184293449	1.7171935018585
24	22042	205.839036436349	3.8067060613623
24	22431	209.645742497711	2.7998685325513
24	22763	212.445611030262	3.6180439667051
24	23198	216.063654996967	3.2112007034283
24	23508	219.274855700395	0.48827769744425
24	23575	219.763133397839	2.8782216701007
24	23864	222.64135506794	1.8776394405333
24	24013	224.518994508473	1.2410488694648
24	24173	225.760043377938	0.98823631056273
24	24268	226.748279688501	0.71587064691961
24	24292	227.464150335421	1.7342904267747
24	24467	229.198440762196	1.456918939743
24	24584	230.655359701939	5.1599085288818
24	25088	235.815268230821	9.5760548194898
24	26063	245.391323050311	1.3218190334505
24	26207	246.713142083761	0.53745902894686
24	26306	247.250601112708	3.2060433098188
24	26596	250.456644422527	0.52103688676222
24	26665	250.977681309289	2.2469225801695
24	26925	253.224603889458	3.86954648309
24	27379	257.094150372548	1.4245788651638
24	27549	258.518729237712	0.99093683560383
24	27616	259.509666073316	1.3914561634973
24	27761	260.901122236813	2.1153964978391
24	27966	263.016518734652	1.24083054051
24	28075	264.257349275162	1.1268288338793
24	28234	265.384178109041	0.68128924045728
24	28312	266.065467349498	0.32297564454391
24	28338	266.388442994042	3.5650078191087
24	28694	269.953450813151	0.35421338798964
24	28719	270.307664201141	1.1156057405035
24	28841	271.423269941645	0.51774403657141
24	28876	271.941013978216	4.6317481536873
24	29370	276.572762131903	1.8295840832134
24	29553	278.402346215116	0.15167538982112
24	29570	278.554021604937	4.8682179129368
24	30038	283.422239517874	0.48559139551404
24	30099	283.907830913388	1.0683081024983
24	30233	284.976139015886	5.044229997303
24	30714	290.020369013189	6.1215365191254
24	31350	296.141905532314	0.68499679290709
24	31399	296.826902325221	0.91752074124615
24	31484	297.744423066467	1.5172870134111
24	31644	299.261710079878	0.91869959201365
24	31708	300.180409671892	3.6980880969511
24	32086	303.878497768843	1.6166802196077
24	32272	305.495177988451	1.8463551599642
24	32474	307.341533148415	2.9186160065138
24	32808	310.260149154929	1.1603661433922
24	32960	311.420515298321	2.9228440340692
24	33256	314.34335933239	10.505990162126
24	34396	324.849349494516	0.83579307732202
24	34508	325.685142571838	3.1181934663674
24	34878	328.803336038205	2.9634039670529
24	35160	331.766740005258	1.6471117961027
24	35314	333.413851801361	1.3139510217993
24	35448	334.72780282316	1.0231658344268
24	35568	335.750968657587	0.91373604798911
24	35647	336.664704705576	2.1339206610089
24	35843	338.798625366585	0.90744645147186
24	35957	339.706071818057	0.51058925138393
24	36002	340.216661069441	2.984868069099
24	36382	343.20152913854	5.178830005569
24	36944	348.380359144109	4.7900319283544
24	37516	353.170391072463	0.22043098645467
24	37548	353.390822058918	7.1534941936363
24	38184	360.544316252554	1.4736361898255
24	38435	362.017952442379	0.17628611665783
24	38478	362.194238559037	1.8364982686395
24	38656	364.030736827676	2.2103056545819
24	38899	366.241042482258	0.45401691889409
24	38960	366.695059401152	13.610814655659
24	40595	380.305874056811	8.1778892323085
24	41315	388.483763289119	0.42566884452991
24	41400	388.909432133649	1.2118466215092
24	41527	390.121278755158	0.35898185310681
24	41563	390.480260608265	7.6438395351774
24	42479	398.124100143442	5.3981850138071

