version 2
run Exponential-capacity-8-20210215-11:02:30-3776
attr configname Exponential-capacity
attr datetime 20210215-11:02:30
attr experiment Exponential-capacity
attr inifile aerocom.ini
attr iterationvars "$0=35, $1=3"
attr iterationvarsf 35,3-
attr measurement "$0=35, $1=3"
attr network Aerocom
attr processid 3776
attr repetition 0
attr replication #0
attr resultdir results
attr runnumber 8
attr seedset 0
param **.t 1s
param **.k 35ms
param **.X 0.4s
param **.m 3s
param **.tDistribution "\"exponential\""
param **.operationMode 0
param **.s "70 byte"
param **.dimPoolMax 10000
param **.dimPoolMin 8000
param **.nDL 1
param **.nA 1
param **.DLMaxCapacity 0
param **.trasmitting false

vector 0 Aerocom.aircraft[0].packetGenerator arrivalTime:vector ETV
attr "" ""
attr source computeArrivalTime
vector 1 Aerocom.aircraft[0].linkSelector waitingTime:vector ETV
attr "" ""
attr source computeWaitingTime
vector 2 Aerocom.aircraft[0].linkSelector queueLength:vector ETV
attr "" ""
attr source computeQueueLength
vector 3 Aerocom.aircraft[0].dataLink[0] actualCapacity:vector ETV
attr "" ""
attr source computeActualCapacity
vector 4 Aerocom.aircraft[0].linkSelector serviceTime:vector ETV
attr "" ""
attr source computeServiceTime
vector 5 Aerocom.aircraft[0].linkSelector responseTime:vector ETV
attr "" ""
attr source computeResponseTime
vector 6 Aerocom.aircraft[0].dataLink[0] tDistribution:vector ETV
attr "" ""
attr source computeTDistribution
0	1527	10.089882227233	0.077872013003
0	1532	10.167754240236	0.010554806963
0	1537	10.178309047199	0.057431415227
0	1543	10.235740462426	0.026952690084
0	1548	10.26269315251	0.042595682337
0	1553	10.305288834847	0.020792572441
0	1558	10.326081407288	0.003696442527
0	1560	10.329777849815	0.003670864246
0	1562	10.333448714061	0.088174874553
0	1573	10.421623588614	0.015202097958
0	1578	10.436825686572	0.043841263372
0	1583	10.480666949944	0.02217119162
0	1588	10.502838141564	0.236788668198
0	1593	10.739626809762	0.064390647478
0	1598	10.80401745724	0.005665453035
0	1600	10.809682910275	0.082256205141
0	1608	10.891939115416	0.070906808599
0	1613	10.962845924015	0.001339901951
0	1615	10.964185825966	0.00620639513
0	1617	10.970392221096	0.024847127453
0	1628	10.995239348549	0.033458824837
0	1633	11.028698173386	0.006388851066
0	1635	11.035087024452	0.004626429837
0	1640	11.039713454289	0.052843820946
0	1648	11.092557275235	0.065937511031
0	1653	11.158494786266	0.070069527343
0	1658	11.228564313609	0.057635168546
0	1663	11.286199482155	0.018550100735
0	1668	11.30474958289	0.029465833661
0	1673	11.334215416551	0.005277685357
0	1675	11.339493101908	0.018300451053
0	1683	11.357793552961	0.001182537494
0	1685	11.358976090455	0.002508638451
0	1687	11.361484728906	0.141744639358
0	1699	11.503229368264	0.04184034982
0	1704	11.545069718084	0.016354539824
0	1709	11.561424257908	0.021150467515
0	1714	11.582574725423	0.019069999485
0	1719	11.601644724908	0.044811697133
0	1724	11.646456422041	0.001816939326
0	1726	11.648273361367	0.070447045767
0	1734	11.718720407134	0.015921914568
0	1739	11.734642321702	0.129848620717
0	1744	11.864490942419	0.00058687181
0	1746	11.865077814229	0.067780203312
0	1754	11.932858017541	0.009181525821
0	1759	11.942039543362	0.000412413117
0	1761	11.942451956479	0.05067279287
0	1769	11.993124749349	0.015618848718
0	1775	12.008743598067	0.100961411324
0	1777	12.109705009391	0.045825442741
0	1779	12.155530452132	0.048520197321
0	1781	12.204050649453	0.006590324133
0	1783	12.210640973586	0.014511438993
0	1785	12.225152412579	0.0257645885
0	1787	12.250917001079	0.023536118089
0	1789	12.274453119168	0.001955451851
0	1791	12.276408571019	0.014489262294
0	1793	12.290897833313	0.007809872284
0	1795	12.298707705597	0.006924032761
0	1797	12.305631738358	0.000654341465
0	1799	12.306286079823	0.006563163292
0	1801	12.312849243115	0.055244445274
0	1804	12.368093688389	0.021790907039
0	1806	12.389884595428	0.00887269968
0	1808	12.398757295108	0.072661087115
0	1838	12.471418382223	0.014827998547
0	1846	12.48624638077	0.100959050094
0	1873	12.587205430864	0.092127660189
0	1878	12.679333091053	0.03279985512
0	1883	12.712132946173	0.042657888117
0	1888	12.75479083429	0.031778740956
0	1893	12.786569575246	0.001132488163
0	1895	12.787702063409	0.053579092919
0	1908	12.841281156328	0.006298506954
0	1911	12.847579663282	0.024261991934
0	1923	12.871841655216	0.034001875533
0	1933	12.905843530749	0.001808901703
0	1935	12.907652432452	0.030132327284
0	1947	12.937784759736	0.042033981729
0	1953	12.979818741465	0.009508382462
0	1958	12.989327123927	0.17076965108
0	1966	13.160096775007	0.095247188957
0	1975	13.255343963964	0.010883873174
0	1981	13.266227837138	0.033314039764
0	1987	13.299541876902	0.039780877334
0	1994	13.339322754236	0.02684778791
0	2000	13.366170542146	0.069901018862
0	2007	13.436071561008	0.031198250192
0	2012	13.4672698112	0.048638697232
0	2018	13.515908508432	0.045842487998
0	2023	13.56175099643	0.116827701685
0	2031	13.678578698115	0.013086027357
0	2036	13.691664725472	0.028279301869
0	2042	13.719944027341	0.017775279294
0	2047	13.737719306635	0.00835635055
0	2052	13.746075657185	0.00824336007
0	2058	13.754319017255	0.008805951459
0	2063	13.763124968714	0.007211121697
0	2065	13.770336090411	0.008640074408
0	2074	13.778976164819	0.101117645716
0	2082	13.880093810535	0.02950425714
0	2087	13.909598067675	0.047087160163
0	2093	13.956685227838	0.021058764528
0	2099	13.977743992366	0.023598559937
0	2104	14.001342552303	0.123006753819
0	2111	14.124349306122	0.009030446738
0	2117	14.13337975286	0.0399398266
0	2126	14.17331957946	0.010272767817
0	2132	14.183592347277	0.00312040015
0	2134	14.186712747427	0.002092333702
0	2137	14.188805081129	0.002032532674
0	2139	14.190837613803	0.019946414786
0	2153	14.210784028589	0.023418980329
0	2158	14.234203008918	0.013078442804
0	2163	14.247281451722	0.074503453309
0	2170	14.321784905031	0.041715033628
0	2175	14.363499938659	0.131134311484
0	2183	14.494634250143	0.016604570162
0	2188	14.511238820305	0.033650385005
0	2195	14.54488920531	0.006928870737
0	2197	14.551818076047	0.027369150231
0	2205	14.579187226278	0.000874592366
0	2207	14.580061818644	0.067492604791
0	2222	14.647554423435	0.002436618488
0	2224	14.649991041923	0.047667610351
0	2233	14.697658652274	0.039813847694
0	2239	14.737472499968	0.022793075617
0	2244	14.760265575585	0.021160342642
0	2250	14.781425918227	0.039562444107
0	2255	14.820988362334	0.026919193038
0	2261	14.847907555372	0.032692111641
0	2266	14.880599667013	0.079444400552
0	2274	14.960044067565	0.043897114453
0	2283	15.003941182018	0.162387838423
0	2292	15.166329020441	0.022187550679
0	2298	15.18851657112	0.008557185772
0	2304	15.197073756892	0.021309151981
0	2309	15.218382908873	0.038076655177
0	2316	15.25645956405	0.082912135979
0	2322	15.339371700029	0.010696171564
0	2327	15.350067871593	0.005165861151
0	2329	15.355233732744	0.000730352651
0	2331	15.355964085395	0.009112299404
0	2336	15.365076384799	0.049713420945
0	2349	15.414789805744	0.074674715062
0	2354	15.489464520806	0.013499069292
0	2359	15.502963590098	0.08217453165
0	2364	15.585138121748	0.016927343562
0	2369	15.60206546531	0.036324752642
0	2374	15.638390217952	0.031062567497
0	2379	15.669452785449	0.013740055987
0	2384	15.683192841436	0.062235016789
0	2389	15.745427858225	0.025667868561
0	2394	15.771095726786	0.034702650251
0	2400	15.805798377037	1.937316e-006
0	2402	15.805800314353	0.072128743431
0	2410	15.877929057784	0.013081715284
0	2415	15.891010773068	0.011185112921
0	2420	15.902195885989	0.019395979017
0	2425	15.921591865006	0.055990180464
0	2430	15.97758204547	0.075801728831
0	2435	16.053383774301	0.007187171906
0	2437	16.060570946207	0.039867017774
0	2445	16.100437963981	0.106861463436
0	2450	16.207299427417	0.021316561445
0	2455	16.228615988862	0.04070896492
0	2460	16.269324953782	0.023117607791
0	2465	16.292442561573	0.008495147279
0	2470	16.300937708852	0.054413202823
0	2475	16.355350911675	0.10305680971
0	2480	16.458407721385	0.009122404528
0	2485	16.467530125913	0.045937779754
0	2490	16.513467905667	0.074296132888
0	2495	16.587764038555	0.010253301047
0	2500	16.598017339602	0.013175027303
0	2505	16.611192366905	0.00839732318
0	2510	16.619589690085	0.11049834395
0	2515	16.730088034035	0.025557968283
0	2520	16.755646002318	0.022336601196
0	2525	16.777982603514	0.000909921082
0	2527	16.778892524596	0.043517277228
0	2535	16.822409801824	0.008138375643
0	2540	16.830548177467	0.005840612443
0	2542	16.83638878991	0.019349342973
0	2550	16.855738132883	0.045884032886
0	2555	16.901622165769	0.016403676659
0	2560	16.918025842428	0.03637219728
0	2565	16.954398039708	0.021799025842
0	2570	16.97619706555	0.008467187567
0	2575	16.984664253117	0.011382560629
0	2580	16.996046813746	0.007222529776
0	2582	17.003269343522	0.030932497961
0	2590	17.034201841483	0.057682666061
0	2595	17.091884507544	0.069791372045
0	2600	17.161675879589	0.048113798383
0	2605	17.209789677972	0.004376140647
0	2607	17.214165818619	0.039321117484
0	2615	17.253486936103	0.025498334496
0	2620	17.278985270599	0.011346968972
0	2625	17.290332239571	0.004957471218
0	2627	17.295289710789	0.006729150429
0	2632	17.302018861218	0.044163443572
0	2640	17.34618230479	0.042664977081
0	2645	17.388847281871	0.017649797664
0	2650	17.406497079535	0.021771292168
0	2655	17.428268371703	0.029168238423
0	2660	17.457436610126	0.064234219103
0	2666	17.521670829229	0.007086056729
0	2668	17.528756885958	0.008023551382
0	2673	17.53678043734	0.005476651963
0	2678	17.542257089303	0.006309600485
0	2683	17.548566689788	0.02343392068
0	2691	17.572000610468	0.004666921815
0	2693	17.576667532283	0.015380938667
0	2701	17.59204847095	0.044814852389
0	2706	17.636863323339	0.098722258195
0	2711	17.735585581534	0.001082420205
0	2713	17.736668001739	0.050734417175
0	2721	17.787402418914	0.048102005505
0	2726	17.835504424419	0.048333708348
0	2731	17.883838132767	0.003400868743
0	2733	17.88723900151	0.081917218623
0	2741	17.969156220133	0.008581933242
0	2746	17.977738153375	0.003048800414
0	2748	17.980786953789	0.048416076315
0	2757	18.029203030104	0.028118711693
0	2759	18.057321741797	0.04604691904
0	2761	18.103368660837	0.030737527755
0	2763	18.134106188592	0.001634071028
0	2765	18.13574025962	0.114397374029
0	2767	18.250137633649	0.008212954724
0	2770	18.258350588373	0.01209318543
0	2772	18.270443773803	0.01183541502
0	2774	18.282279188823	0.009643477796
0	2776	18.291922666619	0.039582146772
0	2778	18.331504813391	0.003699051094
0	2780	18.335203864485	0.002278950268
0	2782	18.337482814753	0.000579813305
0	2784	18.338062628058	0.028389935778
0	2786	18.366452563836	0.092839548043
0	2810	18.459292111879	0.000324905853
0	2812	18.459617017732	0.038794341397
0	2826	18.498411359129	0.062649636157
0	2849	18.561060995286	0.053824005007
0	2854	18.614885000293	0.145458988345
0	2859	18.760343988638	0.011581845841
0	2864	18.771925834479	0.042549166568
0	2869	18.814475001047	0.030900819073
0	2874	18.84537582012	0.007015476828
0	2876	18.852391296948	0.002313220374
0	2881	18.854704517322	0.025138626804
0	2889	18.879843144126	0.023268271234
0	2894	18.90311141536	0.030399800601
0	2899	18.933511215961	0.132790832408
0	2904	19.066302048369	0.05421540877
0	2909	19.120517457139	0.073204480042
0	2914	19.193721937181	0.032641414934
0	2919	19.226363352115	0.014445545335
0	2924	19.24080889745	0.008624553777
0	2929	19.249433451227	0.114062234201
0	2934	19.363495685428	0.021254775102
0	2939	19.38475046053	0.009225198949
0	2944	19.393975659479	0.073881107103
0	2950	19.467856766582	0.104377023642
0	2956	19.572233790224	0.023723070072
0	2961	19.595956860296	0.099282406768
0	2966	19.695239267064	0.044003294845
0	2971	19.739242561909	0.056191056707
0	2976	19.795433618616	0.023304487032
0	2981	19.818738105648	0.034841227518
0	2986	19.853579333166	0.043150816206
0	2991	19.896730149372	0.072581651209
0	2996	19.969311800581	0.024130208825
0	3001	19.993442009406	0.012136365633
0	3006	20.005578375039	0.065150107504
0	3011	20.070728482543	0.066153559433
0	3016	20.136882041976	0.007563367581
0	3018	20.144445409557	0.033670417431
0	3026	20.178115826988	0.051948486893
0	3031	20.230064313881	0.000466383569
0	3033	20.23053069745	0.128088006577
0	3042	20.358618704027	0.014928753421
0	3047	20.373547457448	0.069396211661
0	3052	20.442943669109	0.005611693307
0	3054	20.448555362416	0.053062412544
0	3062	20.50161777496	0.140278237921
0	3067	20.641896012881	0.147065079919
0	3072	20.7889610928	0.022777906983
0	3077	20.811738999783	0.049023649394
0	3082	20.860762649177	0.024078021746
0	3087	20.884840670923	0.000141971246
0	3089	20.884982642169	0.035706548078
0	3097	20.920689190247	0.010989926432
0	3102	20.931679116679	0.016092696122
0	3107	20.947771812801	0.018496352991
0	3113	20.966268165792	0.005152876306
0	3115	20.971421042098	0.01956526845
0	3123	20.990986310548	0.060432168291
0	3129	21.051418478839	0.012375880134
0	3131	21.063794358973	0.007368665087
0	3133	21.07116302406	0.017945012492
0	3135	21.089108036552	0.02506158613
0	3137	21.114169622682	0.004500308305
0	3139	21.118669930987	0.008890398242
0	3141	21.127560329229	0.138167164365
0	3143	21.265727493594	0.00360389273
0	3145	21.269331386324	0.018237758738
0	3147	21.287569145062	0.069366161939
0	3149	21.356935307001	0.029474770599
0	3151	21.3864100776	0.126312935174
0	3190	21.512723012774	0.014734765432
0	3195	21.527457778206	0.113398703842
0	3200	21.640856482048	0.054435302612
0	3205	21.69529178466	0.082963565321
0	3210	21.778255349981	0.018548655275
0	3215	21.796804005256	0.052060041402
0	3221	21.848864046658	0.015580226879
0	3226	21.864444273537	0.014181400882
0	3231	21.878625674419	0.017849679185
0	3236	21.896475353604	0.002960282212
0	3238	21.899435635816	0.012575286679
0	3246	21.912010922495	0.018303867878
0	3251	21.930314790373	0.052242125747
0	3256	21.98255691612	0.009249466245
0	3261	21.991806382365	0.091230013081
0	3267	22.083036395446	0.004974392899
0	3269	22.088010788345	0.013772584389
0	3277	22.101783372734	0.001921758039
0	3279	22.103705130773	0.106920092265
0	3287	22.210625223038	0.045260175058
0	3292	22.255885398096	0.000491630693
0	3294	22.256377028789	0.000402263757
0	3296	22.256779292546	0.026684828948
0	3307	22.283464121494	0.05152714553
0	3312	22.334991267024	0.012713477662
0	3317	22.347704744686	0.005562661288
0	3319	22.353267405974	0.075053491258
0	3327	22.428320897232	0.002900179552
0	3329	22.431221076784	0.010097944862
0	3334	22.441319021646	0.003285609155
0	3339	22.444604630801	0.039598256866
0	3347	22.484202887667	0.039021059767
0	3352	22.523223947434	0.058203802324
0	3357	22.581427749758	0.009853340786
0	3362	22.591281090544	0.019806308957
0	3367	22.611087399501	0.019098020017
0	3372	22.630185419518	0.048820418194
0	3377	22.679005837712	0.028525641581
0	3382	22.707531479293	0.061936693812
0	3387	22.769468173105	0.068952014796
0	3392	22.838420187901	0.016676750391
0	3397	22.855096938292	0.045445597246
0	3402	22.900542535538	0.003553692938
0	3404	22.904096228476	0.011030601005
0	3412	22.915126829481	0.010356565564
0	3417	22.925483395045	0.004933875955
0	3419	22.930417271	0.031371522176
0	3427	22.961788793176	0.001993828636
0	3429	22.963782621812	0.022651114642
0	3437	22.986433736454	0.012563646143
0	3442	22.998997382597	0.02342560052
0	3447	23.022422983117	0.010639004573
0	3452	23.03306198769	0.021470368136
0	3457	23.054532355826	0.021317255936
0	3462	23.075849611762	0.026025411712
0	3467	23.101875023474	0.040240948571
0	3472	23.142115972045	0.020419831986
0	3477	23.162535804031	0.041632368797
0	3482	23.204168172828	0.067019479017
0	3487	23.271187651845	0.011669116843
0	3492	23.282856768688	0.019885966931
0	3497	23.302742735619	0.016727129563
0	3503	23.319469865182	0.061380012576
0	3508	23.380849877758	0.006994943827
0	3510	23.387844821585	0.024920282297
0	3518	23.412765103882	0.054381092571
0	3523	23.467146196453	0.003161803543
0	3525	23.470307999996	0.002048476463
0	3527	23.472356476459	0.037762441797
0	3538	23.510118918256	0.041790467971
0	3543	23.551909386227	0.008099734018
0	3548	23.560009120245	0.052787533107
0	3553	23.612796653352	0.065769145197
0	3558	23.678565798549	0.05258444778
0	3563	23.731150246329	0.040029171721
0	3568	23.77117941805	0.01051137781
0	3573	23.78169079586	0.006876166006
0	3575	23.788566961866	0.016383725863
0	3583	23.804950687729	0.002534668854
0	3585	23.807485356583	0.031001622611
0	3593	23.838486979194	0.000340739327
0	3595	23.838827718521	0.011150434676
0	3600	23.849978153197	0.07791293963
0	3608	23.927891092827	0.016218650964
0	3613	23.944109743791	0.005013855748
0	3615	23.949123599539	0.007681385631
0	3620	23.95680498517	0.052866156043
0	3629	24.009671141213	0.021557174932
0	3631	24.031228316145	0.090735701307
0	3633	24.121964017452	0.001597331732
0	3635	24.123561349184	0.043956271952
0	3637	24.167517621136	0.056294624718
0	3639	24.223812245854	0.023623284078
0	3641	24.247435529932	0.002802759958
0	3643	24.25023828989	0.022187624427
0	3645	24.272425914317	0.02560408687
0	3647	24.298030001187	0.075008489515
0	3649	24.373038490702	0.012825795214
0	3651	24.385864285916	0.02345811568
0	3657	24.409322401596	0.030158362213
0	3671	24.439480763809	0.018739152288
0	3679	24.458219916097	0.112168309036
0	3705	24.570388225133	0.006695361606
0	3707	24.577083586739	0.036303578294
0	3715	24.613387165033	0.022571797191
0	3720	24.635958962224	0.001260099041
0	3722	24.637219061265	0.053579694663
0	3730	24.690798755928	0.019698882064
0	3735	24.710497637992	0.028451442641
0	3740	24.738949080633	0.024968449898
0	3745	24.763917530531	0.006096830613
0	3747	24.770014361144	0.026888866965
0	3755	24.796903228109	0.005434995493
0	3757	24.802338223602	0.040032838269
0	3765	24.842371061871	0.036690118673
0	3771	24.879061180544	0.011380980467
0	3776	24.890442161011	0.027119483283
0	3781	24.917561644294	0.004828363118
0	3783	24.922390007412	0.013792015018
0	3791	24.93618202243	0.01745423165
0	3796	24.95363625408	0.005565420588
0	3798	24.959201674668	0.109649032134
0	3806	25.068850706802	0.00609695508
0	3808	25.074947661882	0.007251481379
0	3813	25.082199143261	0.00485053875
0	3818	25.087049682011	0.082013397553
0	3827	25.169063079564	0.03027283383
0	3832	25.199335913394	0.027469295686
0	3837	25.22680520908	0.003387911531
0	3839	25.230193120611	0.021366899575
0	3847	25.251560020186	0.084490575068
0	3852	25.336050595254	0.074809759165
0	3857	25.410860354419	0.003031594806
0	3859	25.413891949225	0.021476147341
0	3867	25.435368096566	0.056396619969
0	3872	25.491764716535	0.045078669128
0	3877	25.536843385663	0.073382269573
0	3882	25.610225655236	0.01782208704
0	3887	25.628047742276	0.003434183292
0	3889	25.631481925568	0.082035437428
0	3897	25.713517362996	0.019448061961
0	3902	25.732965424957	0.040994229323
0	3907	25.77395965428	0.022434074084
0	3912	25.796393728364	0.042094982434
0	3917	25.838488710798	0.030378949371
0	3922	25.868867660169	0.013897833251
0	3927	25.88276549342	0.044087440972
0	3932	25.926852934392	0.049482416534
0	3937	25.976335350926	0.000960473515
0	3939	25.977295824441	0.035376920708
0	3947	26.012672745149	0.046008273433
0	3952	26.058681018582	0.00960622327
0	3957	26.068287241852	0.050979607405
0	3962	26.119266849257	0.006124826688
0	3964	26.125391675945	0.000343505274
0	3966	26.125735181219	0.055704464298
0	3977	26.181439645517	0.012900402886
0	3982	26.194340048403	0.111938924187
0	3987	26.30627897259	0.009278258549
0	3992	26.315557231139	0.02144609057
0	3997	26.337003321709	0.024500897264
0	4002	26.361504218973	0.031290049094
0	4007	26.392794268067	0.107557632797
0	4012	26.500351900864	0.068249191915
0	4017	26.568601092779	0.028560649739
0	4022	26.597161742518	0.021387014645
0	4027	26.618548757163	0.003589316255
0	4029	26.622138073418	0.106187990034
0	4037	26.728326063452	0.034020381187
0	4042	26.762346444639	0.030010228591
0	4047	26.79235667323	0.06957788092
0	4052	26.86193455415	0.060167425913
0	4057	26.922101980063	0.006003851958
0	4059	26.928105832021	0.083831292629
0	4068	27.01193712465	0.170922464662
0	4071	27.182859589312	0.059158223417
0	4073	27.242017812729	0.003109133393
0	4075	27.245126946122	0.006077979712
0	4077	27.251204925834	0.003472753427
0	4079	27.254677679261	0.034694782702
0	4081	27.289372461963	0.035141791086
0	4083	27.324514253049	0.017787680892
0	4085	27.342301933941	0.104362288006
0	4106	27.446664221947	0.002266799248
0	4108	27.448931021195	0.096621155949
0	4125	27.545552177144	0.019309626441
0	4130	27.564861803585	0.020757855906
0	4135	27.585619659491	0.010476493385
0	4140	27.596096152876	0.045529309961
0	4145	27.641625462837	0.066175520405
0	4150	27.707800983242	0.047450147985
0	4155	27.755251131227	0.001185514933
0	4157	27.75643664616	0.012834680383
0	4162	27.769271326543	0.111781665544
0	4171	27.881052992087	0.004465075083
0	4173	27.88551806717	0.015367694496
0	4181	27.900885761666	0.020536908234
0	4186	27.9214226699	0.015440418376
0	4191	27.936863088276	0.017402325022
0	4196	27.954265413298	0.000576214939
0	4198	27.954841628237	0.026563767099
0	4206	27.981405395336	0.00716982935
0	4208	27.988575224686	0.065332416456
0	4216	28.053907641142	0.017952444714
0	4221	28.071860085856	0.026896190209
0	4226	28.098756276065	0.092721589178
0	4231	28.191477865243	0.039909760692
0	4236	28.231387625935	0.003672646156
0	4238	28.235060272091	0.032882569505
0	4246	28.267942841596	0.101707186128
0	4251	28.369650027724	0.003628479282
0	4253	28.373278507006	0.071270296555
0	4261	28.444548803561	0.003378944766
0	4263	28.447927748327	0.021190182357
0	4271	28.469117930684	0.002015752089
0	4273	28.471133682773	0.013844796014
0	4278	28.484978478787	0.003167761455
0	4283	28.488146240242	0.009272722817
0	4288	28.497418963059	0.009475353676
0	4293	28.506894316735	0.033359288839
0	4301	28.540253605574	0.064033975455
0	4307	28.604287581029	0.001177187232
0	4309	28.605464768261	0.025862200698
0	4317	28.631326968959	0.000550519332
0	4319	28.631877488291	0.025187571419
0	4327	28.65706505971	0.019600293067
0	4332	28.676665352777	0.036726975807
0	4337	28.713392328584	0.002467568193
0	4339	28.715859896777	0.027529568216
0	4347	28.743389464993	0.010159569529
0	4352	28.753549034522	0.001155139477
0	4354	28.754704173999	0.008748278583
0	4359	28.763452452582	0.030375165446
0	4367	28.793827618028	0.010218112511
0	4372	28.804045730539	0.051604777867
0	4377	28.855650508406	0.004916650093
0	4379	28.860567158499	0.016518883072
0	4387	28.877086041571	0.000423823577
0	4389	28.877509865148	0.023637455456
0	4397	28.901147320604	0.004295025256
0	4399	28.90544234586	0.139914721685
0	4407	29.045357067545	0.03372574437
0	4413	29.079082811915	0.009820157416
0	4418	29.088902969331	0.128084674146
0	4423	29.216987643477	0.016412246455
0	4428	29.233399889932	0.162409799858
0	4433	29.39580968979	0.001635721561
0	4435	29.397445411351	0.018411077852
0	4443	29.415856489203	0.012990660228
0	4448	29.428847149431	0.006225686525
0	4450	29.435072835956	0.062332713621
0	4458	29.497405549577	0.035637615258
0	4463	29.533043164835	0.057581419948
0	4468	29.590624584783	0.023588020548
0	4473	29.614212605331	0.035760142159
0	4478	29.64997274749	0.159173834815
0	4483	29.809146582305	0.016065977462
0	4488	29.825212559767	0.002363695491
0	4490	29.827576255258	0.013127168009
0	4498	29.840703423267	0.053512860475
0	4503	29.894216283742	0.056653137325
0	4508	29.950869421067	0.011908302686
0	4513	29.962777723753	0.002556808
0	4515	29.965334531753	0.009670681752
0	4520	29.975005213505	0.040273190753
0	4529	30.015278404258	0.038017115891
0	4531	30.053295520149	0.016772444307
0	4533	30.070067964456	0.009885634919
0	4535	30.079953599375	0.035172665817
0	4537	30.115126265192	0.038366739635
0	4539	30.153493004827	0.091547432635
0	4541	30.245040437462	0.025493215056
0	4543	30.270533652518	0.067330849973
0	4545	30.337864502491	0.019313074257
0	4547	30.357177576748	0.024097986082
0	4549	30.38127556283	0.02831428933
0	4555	30.40958985216	0.019541437624
0	4563	30.429131289784	0.011842114154
0	4571	30.440973403938	0.060519187319
0	4594	30.501492591257	0.042914627428
0	4605	30.544407218685	0.046909658669
0	4610	30.591316877354	0.018756457837
0	4615	30.610073335191	0.020743009628
0	4620	30.630816344819	0.015649896591
0	4625	30.64646624141	0.121472577819
0	4630	30.767938819229	0.061743058727
0	4635	30.829681877956	0.015793357947
0	4640	30.845475235903	0.090643915092
0	4645	30.936119150995	0.017735312486
0	4651	30.953854463481	0.001648474487
0	4653	30.955502937968	0.046970690941
0	4661	31.002473628909	0.009267379567
0	4666	31.011741008476	0.020866016199
0	4671	31.032607024675	0.014997766146
0	4676	31.047604790821	0.096920056899
0	4682	31.14452484772	0.059052640107
0	4687	31.203577487827	0.010408073477
0	4692	31.213985561304	0.148155552872
0	4698	31.362141114176	0.016830737851
0	4703	31.378971852027	0.121549949707
0	4708	31.500521801734	0.041807148023
0	4713	31.542328949757	0.082366716883
0	4718	31.62469566664	0.079579750834
0	4723	31.704275417474	0.01231185849
0	4728	31.716587275964	0.004516347611
0	4730	31.721103623575	0.169040208679
0	4738	31.890143832254	0.009676545079
0	4743	31.899820377333	0.010041818338
0	4748	31.909862195671	0.009068928956
0	4753	31.918931124627	0.00391805894
0	4755	31.922849183567	0.023533401571
0	4763	31.946382585138	0.105523889527
0	4768	32.051906474665	0.077742496412
0	4773	32.129648971077	0.009303579216
0	4778	32.138952550293	0.01551670386
0	4783	32.154469254153	0.04096525055
0	4788	32.195434504703	0.017028169892
0	4793	32.212462674595	0.00210449292
0	4795	32.214567167515	0.086997087952
0	4803	32.301564255467	0.045918707838
0	4808	32.347482963305	0.004229098869
0	4810	32.351712062174	0.074714583809
0	4818	32.426426645983	0.034905462346
0	4823	32.461332108329	0.011131909082
0	4828	32.472464017411	0.004987603098
0	4830	32.477451620509	0.016678053734
0	4838	32.494129674243	0.016407849207
0	4843	32.51053752345	0.016410735447
0	4848	32.526948258897	0.013725645137
0	4853	32.540673904034	0.048351067795
0	4858	32.589024971829	0.039892839233
0	4863	32.628917811062	0.009504452709
0	4868	32.638422263771	0.055557503039
0	4873	32.69397976681	0.006599765349
0	4875	32.700579532159	0.024536592826
0	4883	32.725116124985	0.020879247091
0	4888	32.745995372076	0.012296244854
0	4893	32.75829161693	0.012707759406
0	4898	32.770999376336	0.075992905847
0	4903	32.846992282183	0.063963419374
0	4908	32.910955701557	0.015178269938
0	4913	32.926133971495	0.009501448825
0	4918	32.93563542032	0.046931560361
0	4923	32.982566980681	0.024427814209
0	4929	33.00699479489	0.028367260151
0	4931	33.035362055041	0.100009887174
0	4933	33.135371942215	0.007876487285
0	4935	33.1432484295	0.0351790477
0	4937	33.1784274772	0.027832777046
0	4939	33.206260254246	0.070685457613
0	4941	33.276945711859	0.025662886854
0	4943	33.302608598713	0.098591910549
0	4946	33.401200509262	0.015011914252
0	4954	33.416212423514	0.048627547743
0	4974	33.464839971257	0.00087248335
0	4976	33.465712454607	0.042089507065
0	4990	33.507801961672	0.005639990259
0	4992	33.513441951931	0.120433041665
0	5000	33.633874993596	0.004948758946
0	5002	33.638823752542	0.181479529806
0	5010	33.820303282348	0.043075159786
0	5015	33.863378442134	0.021040412623
0	5020	33.884418854757	0.043213795662
0	5025	33.927632650419	0.00257272321
0	5027	33.930205373629	0.033113560944
0	5035	33.963318934573	0.012125166462
0	5040	33.975444101035	0.03900603811
0	5045	34.014450139145	0.005785255431
0	5047	34.020235394576	0.020766569889
0	5055	34.041001964465	0.018914094416
0	5060	34.059916058881	0.041684350869
0	5065	34.10160040975	0.00492608044
0	5067	34.10652649019	0.016636888437
0	5075	34.123163378627	0.03243235101
0	5080	34.155595729637	0.003688864547
0	5082	34.159284594184	0.016890132531
0	5090	34.176174726715	0.11288606293
0	5095	34.289060789645	0.079011687676
0	5100	34.368072477321	0.002631713321
0	5102	34.370704190642	0.120246818737
0	5110	34.490951009379	0.000682125253
0	5112	34.491633134632	0.027706318311
0	5120	34.519339452943	0.136181853164
0	5125	34.655521306107	0.0112469106
0	5130	34.666768216707	0.00562555142
0	5132	34.672393768127	0.031396855494
0	5140	34.703790623621	0.010477355103
0	5145	34.714267978724	0.079474853759
0	5151	34.793742832483	0.008496090308
0	5156	34.802238922791	0.018273895654
0	5161	34.820512818445	0.030355220659
0	5166	34.850868039104	0.028109787017
0	5171	34.878977826121	0.130179290881
0	5176	35.009157117002	0.011094208296
0	5181	35.020251325298	0.011159436694
0	5186	35.031410761992	0.021272466744
0	5191	35.052683228736	0.122817224285
0	5196	35.175500453021	0.017978996464
0	5201	35.193479449485	0.000903981555
0	5203	35.19438343104	0.009994912218
0	5208	35.204378343258	0.07663763501
0	5216	35.281015978268	0.024673226248
0	5221	35.305689204516	0.043158105453
0	5226	35.348847309969	0.013006551419
0	5231	35.361853861388	0.011389585101
0	5236	35.373243446489	0.016340252025
0	5241	35.389583698514	0.078837250452
0	5247	35.468420948966	0.026053239149
0	5252	35.494474188115	0.000940821683
0	5254	35.495415009798	0.048603704585
0	5262	35.544018714383	0.034388491995
0	5267	35.578407206378	0.014200422035
0	5272	35.592607628413	0.013992834537
0	5277	35.60660046295	0.090268959578
0	5282	35.696869422528	0.119522371585
0	5288	35.816391794113	0.06939844031
0	5294	35.885790234423	0.006461555552
0	5296	35.892251789975	0.001747046085
0	5301	35.89399883606	0.08111341219
0	5309	35.97511224825	0.010239271042
0	5314	35.985351519292	0.014013353601
0	5319	35.999364872893	0.020679232714
0	5325	36.020044105607	0.077011526216
0	5327	36.097055631823	0.003868055681
0	5329	36.100923687504	0.025142804232
0	5331	36.126066491736	0.014995436008
0	5333	36.141061927744	0.025012196558
0	5335	36.166074124302	0.047160708829
0	5338	36.213234833131	0.017118794372
0	5340	36.230353627503	0.039936516699
0	5342	36.270290144202	0.026432413622
0	5344	36.296722557824	0.034085750702
0	5346	36.330808308526	0.101329116596
0	5358	36.432137425122	0.043389432822
0	5375	36.475526857944	0.078177394788
0	5392	36.553704252732	0.008026101007
0	5397	36.561730353739	0.039566001941
0	5402	36.60129635568	0.014633208063
0	5407	36.615929563743	0.035663361338
0	5412	36.651592925081	0.039471615175
0	5417	36.691064540256	0.027820549262
0	5422	36.718885089518	0.073986738513
0	5428	36.792871828031	0.011143755562
0	5433	36.804015583593	0.027459484392
0	5440	36.831475067985	0.005616943758
0	5443	36.837092011743	0.011629121825
0	5453	36.848721133568	0.067901687346
0	5467	36.916622820914	0.001074562055
0	5469	36.917697382969	0.035280473917
0	5477	36.952977856886	0.043366277758
0	5485	36.996344134644	0.012465802355
0	5490	37.008809936999	0.000277037128
0	5493	37.009086974127	0.021580758098
0	5502	37.030667732225	0.016320395925
0	5507	37.04698812815	0.000869162271
0	5509	37.047857290421	0.026465818673
0	5518	37.074323109094	0.02858074411
0	5524	37.102903853204	0.089336677274
0	5531	37.192240530478	0.015683078893
0	5537	37.207923609371	0.003281438566
0	5539	37.211205047937	0.024450335213
0	5548	37.23565538315	0.01822726027
0	5555	37.25388264342	0.005837851534
0	5558	37.259720494954	0.000861477542
0	5560	37.260581972496	0.019399396569
0	5571	37.279981369065	0.014681776321
0	5576	37.294663145386	0.082820159235
0	5585	37.377483304621	0.034071539028
0	5591	37.411554843649	0.000299180653
0	5593	37.411854024302	0.011452363346
0	5603	37.423306387648	0.121428784357
0	5613	37.544735172005	0.008239205328
0	5618	37.552974377333	0.041092454788
0	5623	37.594066832121	0.004303689841
0	5625	37.598370521962	0.00366492957
0	5631	37.602035451532	0.030125014763
0	5641	37.632160466295	0.011976114207
0	5647	37.644136580502	0.04159152061
0	5655	37.685728101112	0.027108087578
0	5662	37.71283618869	0.039011385105
0	5667	37.751847573795	0.045076158369
0	5673	37.796923732164	0.104062291882
0	5681	37.900986024046	0.017235448173
0	5686	37.918221472219	9.474061e-005
0	5688	37.918316212829	0.009015470322
0	5693	37.927331683151	0.036464556269
0	5703	37.96379623942	0.021234934324
0	5708	37.985031173744	0.032104512892
0	5717	38.017135686636	0.125247560404
0	5726	38.14238324704	0.031098504931
0	5732	38.173481751971	0.06281355899
0	5738	38.236295310961	0.115172709059
0	5747	38.35146802002	0.086192549429
0	5755	38.437660569449	0.000595546831
0	5757	38.43825611628	0.038516398567
0	5765	38.476772514847	0.041731052098
0	5770	38.518503566945	0.020335302941
0	5775	38.538838869886	0.058809884003
0	5782	38.597648753889	0.040441615506
0	5787	38.638090369395	0.024953476769
0	5793	38.663043846164	0.036603885248
0	5798	38.699647731412	0.014224450336
0	5803	38.713872181748	0.001033613391
0	5805	38.714905795139	0.054762979274
0	5814	38.769668774413	0.088196104285
0	5821	38.857864878698	0.003580562335
0	5823	38.861445441033	0.027365954809
0	5832	38.888811395842	0.020421106031
0	5838	38.909232501873	0.16542383189
0	5849	39.074656333763	0.025685448846
0	5854	39.100341782609	0.016906855849
0	5860	39.117248638458	0.041440970772
0	5867	39.15868960923	0.057517363232
0	5873	39.216206972462	0.003334956901
0	5875	39.219541929363	0.0216318332
0	5883	39.241173762563	0.009046073705
0	5888	39.250219836268	0.06137068414
0	5896	39.311590520408	0.018485039675
0	5902	39.330075560083	0.027111480772
0	5907	39.357187040855	0.034170220804
0	5912	39.391357261659	0.076394986125
0	5918	39.467752247784	0.07630071565
0	5923	39.544052963434	0.07424040599
0	5928	39.618293369424	0.033757491662
0	5933	39.652050861086	0.013928193813
0	5938	39.665979054899	0.005013704632
0	5940	39.670992759531	0.018137974684
0	5948	39.689130734215	0.137951053962
0	5954	39.827081788177	0.027533909041
0	5959	39.854615697218	0.071891836935
0	5964	39.926507534153	0.034021713897
0	5969	39.96052924805	0.024451124843
0	5975	39.984980372893	0.016694921283
0	5980	40.001675294176	0.089443120083
0	5985	40.091118414259	0.02734090765
0	5990	40.118459321909	0.027283726009
0	5995	40.145743047918	0.004510752611
0	5997	40.150253800529	0.089877642005
0	6006	40.240131442534	0.039956543323
0	6011	40.280087985857	0.061997366176
0	6016	40.342085352033	0.011845439649
0	6022	40.353930791682	0.120785354528
0	6027	40.47471614621	0.001537453194
0	6029	40.476253599404	0.088305611147
0	6037	40.564559210551	0.004319331503
0	6039	40.568878542054	0.00128446746
0	6041	40.570163009514	0.003938548123
0	6046	40.574101557637	0.006723345165
0	6048	40.580824902802	0.0133178832
0	6056	40.594142786002	0.017250756893
0	6064	40.611393542895	0.009907535255
0	6069	40.62130107815	0.106383605655
0	6077	40.727684683805	0.028956407326
0	6082	40.756641091131	0.012485068844
0	6087	40.769126159975	0.082888261855
0	6092	40.85201442183	0.006121859103
0	6094	40.858136280933	0.030371430003
0	6102	40.888507710936	0.07609815175
0	6107	40.964605862686	0.031890103282
0	6112	40.996495965968	0.020695597495
0	6117	41.017191563463	0.00951530435
0	6122	41.026706867813	0.083461537013
0	6127	41.110168404826	0.030436537629
0	6132	41.140604942455	0.006111972877
0	6134	41.146716915332	0.005518521849
0	6139	41.152235437181	0.037873565957
0	6147	41.190109003138	0.014312113524
0	6152	41.204421116662	0.020310135579
0	6157	41.224731252241	0.034378336454
0	6162	41.259109588695	0.002784955428
0	6164	41.261894544123	0.015691525731
0	6172	41.277586069854	0.041728828473
0	6177	41.319314898327	0.084666798796
0	6182	41.403981697123	0.009947691023
0	6187	41.413929388146	0.073772312544
0	6192	41.48770170069	0.001414755218
0	6194	41.489116455908	0.019930263985
0	6202	41.509046719893	0.002163565203
0	6204	41.511210285096	0.025515235248
0	6212	41.536725520344	0.002205820549
0	6214	41.538931340893	0.022530368205
0	6222	41.561461709098	0.083407389562
0	6227	41.64486909866	0.007132488377
0	6229	41.652001587037	0.047131955099
0	6237	41.699133542136	0.019967709583
0	6242	41.719101251719	0.079918791205
0	6247	41.799020042924	0.007269615017
0	6249	41.806289657941	0.039078150075
0	6258	41.845367808016	0.043959845957
0	6263	41.889327653973	0.026346937821
0	6268	41.915674591794	0.0259088267
0	6273	41.941583418494	0.012706650404
0	6278	41.954290068898	0.013527296372
0	6283	41.96781736527	0.216856854155
0	6290	42.184674219425	0.000108652488
0	6292	42.184782871913	0.015739967878
0	6294	42.200522839791	0.031834974671
0	6296	42.232357814462	0.022263620903
0	6298	42.254621435365	0.036651728942
0	6300	42.291273164307	0.016632330357
0	6302	42.307905494664	0.000182109648
0	6304	42.308087604312	0.136102565297
0	6325	42.444190169609	0.122989258803
0	6336	42.567179428412	0.006718526568
0	6338	42.57389795498	0.038158595526
0	6346	42.612056550506	0.013911767797
0	6351	42.625968318303	0.01214251091
0	6356	42.638110829213	0.039918356624
0	6361	42.678029185837	0.007825967042
0	6366	42.685855152879	0.002285275848
0	6368	42.688140428727	0.090988563587
0	6376	42.779128992314	0.032710314572
0	6381	42.811839306886	0.012949271291
0	6386	42.824788578177	0.022729375438
0	6391	42.847517953615	0.018067120923
0	6396	42.865585074538	0.011692627907
0	6401	42.877277702445	0.035089684291
0	6406	42.912367386736	0.009532292922
0	6412	42.921899679658	0.077462953104
0	6417	42.999362632762	0.025291078314
0	6422	43.024653711076	0.019834568595
0	6427	43.044488279671	0.016056295593
0	6432	43.060544575264	0.092194598858
0	6437	43.152739174122	0.02134167605
0	6442	43.174080850172	0.03138400428
0	6447	43.205464854452	0.014409520226
0	6452	43.219874374678	0.019783934846
0	6457	43.239658309524	0.123310296943
0	6463	43.362968606467	0.031444082825
0	6468	43.394412689292	0.005012814502
0	6470	43.399425503794	0.015320880964
0	6478	43.414746384758	0.003563547469
0	6480	43.418309932227	0.037452887137
0	6488	43.455762819364	0.014723368534
0	6493	43.470486187898	0.036975434796
0	6498	43.507461622694	0.031293706084
0	6504	43.538755328778	0.060353715991
0	6509	43.599109044769	0.03767366608
0	6514	43.636782710849	0.01804066425
0	6519	43.654823375099	0.017719238848
0	6524	43.672542613947	0.001340107922
0	6526	43.673882721869	0.253171395848
0	6534	43.927054117717	0.146140526148
0	6539	44.073194643865	0.015179481464
0	6544	44.088374125329	0.020806310584
0	6549	44.109180435913	0.044730074521
0	6554	44.153910510434	0.097116411755
0	6560	44.251026922189	0.035523563543
0	6565	44.286550485732	0.039020339892
0	6570	44.325570825624	0.058692715655
0	6575	44.384263541279	0.010856864314
0	6580	44.395120405593	0.130870196731
0	6585	44.525990602324	0.029059122637
0	6590	44.555049724961	0.077189028133
0	6596	44.632238753094	0.110074914345
0	6601	44.742313667439	0.050620765025
0	6606	44.792934432464	0.004216039372
0	6608	44.797150471836	0.041935298575
0	6616	44.839085770411	0.011121926948
0	6622	44.850207697359	0.014305117898
0	6627	44.864512815257	0.002996727794
0	6629	44.867509543051	0.005592992315
0	6634	44.873102535366	0.050726265432
0	6642	44.923828800798	0.00226392618
0	6644	44.926092726978	0.000767458324
0	6646	44.926860185302	0.009692977886
0	6651	44.936553163188	0.005167115913
0	6656	44.941720279101	0.019814534309
0	6667	44.96153481341	0.010568425122
0	6672	44.972103238532	0.025834785989
0	6677	44.997938024521	0.071700410481
0	6683	45.069638435002	0.051911069281
0	6685	45.121549504283	0.006920611878
0	6687	45.128470116161	0.11157594603
0	6689	45.240046062191	0.019876069259
0	6691	45.25992213145	0.004367758229
0	6693	45.264289889679	0.013762605045
0	6695	45.278052494724	0.003961066634
0	6697	45.282013561358	0.030647357933
0	6699	45.312660919291	0.031179883066
0	6701	45.343840802357	0.096467457712
0	6716	45.440308260069	0.047881890748
0	6737	45.488190150817	0.09892833897
0	6745	45.587118489787	0.065970261497
0	6750	45.653088751284	0.001887793475
0	6752	45.654976544759	0.096118815458
0	6760	45.751095360217	0.031740208756
0	6765	45.782835568973	0.143497700243
0	6782	45.926333269216	0.077832398551
0	6788	46.004165667767	0.017867330695
0	6793	46.022032998462	0.053142920194
0	6800	46.075175918656	0.016750179987
0	6805	46.091926098643	0.008318305489
0	6810	46.100244404132	0.005598047467
0	6812	46.105842451599	0.050685114338
0	6820	46.156527565937	0.040424108675
0	6827	46.196951674612	0.007334757
0	6829	46.204286431612	0.037426587043
0	6837	46.241713018655	0.080159002697
0	6842	46.321872021352	0.069333435364
0	6848	46.391205456716	0.000313998557
0	6850	46.391519455273	0.003581146785
0	6852	46.395100602058	0.003309835778
0	6854	46.398410437836	0.024104879538
0	6869	46.422515317374	0.033790252989
0	6875	46.456305570363	0.030452796863
0	6881	46.486758367226	0.016869272335
0	6888	46.503627639561	0.009677068944
0	6894	46.513304708505	0.00355420697
0	6897	46.516858915475	0.006480461872
0	6902	46.523339377347	0.146834401704
0	6914	46.670173779051	0.068709315134
0	6920	46.738883094185	0.079413918032
0	6928	46.818297012217	0.002111130832
0	6931	46.820408143049	0.011068298704
0	6937	46.831476441753	0.022261766489
0	6945	46.853738208242	0.022432039812
0	6951	46.876170248054	0.004308865922
0	6953	46.880479113976	0.02287086409
0	6962	46.903349978066	0.02137639612
0	6969	46.924726374186	0.024852462098
0	6976	46.949578836284	0.136854926938
0	6982	47.086433763222	0.119669777594
0	6988	47.206103540816	0.019289828191
0	6993	47.225393369007	0.003686004672
0	6996	47.229079373679	0.068102460437
0	7009	47.297181834116	0.001416028448
0	7011	47.298597862564	0.004367563283
0	7013	47.302965425847	0.023137793029
0	7025	47.326103218876	0.011074958692
0	7031	47.337178177568	0.021453854404
0	7037	47.358632031972	0.018100842447
0	7042	47.376732874419	0.009387808265
0	7047	47.386120682684	0.017867940158
0	7052	47.403988622842	0.002123600506
0	7054	47.406112223348	0.038950233406
0	7062	47.445062456754	0.004627405994
0	7064	47.449689862748	0.014794142582
0	7072	47.46448400533	0.068012019471
0	7078	47.532496024801	0.043783203123
0	7084	47.576279227924	0.017859498922
0	7089	47.594138726846	0.035678831582
0	7095	47.629817558428	0.016810213483
0	7102	47.646627771911	0.017829997858
0	7107	47.664457769769	0.000777652821
0	7109	47.66523542259	0.01978240722
0	7117	47.68501782981	0.016436281124
0	7122	47.701454110934	0.033365007593
0	7131	47.734819118527	0.03792418659
0	7138	47.772743305117	0.002541562034
0	7140	47.775284867151	0.034362471696
0	7150	47.809647338847	0.060489078054
0	7159	47.870136416901	0.085865704453
0	7166	47.956002121354	0.037087573012
0	7172	47.993089694366	0.038994015776
0	7179	48.032083710142	0.045355723577
0	7187	48.077439433719	0.013708958896
0	7193	48.091148392615	0.026945167753
0	7200	48.118093560368	0.013304166097
0	7205	48.131397726465	0.004097451376
0	7207	48.135495177841	0.062707901756
0	7218	48.198203079597	0.018173880371
0	7223	48.216376959968	0.052333089135
0	7230	48.268710049103	0.018193768071
0	7236	48.286903817174	0.011553734292
0	7241	48.298457551466	0.013551911353
0	7246	48.312009462819	0.043802813493
0	7251	48.355812276312	0.001064279782
0	7253	48.356876556094	0.028860010311
0	7262	48.385736566405	0.046779894606
0	7268	48.432516461011	0.017859070263
0	7274	48.450375531274	0.004070208337
0	7276	48.454445739611	0.026489901103
0	7284	48.480935640714	0.03262653592
0	7291	48.513562176634	0.003118008512
0	7293	48.516680185146	0.0425164498
0	7304	48.559196634946	0.038347745459
0	7309	48.597544380405	0.035254544094
0	7316	48.632798924499	0.001052897844
0	7318	48.633851822343	0.111918056509
0	7330	48.745769878852	0.077028590603
0	7338	48.822798469455	0.003816115227
0	7340	48.826614584682	0.040112731227
0	7351	48.866727315909	0.070653231597
0	7359	48.937380547506	0.077675343262
0	7366	49.015055890768	0.00103686633
0	7368	49.016092757098	4.2290566e-005
0	7370	49.016135047664	0.02679386788
0	7382	49.042928915544	0.096883502019
0	7388	49.139812417563	0.018127320577
0	7394	49.15793973814	0.111210071751
0	7401	49.269149809891	0.025995331239
0	7407	49.29514514113	0.055692079217
0	7413	49.350837220347	0.015900065197
0	7418	49.366737285544	0.169315560717
0	7427	49.536052846261	0.007399741124
0	7429	49.543452587385	0.015359896196
0	7438	49.558812483581	0.000675783682
0	7440	49.559488267263	0.066014028739
0	7449	49.625502296002	0.025554270709
0	7454	49.651056566711	0.051541450189
0	7460	49.7025980169	0.064753122695
0	7467	49.767351139595	0.044619800839
0	7474	49.811970940434	0.016350362926
0	7479	49.82832130336	0.035123353576
0	7484	49.863444656936	0.008824888675
0	7489	49.872269545611	0.012854385862
0	7494	49.885123931473	0.002938601401
0	7496	49.888062532874	0.026972087128
0	7504	49.915034620002	0.003120987879
0	7506	49.918155607881	0.011234918026
0	7511	49.929390525907	0.008758864814
0	7516	49.938149390721	0.000305476371
0	7518	49.938454867092	0.003688164922
0	7523	49.942143032014	0.000884139263
0	7525	49.943027171277	0.010777857845
0	7535	49.953805029122	0.005453671514
0	7540	49.959258700636	0.002395360638
0	7545	49.961654061274	0.025236834155
0	7558	49.986890895429	0.002374955732
0	7560	49.989265851161	0.008815617464
0	7565	49.998081468625	0.067895161586
0	7575	50.065976630211	0.016142902216
0	7580	50.082119532427	0.006190824714
0	7582	50.088310357141	0.001983935841
0	7587	50.090294292982	0.028709064741
0	7596	50.119003357723	0.084746782626
0	7602	50.203750140349	0.051968492592
0	7609	50.255718632941	0.075684172995
0	7620	50.331402805936	0.02133457133
0	7628	50.352737377266	0.079650199408
0	7641	50.432387576674	0.005827156787
0	7643	50.438214733461	0.014131351749
0	7651	50.45234608521	0.007792359821
0	7653	50.460138445031	0.043680638095
0	7665	50.503819083126	0.019857884188
0	7671	50.523676967314	0.0194869784
0	7677	50.543163945714	0.026294533078
0	7682	50.569458478792	0.012568348899
0	7687	50.582026827691	0.015047277096
0	7692	50.597074104787	0.002555439034
0	7694	50.599629543821	0.053230656767
0	7703	50.652860200588	0.01917693532
0	7709	50.672037135908	0.048663626453
0	7714	50.720700762361	0.017204087556
0	7719	50.737904849917	0.091707055191
0	7726	50.829611905108	0.006118770001
0	7728	50.835730675109	0.001028298155
0	7730	50.836758973264	0.015088563953
0	7743	50.851847537217	0.079114015658
0	7751	50.930961552875	0.003517693331
0	7754	50.934479246206	0.017448071617
0	7763	50.951927317823	0.071705829775
0	7773	51.023633147598	0.073737724406
0	7780	51.097370872004	0.038548862741
0	7786	51.135919734745	0.041080120476
0	7792	51.176999855221	0.007492876813
0	7794	51.184492732034	0.1529499913
0	7806	51.337442723334	0.087575529389
0	7815	51.425018252723	0.049844585547
0	7820	51.47486283827	0.030335937473
0	7825	51.505198775743	0.015869469642
0	7830	51.521068245385	0.021301677392
0	7835	51.542369922777	0.024334652335
0	7840	51.566704575112	0.03598718614
0	7846	51.602691761252	0.016528006203
0	7851	51.619219767455	0.010257222423
0	7856	51.629476989878	0.015889700636
0	7861	51.645366690514	0.0280318039
0	7866	51.673398494414	0.010581484832
0	7871	51.683979979246	0.004950823675
0	7873	51.688930802921	0.023979202728
0	7881	51.712910005649	0.007832607025
0	7883	51.720742612674	0.040071025731
0	7891	51.760813638405	0.025258056169
0	7896	51.786071694574	0.011368588163
0	7901	51.797440282737	0.003590274096
0	7903	51.801030556833	0.026009747901
0	7911	51.827040304734	0.066834425648
0	7916	51.893874730382	0.004370130024
0	7918	51.898244860406	0.017619914041
0	7926	51.915864774447	0.006095922739
0	7928	51.921960697186	0.009287948522
0	7933	51.931248645708	0.001677801985
0	7938	51.932926447693	0.030818145341
0	7946	51.963744593034	0.123593449017
0	7952	52.087338042051	0.048080174264
0	7957	52.135418216315	0.000135373812
0	7959	52.135553590127	0.032865651123
0	7967	52.16841924125	0.006885224102
0	7969	52.175304465352	0.030280217062
0	7977	52.205584682414	0.033214522137
0	7982	52.238799204551	0.006525737197
0	7984	52.245324941748	0.002970499386
0	7989	52.248295441134	0.04058305881
0	7997	52.288878499944	0.074766787421
0	8002	52.363645287365	0.131728827774
0	8007	52.495374115139	0.044506350081
0	8012	52.53988046522	0.032830284046
0	8017	52.572710749266	0.118752575012
0	8022	52.691463324278	0.013932135175
0	8027	52.705395459453	0.02479876264
0	8032	52.730194222093	0.056804650597
0	8037	52.78699887269	0.012503812834
0	8042	52.799502685524	0.063353885401
0	8047	52.862856570925	0.027908946654
0	8052	52.890765517579	0.018781772904
0	8057	52.909547290483	0.093485874073
0	8062	53.003033164556	0.018801430798
0	8067	53.021834595354	0.025744486423
0	8073	53.047579081777	0.096549646302
0	8078	53.144128728079	0.010881222209
0	8083	53.155009950288	0.044827871307
0	8088	53.199837821595	0.073458645
0	8093	53.273296466595	0.001170916569
0	8095	53.274467383164	0.016278001031
0	8103	53.290745384195	0.019426110386
0	8108	53.310171494581	4.8450941e-005
0	8110	53.310219945522	0.003450982507
0	8112	53.313670928029	0.00996100644
0	8117	53.323631934469	0.134467070621
0	8128	53.45809900509	0.013407382348
0	8133	53.471506387438	0.029965815509
0	8138	53.501472202947	0.068509643728
0	8143	53.569981846675	0.036117224602
0	8148	53.606099071277	0.021469632314
0	8153	53.627568703591	0.015864956478
0	8158	53.643433660069	0.020581533409
0	8163	53.664015193478	0.038561667106
0	8168	53.702576860584	0.014336950603
0	8173	53.716913811187	0.029689338344
0	8178	53.746603149531	0.074407569948
0	8183	53.821010719479	0.052158718034
0	8188	53.873169437513	0.101531816441
0	8193	53.974701253954	0.080626240682
0	8199	54.055327494636	0.168514429991
0	8201	54.223841924627	0.018131016999
0	8203	54.241972941626	0.016547774065
0	8205	54.258520715691	0.078998049957
0	8207	54.337518765648	0.118500931602
0	8225	54.45601969725	0.002355393852
0	8227	54.458375091102	0.054937342411
0	8235	54.513312433513	0.040484475139
0	8240	54.553796908652	0.039411847919
0	8245	54.593208756571	0.009196439348
0	8250	54.602405195919	0.009831190442
0	8256	54.612236386361	0.027092521494
0	8261	54.639328907855	0.008537538445
0	8266	54.6478664463	0.051903577753
0	8271	54.699770024053	0.006355272618
0	8273	54.706125296671	0.048045340204
0	8281	54.754170636875	0.089627787017
0	8286	54.843798423892	0.044733020286
0	8291	54.888531444178	0.012188702196
0	8296	54.900720146374	0.023082598002
0	8301	54.923802744376	0.021121757735
0	8306	54.944924502111	0.007549494445
0	8311	54.952473996556	0.023839734733
0	8316	54.976313731289	0.008054401885
0	8321	54.984368133174	0.052704790008
0	8326	55.037072923182	0.026835388374
0	8331	55.063908311556	0.065079230035
0	8336	55.128987541591	0.02015730405
0	8341	55.149144845641	0.005241082289
0	8343	55.15438592793	0.129096519142
0	8351	55.283482447072	0.019484593243
0	8356	55.302967040315	0.012524843531
0	8361	55.315491883846	0.064770497631
0	8366	55.380262381477	0.002879189791
0	8368	55.383141571268	0.059637606155
0	8376	55.442779177423	0.04542427992
0	8381	55.488203457343	0.003781612341
0	8383	55.491985069684	0.129709672306
0	8391	55.62169474199	0.005951998108
0	8393	55.627646740098	0.053328459812
0	8401	55.68097519991	0.012694189767
0	8406	55.693669389677	0.009931253589
0	8411	55.703600643266	0.002742243038
0	8413	55.706342886304	0.001303613231
0	8415	55.707646499535	0.019347976673
0	8426	55.726994476208	0.018285023517
0	8431	55.745279499725	0.003985123006
0	8433	55.749264622731	0.073559275443
0	8441	55.822823898174	0.029394172548
0	8446	55.852218070722	0.019796802236
0	8451	55.872014872958	0.009908564015
0	8456	55.881923436973	0.011696839524
0	8461	55.893620276497	0.031759452198
0	8466	55.925379728695	0.095830815335
0	8471	56.02121054403	0.004375894209
0	8473	56.025586438239	0.051785129947
0	8481	56.077371568186	0.130370603093
0	8486	56.207742171279	0.033044943822
0	8491	56.240787115101	0.094378719887
0	8496	56.335165834988	9.3823042e-005
0	8498	56.33525965803	0.017403626444
0	8506	56.352663284474	0.093834828141
0	8511	56.446498112615	0.009705763513
0	8516	56.456203876128	0.039212567896
0	8521	56.495416444024	0.010087460877
0	8526	56.505503904901	0.008897163195
0	8531	56.514401068096	0.0231165863
0	8536	56.537517654396	0.000877260564
0	8538	56.53839491496	0.001428507512
0	8540	56.539823422472	0.000262372056
0	8542	56.540085794528	0.035729134667
0	8556	56.575814929195	0.091798893266
0	8561	56.667613822461	0.018366615543
0	8566	56.685980438004	0.041349188951
0	8571	56.727329626955	0.016585155265
0	8576	56.74391478222	0.042744806192
0	8581	56.786659588412	0.058008808223
0	8586	56.844668396635	0.031727544703
0	8591	56.876395941338	0.043209385442
0	8596	56.91960532678	0.026968806227
0	8601	56.946574133007	0.108023899861
0	8607	57.054598032868	0.021281106902
0	8609	57.07587913977	0.015181816633
0	8611	57.091060956403	0.032087085509
0	8613	57.123148041912	0.079740840998
0	8615	57.20288888291	0.03715436607
0	8617	57.24004324898	0.051433666055
0	8619	57.291476915035	0.016340526211
0	8621	57.307817441246	0.015479491615
0	8623	57.323296932861	0.038616385595
0	8625	57.361913318456	0.034019173758
0	8627	57.395932492214	0.021365174006
0	8636	57.41729766622	0.011916736704
0	8641	57.429214402924	0.003111647871
0	8646	57.432326050795	0.072612833384
0	8675	57.504938884179	0.009292326493
0	8680	57.514231210672	0.004174270449
0	8685	57.518405481121	0.002970580333
0	8687	57.521376061454	0.008358299581
0	8692	57.529734361035	0.013602174818
0	8700	57.543336535853	0.007075492769
0	8705	57.550412028622	0.033075629671
0	8713	57.583487658293	0.018055860288
0	8718	57.601543518581	0.016039609707
0	8723	57.617583128288	0.047859200165
0	8728	57.665442328453	0.045340983237
0	8733	57.71078331169	0.026196248222
0	8738	57.736979559912	0.03966858911
0	8743	57.776648149022	0.023407953946
0	8748	57.800056102968	0.005470242488
0	8750	57.805526345456	1.9114199e-005
0	8752	57.805545459655	0.006439088027
0	8757	57.811984547682	0.01939294507
0	8768	57.831377492752	0.002331179803
0	8770	57.833708672555	0.002298211481
0	8772	57.836006884036	0.010744208389
0	8777	57.846751092425	0.008172979711
0	8785	57.854924072136	0.014989031008
0	8793	57.869913103144	0.094292018974
0	8798	57.964205122118	0.003233563156
0	8800	57.967438685274	0.008490263561
0	8805	57.975928948835	0.03226577404
0	8813	58.008194722875	0.068400807009
0	8818	58.076595529884	0.04385773329
0	8823	58.120453263174	0.056840365533
0	8828	58.177293628707	0.005986813666
0	8830	58.183280442373	0.006066813243
0	8835	58.189347255616	0.014656577329
0	8843	58.204003832945	0.032573574482
0	8848	58.236577407427	0.045471976635
0	8853	58.282049384062	0.004302052585
0	8855	58.286351436647	0.038101566057
0	8863	58.324453002704	0.045553973796
0	8868	58.3700069765	0.067455657404
0	8873	58.437462633904	0.035511936399
0	8878	58.472974570303	0.02830765442
0	8883	58.501282224723	0.058484530132
0	8888	58.559766754855	0.000913288774
0	8890	58.560680043629	0.022846026719
0	8898	58.583526070348	0.00206601685
0	8900	58.585592087198	0.086222312021
0	8908	58.671814399219	0.002920680615
0	8910	58.674735079834	0.001771287326
0	8912	58.67650636716	0.025480800905
0	8923	58.701987168065	0.01212984532
0	8928	58.714117013385	0.049242569085
0	8933	58.76335958247	0.043940773502
0	8938	58.807300355972	0.001148194415
0	8940	58.808448550387	0.018951537278
0	8948	58.827400087665	0.021352477695
0	8953	58.84875256536	0.006646211511
0	8955	58.855398776871	0.060963490751
0	8963	58.916362267622	0.003969165277
0	8965	58.920331432899	0.038655638174
0	8973	58.958987071073	0.059504337524
0	8978	59.018491408597	0.027631680819
0	8983	59.046123089416	0.022428912502
0	8988	59.068552001918	0.031104640966
0	8993	59.099656642884	0.074881713304
0	8998	59.174538356188	0.079379663679
0	9003	59.253918019867	0.046255653716
0	9008	59.300173673583	0.029954722751
0	9014	59.330128396334	0.018450907639
0	9019	59.348579303973	0.019175404289
0	9024	59.367754708262	0.016366842704
0	9029	59.384121550966	0.042485119707
0	9034	59.426606670673	0.025372320271
0	9039	59.451978990944	0.015467661611
0	9044	59.467446652555	0.076956785138
0	9049	59.544403437693	0.126302925593
0	9054	59.670706363286	0.046783136356
0	9059	59.717489499642	0.072033191218
0	9064	59.78952269086	0.000180820014
0	9066	59.789703510874	0.005963207554
0	9068	59.795666718428	0.041464015273
0	9079	59.837130733701	0.040334385678
0	9084	59.877465119379	0.088185655563
0	9089	59.965650774942	0.00121326459
0	9091	59.966864039532	0.043380650557
0	9100	60.010244690089	0.075761951149
0	9102	60.086006641238	0.006818213378
0	9104	60.092824854616	0.065218509433
0	9106	60.158043364049	0.02312502827
0	9109	60.181168392319	0.024976390364
0	9111	60.206144782683	0.005291664926
0	9113	60.211436447609	0.004781310089
0	9115	60.216217757698	0.015565145923
0	9117	60.231782903621	0.034001378375
0	9119	60.265784281996	0.096826805882
0	9122	60.362611087878	0.009574770179
0	9124	60.372185858057	0.089877295192
0	9151	60.462063153249	0.03488132477
0	9166	60.496944478019	0.011635817255
0	9174	60.508580295274	0.041416883318
0	9179	60.549997178592	0.014523480395
0	9184	60.564520658987	0.003931713823
0	9186	60.56845237281	0.032088806305
0	9194	60.600541179115	0.022682462589
0	9199	60.623223641704	0.115576438336
0	9205	60.73880008004	0.030831766605
0	9210	60.769631846645	0.005597746135
0	9212	60.77522959278	0.010238482552
0	9220	60.785468075332	0.010393147057
0	9225	60.795861222389	0.007854252124
0	9230	60.803715474513	0.072378681031
0	9235	60.876094155544	0.035549943557
0	9240	60.911644099101	0.023697159932
0	9245	60.935341259033	0.050057677189
0	9250	60.985398936222	0.080228736905
0	9255	61.065627673127	0.015571446414
0	9260	61.081199119541	0.007182098642
0	9262	61.088381218183	0.043192800936
0	9270	61.131574019119	0.026625081064
0	9275	61.158199100183	0.030982589563
0	9280	61.189181689746	0.013822385223
0	9285	61.203004074969	0.058050768542
0	9290	61.261054843511	0.013320681476
0	9295	61.274375524987	0.007988631812
0	9300	61.282364156799	0.020726118139
0	9305	61.303090274938	0.055705373958
0	9310	61.358795648896	0.019863640434
0	9315	61.37865928933	0.01084307471
0	9320	61.38950236404	0.015475256018
0	9325	61.404977620058	0.012396951493
0	9330	61.417374571551	0.086266604775
0	9335	61.503641176326	0.133859937975
0	9340	61.637501114301	0.046053498112
0	9345	61.683554612413	0.001648704312
0	9347	61.685203316725	0.045510119971
0	9355	61.730713436696	0.007364591613
0	9360	61.738078028309	0.01198289445
0	9365	61.750060922759	0.025752766445
0	9370	61.775813689204	0.030172156955
0	9375	61.805985846159	0.016505850216
0	9380	61.822491696375	0.052864168654
0	9386	61.875355865029	0.009702120348
0	9391	61.885057985377	0.055567025065
0	9396	61.940625010442	0.040381731718
0	9401	61.98100674216	0.014784120729
0	9406	61.995790862889	0.038722357274
0	9411	62.034513220163	0.051571722183
0	9416	62.086084942346	0.11609735822
0	9421	62.202182300566	0.046599152266
0	9426	62.248781452832	0.073803361866
0	9431	62.322584814698	0.005340165185
0	9433	62.327924979883	0.208818249491
0	9441	62.536743229374	0.070332801585
0	9446	62.607076030959	0.015778343372
0	9451	62.622854374331	0.02037633686
0	9456	62.643230711191	0.001620132707
0	9458	62.644850843898	0.023321580661
0	9466	62.668172424559	0.013771883894
0	9471	62.681944308453	0.020820668956
0	9476	62.702764977409	0.024044847257
0	9481	62.726809824666	0.029364064903
0	9486	62.756173889569	0.006614248085
0	9488	62.762788137654	0.033973301175
0	9496	62.796761438829	0.003112002682
0	9498	62.799873441511	0.024132952267
0	9506	62.824006393778	0.02109838178
0	9511	62.845104775558	0.070553611252
0	9516	62.91565838681	0.094432906503
0	9522	63.010091293313	0.034585202861
0	9524	63.044676496174	0.050413706175
0	9526	63.095090202349	0.017962293343
0	9528	63.113052495692	0.013062690492
0	9530	63.126115186184	0.018866382799
0	9532	63.144981568983	0.076816846707
0	9534	63.22179841569	0.058280415458
0	9536	63.280078831148	0.041822484668
0	9538	63.321901315816	0.014980180266
0	9540	63.336881496082	0.021783930852
0	9542	63.358665426934	0.008314794003
0	9544	63.366980220937	0.010757854546
0	9546	63.377738075483	0.002142680124
0	9548	63.379880755607	0.029992308552
0	9554	63.409873064159	0.07306915921
0	9586	63.482942223369	0.007587650901
0	9591	63.49052987427	0.087770281734
0	9608	63.578300156004	0.047313773012
0	9613	63.625613929016	0.00447894807
0	9615	63.630092877086	0.096721675421
0	9623	63.726814552507	0.014251201319
0	9628	63.741065753826	0.03768305271
0	9634	63.778748806536	0.006748804608
0	9636	63.785497611144	0.045183694696
0	9644	63.83068130584	0.00431141803
0	9646	63.83499272387	0.006289887074
0	9651	63.841282610944	0.080543867811
0	9659	63.921826478755	0.048272537276
0	9664	63.970099016031	0.002049559691
0	9666	63.972148575722	0.024075617002
0	9674	63.996224192724	0.137781214544
0	9679	64.134005407268	0.003200352681
0	9681	64.137205759949	0.003549867419
0	9683	64.140755627368	0.017097125024
0	9694	64.157852752392	0.069692547417
0	9699	64.227545299809	0.045755198475
0	9704	64.273300498284	0.029255714864
0	9709	64.302556213148	0.030213699049
0	9714	64.332769912197	0.016055736947
0	9719	64.348825649144	0.01280421937
0	9724	64.361629868514	0.014667478125
0	9729	64.376297346639	0.157055444393
0	9734	64.533352791032	0.049566771817
0	9739	64.582919562849	0.029868674018
0	9744	64.612788236867	0.013219979694
0	9749	64.626008216561	0.101482452879
0	9754	64.72749066944	0.037483426623
0	9759	64.764974096063	0.028716364877
0	9764	64.79369046094	0.025494489139
0	9769	64.819184950079	0.029107503345
0	9774	64.848292453424	0.023223258973
0	9779	64.871515712397	0.001838413163
0	9781	64.87335412556	0.080999621451
0	9789	64.954353747011	0.003846597132
0	9791	64.958200344143	0.028310929102
0	9799	64.986511273245	0.033356869916
0	9804	65.019868143161	0.061378240607
0	9809	65.081246383768	0.04603908724
0	9814	65.127285471008	0.045257517826
0	9819	65.172542988834	0.009791488084
0	9824	65.182334476918	0.001376208748
0	9826	65.183710685666	0.116324674424
0	9834	65.30003536009	0.051915156941
0	9839	65.351950517031	0.047314639991
0	9844	65.399265157022	0.008555991241
0	9849	65.407821148263	0.009513823165
0	9854	65.417334971428	0.081710587772
0	9859	65.4990455592	0.036190203796
0	9864	65.535235762996	0.001535543728
0	9866	65.536771306724	0.014530123807
0	9874	65.551301430531	0.014177563021
0	9879	65.565478993552	0.045501610321
0	9884	65.610980603873	0.003677234152
0	9886	65.614657838025	0.030747342167
0	9894	65.645405180192	0.022591791986
0	9899	65.667996972178	0.049464443535
0	9904	65.717461415713	0.060022308644
0	9909	65.777483724357	0.010137249427
0	9914	65.787620973784	0.012393108003
0	9919	65.800014081787	0.094240995368
0	9924	65.894255077155	0.005726679473
0	9926	65.899981756628	0.173671146071
0	9935	66.073652902699	0.014030667478
0	9937	66.087683570177	0.006291743086
0	9939	66.093975313263	0.058847753834
0	9941	66.152823067097	0.02517538703
0	9943	66.177998454127	0.005294430577
0	9945	66.183292884704	0.069693977197
0	9947	66.252986861901	0.009028083025
0	9949	66.262014944926	0.014953666571
0	9951	66.276968611497	0.002496795225
0	9953	66.279465406722	0.009726956638
0	9955	66.28919236336	0.042811640919
0	9957	66.332004004279	0.045965022437
0	9959	66.377969026716	0.017601934584
0	9961	66.3955709613	0.13282613168
0	10006	66.52839709298	0.01302986241
0	10011	66.54142695539	0.024523486476
0	10016	66.565950441866	0.044382517335
0	10021	66.610332959201	0.017440108602
0	10026	66.627773067803	0.014330375943
0	10031	66.642103443746	0.01741144921
0	10036	66.659514892956	0.045538942325
0	10041	66.705053835281	0.05538192276
0	10046	66.760435758041	0.059096723981
0	10051	66.819532482022	0.042853406259
0	10056	66.862385888281	0.008591431875
0	10061	66.870977320156	0.013442505009
0	10066	66.884419825165	0.127494839081
0	10071	67.011914664246	0.128539585483
0	10077	67.140454249729	0.006200754382
0	10079	67.146655004111	0.077761152087
0	10087	67.224416156198	0.012028638475
0	10092	67.236444794673	0.042247490632
0	10097	67.278692285305	0.006937046219
0	10099	67.285629331524	0.020342255609
0	10107	67.305971587133	0.014836231911
0	10112	67.320807819044	0.008130687745
0	10117	67.328938506789	0.022891524688
0	10122	67.351830031477	0.0382731782
0	10127	67.390103209677	0.025847938796
0	10132	67.415951148473	0.049069193145
0	10137	67.465020341618	0.067250887759
0	10142	67.532271229377	0.032428791869
0	10147	67.564700021246	0.07707939559
0	10152	67.641779416836	0.023954662955
0	10157	67.665734079791	0.00870080835
0	10162	67.674434888141	0.004396362227
0	10164	67.678831250368	0.034133016485
0	10172	67.712964266853	0.053755270302
0	10177	67.766719537155	0.004137566826
0	10179	67.770857103981	0.023676445795
0	10187	67.794533549776	0.021499809752
0	10193	67.816033359528	0.067372754318
0	10198	67.883406113846	0.013618502044
0	10203	67.89702461589	0.005068564707
0	10205	67.902093180597	0.013318539853
0	10213	67.91541172045	0.117423753278
0	10218	68.032835473728	0.023061799139
0	10223	68.055897272867	0.023649581052
0	10228	68.079546853919	0.045804330591
0	10233	68.12535118451	0.00262854098
0	10235	68.12797972549	0.002509227632
0	10237	68.130488953122	0.011503172018
0	10245	68.14199212514	0.07396893995
0	10253	68.21596106509	0.081505406051
0	10258	68.297466471141	0.046456304037
0	10263	68.343922775178	0.014227239865
0	10268	68.358150015043	0.006796684257
0	10270	68.3649466993	0.12282076132
0	10278	68.48776746062	0.097983296896
0	10284	68.585750757516	0.020552187995
0	10289	68.606302945511	0.024704819829
0	10294	68.63100776534	0.016007526901
0	10299	68.647015292241	0.299635639076
0	10305	68.946650931317	0.05458429486
0	10311	69.001235226177	0.007690331093
0	10313	69.00892555727	0.022031026547
0	10315	69.030956583817	0.026793216585
0	10317	69.057749800402	0.002750097943
0	10319	69.060499898345	0.011999390405
0	10321	69.07249928875	0.061780662285
0	10323	69.134279951035	0.012692925456
0	10325	69.146972876491	0.054699804404
0	10327	69.201672680895	0.031296999658
0	10329	69.232969680553	0.025325711883
0	10331	69.258295392436	0.089160793781
0	10333	69.347456186217	0.000340567708
0	10335	69.347796753925	0.057263840921
0	10338	69.405060594846	0.005130852739
0	10343	69.410191447585	0.045049973703
0	10363	69.455241421288	0.043566672758
0	10380	69.498808094046	0.028668659019
0	10394	69.527476753065	0.031279216211
0	10402	69.558755969276	0.089420827641
0	10407	69.648176796917	0.042144240604
0	10412	69.690321037521	0.02372949326
0	10417	69.714050530781	0.015671189617
0	10422	69.729721720398	0.072454981836
0	10427	69.802176702234	0.034739919125
0	10432	69.836916621359	0.062847992859
0	10437	69.899764614218	0.01997179653
0	10442	69.919736410748	0.008420615971
0	10447	69.928157026719	0.018693359579
0	10452	69.946850386298	0.05162564101
0	10457	69.998476027308	0.018766971655
0	10462	70.017242998963	0.00042860436
0	10464	70.017671603323	0.001140322875
0	10466	70.018811926198	0.013644128628
0	10474	70.032456054826	0.002202706865
0	10476	70.034658761691	0.009128110468
0	10481	70.043786872159	0.066240696517
0	10492	70.110027568676	0.024743885742
0	10497	70.134771454418	0.041620882608
0	10502	70.176392337026	0.046726507951
0	10507	70.223118844977	0.00916648567
0	10512	70.232285330647	0.003597371121
0	10514	70.235882701768	0.004399741107
0	10519	70.240282442875	0.025320610002
0	10527	70.265603052877	0.001454674158
0	10529	70.267057727035	0.097555102144
0	10537	70.364612829179	0.022867721352
0	10542	70.387480550531	0.009086300289
0	10547	70.39656685082	0.031032824711
0	10552	70.427599675531	0.039568901054
0	10557	70.467168576585	0.079882269775
0	10562	70.54705084636	0.031452678414
0	10567	70.578503524774	0.088519600399
0	10572	70.667023125173	0.000354013647
0	10574	70.66737713882	0.0159632118
0	10582	70.68334035062	0.022607618375
0	10587	70.705947968995	0.093496363465
0	10592	70.79944433246	0.043177514716
0	10597	70.842621847176	0.027621025802
0	10602	70.870242872978	0.001574008378
0	10604	70.871816881356	0.029873608462
0	10612	70.901690489818	0.074069934681
0	10618	70.975760424499	0.006887596314
0	10620	70.982648020813	0.025694858572
0	10628	71.008342879385	0.004309952742
0	10630	71.012652832127	0.001089932671
0	10632	71.013742764798	0.009807401734
0	10640	71.023550166532	0.00889475695
0	10645	71.032444923482	0.004645166045
0	10647	71.037090089527	0.107523102408
0	10658	71.144613191935	0.008844163192
0	10663	71.153457355127	0.03055636681
0	10668	71.184013721937	0.027164311217
0	10673	71.211178033154	0.003979430995
0	10675	71.215157464149	0.070941043498
0	10683	71.286098507647	0.011866323968
0	10688	71.297964831615	0.055463999739
0	10693	71.353428831354	0.021353510577
0	10698	71.374782341931	0.001151194443
0	10700	71.375933536374	0.000741042115
0	10702	71.376674578489	0.041971149362
0	10713	71.418645727851	0.018563113271
0	10718	71.437208841122	0.001677267098
0	10720	71.43888610822	0.023529926408
0	10728	71.462416034628	0.217960125879
0	10733	71.680376160507	0.00977507657
0	10738	71.690151237077	0.053655224202
0	10743	71.743806461279	0.031089943576
0	10748	71.774896404855	0.009210631381
0	10753	71.784107036236	0.048976884685
0	10758	71.833083920921	0.023574627666
0	10763	71.856658548587	0.009413968492
0	10768	71.866072517079	0.047704066609
0	10773	71.913776583688	0.033911514101
0	10778	71.947688097789	0.064098054304
0	10784	72.011786152093	0.035721086963
0	10786	72.047507239056	0.009095868323
0	10788	72.056603107379	0.103843471448
0	10790	72.160446578827	0.005033397418
0	10792	72.165479976245	0.052721293179
0	10794	72.218201269424	0.093616578785
0	10796	72.311817848209	0.066015208941
0	10798	72.37783305715	0.038884067123
0	10807	72.416717124273	0.023595888031
0	10818	72.440313012304	0.073142086069
0	10835	72.513455098373	0.007174824092
0	10837	72.520629922465	0.009256259667
0	10845	72.529886182132	0.191671159799
0	10850	72.721557341931	0.004821776524
0	10852	72.726379118455	0.004848264474
0	10857	72.731227382929	0.015094916625
0	10865	72.746322299554	0.022317110174
0	10870	72.768639409728	0.010195096919
0	10875	72.778834506647	0.002468282761
0	10877	72.781302789408	0.002643776132
0	10879	72.78394656554	0.100791032347
0	10890	72.884737597887	0.036195993357
0	10895	72.920933591244	0.1172592787
0	10900	73.038192869944	0.010125476486
0	10905	73.04831834643	0.044477514178
0	10910	73.092795860608	0.020938582537
0	10915	73.113734443145	0.015077016958
0	10920	73.128811460103	0.01190348541
0	10925	73.140714945513	0.010273984117
0	10930	73.15098892963	0.088926020301
0	10935	73.239914949931	0.010790414294
0	10940	73.250705364225	0.020937608117
0	10945	73.271642972342	0.004765480068
0	10947	73.27640845241	0.074167448348
0	10955	73.350575900758	0.026115074895
0	10960	73.376690975653	0.001575506829
0	10962	73.378266482482	0.005352838286
0	10964	73.383619320768	0.026860537306
0	10975	73.410479858074	0.013330315403
0	10980	73.423810173477	0.021098486653
0	10985	73.44490866013	0.034488658559
0	10990	73.479397318689	0.013814492973
0	10995	73.493211811662	0.045509685531
0	11000	73.538721497193	0.01249309727
0	11005	73.551214594463	0.000860025102
0	11007	73.552074619565	0.010861221515
0	11012	73.56293584108	0.019681284874
0	11020	73.582617125954	0.007789447294
0	11022	73.590406573248	0.036956881476
0	11030	73.627363454724	0.023748184197
0	11035	73.651111638921	0.067164909864
0	11040	73.718276548785	0.014816564212
0	11045	73.733093112997	0.022574154319
0	11050	73.755667267316	0.014048099633
0	11055	73.769715366949	0.121815099713
0	11060	73.891530466662	0.002397523862
0	11062	73.893927990524	0.010806101878
0	11067	73.904734092402	0.000488672389
0	11069	73.905222764791	0.00047602716
0	11071	73.905698791951	0.084928394569
0	11085	73.99062718652	0.023140938944
0	11090	74.013768125464	0.018690816925
0	11095	74.032458942389	0.010355352252
0	11100	74.042814294641	0.039558429362
0	11105	74.082372724003	0.060748395733
0	11110	74.143121119736	0.021077290292
0	11115	74.164198410028	0.00927402475
0	11120	74.173472434778	0.007837933616
0	11122	74.181310368394	0.013019160295
0	11130	74.194329528689	0.092812671889
0	11135	74.287142200578	0.054827843181
0	11140	74.341970043759	0.004580202752
0	11142	74.346550246511	0.043951910163
0	11150	74.390502156674	0.022980112487
0	11155	74.413482269161	0.028579646588
0	11160	74.442061915749	0.003367402296
0	11162	74.445429318045	0.042721135515
0	11170	74.48815045356	0.009114877432
0	11175	74.497265330992	0.01898328928
0	11180	74.516248620272	0.040477526815
0	11185	74.556726147087	0.000186346944
0	11187	74.556912494031	0.026159653643
0	11195	74.583072147674	0.000399703029
0	11197	74.583471850703	0.027952009065
0	11205	74.611423859768	0.025054625656
0	11210	74.636478485424	0.062482494115
0	11215	74.698960979539	0.003043781219
0	11217	74.702004760758	0.002194625029
0	11219	74.704199385787	0.00183491066
0	11221	74.706034296447	0.082321955978
0	11235	74.788356252425	0.117854740927
0	11240	74.906210993352	0.036866746474
0	11245	74.943077739826	0.068565494217
0	11251	75.011643234043	0.035846117265
0	11253	75.047489351308	0.005771736458
0	11255	75.053261087766	0.001073585649
0	11257	75.054334673415	2.3255268e-005
0	11259	75.054357928683	0.084306345924
0	11261	75.138664274607	0.099456033455
0	11263	75.238120308062	0.000993333207
0	11265	75.239113641269	0.011416327913
0	11267	75.250529969182	0.007179094143
0	11269	75.257709063325	0.007198419199
0	11271	75.264907482524	0.079187878133
0	11273	75.344095360657	0.041162090453
0	11275	75.38525745111	0.004742773967
0	11277	75.390000225077	0.004035598835
0	11279	75.394035823912	0.01776173574
0	11285	75.411797559652	0.010759285256
0	11290	75.422556844908	0.049956247763
0	11310	75.472513092671	0.129243580242
0	11342	75.601756672913	0.028969563762
0	11347	75.630726236675	0.035705602148
0	11352	75.666431838823	0.045888691228
0	11357	75.712320530051	0.025738378483
0	11362	75.738058908534	0.007498432263
0	11364	75.745557340797	0.017757692963
0	11372	75.76331503376	0.018589113169
0	11377	75.781904146929	0.052130377954
0	11382	75.834034524883	0.024147500013
0	11387	75.858182024896	0.005317790051
0	11389	75.863499814947	0.00977256134
0	11394	75.873272376287	0.119753786116
0	11403	75.993026162403	0.216096897553
0	11408	76.209123059956	0.069095834161
0	11413	76.278218894117	0.038921711022
0	11418	76.317140605139	0.033650298706
0	11423	76.350790903845	0.07532929364
0	11429	76.426120197485	0.001534885508
0	11431	76.427655082993	0.017471011368
0	11439	76.445126094361	0.042239015745
0	11444	76.487365110106	0.090584678323
0	11449	76.577949788429	0.085579229459
0	11454	76.663529017888	0.010144870246
0	11459	76.673673888134	0.026024267056
0	11464	76.69969815519	0.006014307418
0	11466	76.705712462608	0.015305634961
0	11474	76.721018097569	0.054103217312
0	11480	76.775121314881	0.004485200506
0	11482	76.779606515387	0.126438709012
0	11490	76.906045224399	0.049213273097
0	11495	76.955258497496	0.002241523132
0	11497	76.957500020628	0.075705461967
0	11505	77.033205482595	0.003687722233
0	11507	77.036893204828	0.003697409644
0	11509	77.040590614472	0.013390155592
0	11517	77.053980770064	0.049801299152
0	11525	77.103782069216	0.026125556538
0	11530	77.129907625754	0.00060226926
0	11532	77.130509895014	0.042640947166
0	11540	77.17315084218	0.119451964194
0	11545	77.292602806374	0.108969093816
0	11550	77.40157190019	0.033413193387
0	11555	77.434985093577	0.004387560193
0	11557	77.43937265377	0.028137989871
0	11565	77.467510643641	0.015419102306
0	11570	77.482929745947	0.01228169851
0	11575	77.495211444457	0.010837162902
0	11580	77.506048607359	0.092721717335
0	11586	77.598770324694	0.057653260106
0	11591	77.6564235848	0.010819119157
0	11596	77.667242703957	0.006250966507
0	11598	77.673493670464	0.061638974027
0	11606	77.735132644491	0.073299360664
0	11611	77.808432005155	0.14724418171
0	11617	77.955676186865	0.052007888923
0	11623	78.007684075788	0.053539060213
0	11625	78.061223136001	0.075341098687
0	11627	78.136564234688	0.025615346383
0	11629	78.162179581071	0.121771796927
0	11631	78.283951377998	0.002392542423
0	11633	78.286343920421	0.02982040171
0	11635	78.316164322131	0.022380504769
0	11637	78.3385448269	0.021463768253
0	11639	78.360008595153	0.020184813428
0	11641	78.380193408581	0.023227668633
0	11644	78.403421077214	0.007932565145
0	11649	78.411353642359	0.079054220846
0	11685	78.490407863205	0.019282619109
0	11690	78.509690482314	0.00819199662
0	11695	78.517882478934	0.015497647272
0	11700	78.533380126206	0.016469756667
0	11705	78.549849882873	0.00625621687
0	11707	78.556106099743	0.035868113572
0	11715	78.591974213315	0.02037963659
0	11720	78.612353849905	0.04406136018
0	11725	78.656415210085	0.010671359801
0	11730	78.667086569886	0.002030820091
0	11732	78.669117389977	0.025839629512
0	11740	78.694957019489	0.133830395078
0	11745	78.828787414567	0.001252757045
0	11747	78.830040171612	0.014092643764
0	11755	78.844132815376	0.08284239156
0	11760	78.926975206936	0.008076314294
0	11765	78.93505152123	0.059318049859
0	11770	78.994369571089	0.012844120726
0	11775	79.007213691815	0.028149117424
0	11780	79.035362809239	0.146462760866
0	11785	79.181825570105	0.066823767148
0	11790	79.248649337253	0.038652608391
0	11795	79.287301945644	0.114821706268
0	11800	79.402123651912	0.009849200703
0	11805	79.411972852615	0.004099229367
0	11807	79.416072081982	0.007858007923
0	11812	79.423930089905	0.034877602916
0	11820	79.458807692821	0.002724687197
0	11822	79.461532380018	0.217406503174
0	11830	79.678938883192	0.015796255495
0	11835	79.694735138687	0.154477928647
0	11840	79.849213067334	0.060755442329
0	11845	79.909968509663	0.032362152192
0	11850	79.942330661855	0.011275962839
0	11855	79.953606624694	0.004794642704
0	11857	79.958401267398	0.016087505982
0	11865	79.97448877338	0.030629605495
0	11870	80.005118378875	0.050159220367
0	11875	80.055277599242	7.2336805e-005
0	11877	80.055349936047	0.041669347887
0	11886	80.097019283934	0.007762427727
0	11888	80.104781711661	0.018611807612
0	11896	80.123393519273	0.109422902542
0	11901	80.232816421815	0.00628280436
0	11903	80.239099226175	0.014039737235
0	11911	80.25313896341	0.078476112999
0	11916	80.331615076409	0.035601625246
0	11921	80.367216701655	0.029953396209
0	11926	80.397170097864	0.011539448198
0	11931	80.408709546062	0.010386137503
0	11936	80.419095683565	0.103358225072
0	11941	80.522453908637	0.009457773483
0	11946	80.53191168212	0.045640332255
0	11951	80.577552014375	0.020821715868
0	11956	80.598373730243	0.013998496414
0	11961	80.612372226657	0.018062965399
0	11966	80.630435192056	0.054917479655
0	11972	80.685352671711	0.002497866372
0	11974	80.687850538083	0.004006615529
0	11976	80.691857153612	0.100352212545
0	11987	80.792209366157	0.017433678559
0	11992	80.809643044716	0.054118674525
0	11997	80.863761719241	0.008750849995
0	12002	80.872512569236	0.024019350513
0	12007	80.896531919749	0.040290171745
0	12012	80.936822091494	0.013855289789
0	12017	80.950677381283	0.003782880755
0	12019	80.954460262038	0.007008853422
0	12024	80.96146911546	0.017705832577
0	12032	80.979174948037	0.006365419973
0	12034	80.98554036801	0.011335159757
0	12042	80.996875527767	0.009627880982
0	12048	81.006503408749	0.024706996085
0	12050	81.031210404834	0.008719861331
0	12052	81.039930266165	0.015071892713
0	12054	81.055002158878	0.043289479208
0	12056	81.098291638086	0.042895055068
0	12059	81.141186693154	0.051382971949
0	12061	81.192569665103	0.000870942857
0	12063	81.19344060796	0.015810977216
0	12065	81.209251585176	0.035178017799
0	12067	81.244429602975	0.006077115583
0	12069	81.250506718558	0.009173743899
0	12071	81.259680462457	0.036221130053
0	12073	81.29590159251	0.01095303488
0	12075	81.30685462739	0.014164915285
0	12077	81.321019542675	0.056375085157
0	12079	81.377394627832	0.094217164101
0	12109	81.471611791933	0.108983145665
0	12135	81.580594937598	0.05440020668
0	12140	81.634995144278	0.01332107273
0	12145	81.648316217008	0.154102003682
0	12150	81.80241822069	0.061366854644
0	12163	81.863785075334	0.076425496575
0	12177	81.940210571909	0.003843162646
0	12179	81.944053734555	0.000186522528
0	12181	81.944240257083	0.03517751427
0	12192	81.979417771353	0.002178127603
0	12194	81.981595898956	0.048665123132
0	12203	82.030261022088	0.079963419863
0	12210	82.110224441951	0.005935182402
0	12212	82.116159624353	0.004431727219
0	12217	82.120591351572	0.019429551582
0	12225	82.140020903154	0.031685861962
0	12230	82.171706765116	0.078126770491
0	12236	82.249833535607	0.01533796916
0	12241	82.265171504767	0.003827057974
0	12243	82.268998562741	0.001202425251
0	12245	82.270200987992	0.000639173482
0	12247	82.270840161474	0.003027947176
0	12253	82.27386810865	0.031255941135
0	12267	82.305124049785	0.050810148322
0	12274	82.355934198107	0.020015476775
0	12280	82.375949674882	0.064669731711
0	12288	82.440619406593	0.056101693811
0	12293	82.496721100404	0.015796804333
0	12298	82.512517904737	0.089945924461
0	12309	82.602463829198	0.009918574756
0	12314	82.612382403954	0.012441331004
0	12319	82.624823734958	0.023814344839
0	12324	82.648638079797	0.017208924081
0	12330	82.665847003878	0.005782299233
0	12332	82.671629303111	0.023312152567
0	12345	82.694941455678	0.033584774248
0	12351	82.728526229926	0.031048486318
0	12356	82.759574716244	0.047081378583
0	12363	82.806656094827	0.144412527307
0	12371	82.951068622134	0.042604782829
0	12376	82.993673404963	0.041828954816
[...]
5	58687	396.492063742932	0.147611020292
5	58690	396.50038815725	0.132094615608
5	58693	396.508703671624	0.135846265597
5	58696	396.517011290898	0.117737280114
5	58699	396.525310046085	0.068641330926
5	58702	396.53359995608	0.059416831775
5	58707	396.613447799	0.008208255159
5	58714	396.651690766991	0.008168981211
5	58717	396.659852128773	0.011557118392
5	58722	396.80747338916	0.008015573113
5	58727	396.844317725872	0.007979936161
5	58734	396.908803092114	0.007918552036
5	58737	396.916713590475	0.015483054911
5	58744	396.959662930888	0.007870474477
5	58747	396.96752544914	0.014468159453
5	58752	396.97975245411	0.007851934941
5	58757	397.033531348088	0.007802050825
5	58762	397.047527173017	0.007789028597
5	58767	397.106642514475	0.00773480663
5	58772	397.136261235862	0.007708402158
5	58777	397.151289891471	0.007694844454
5	58782	397.164177088914	0.007683863886
5	58789	397.184953318096	0.007665352606
5	58792	397.192611961422	0.008805121358
5	58797	397.244331069154	0.007612833061
5	58803	397.315329102397	0.007676280294
5	58810	397.383660703618	0.007763114118
5	58813	397.391434162807	0.011034340897
5	58818	397.399492259617	0.007783831869
5	58823	397.545175370997	0.007977207977
5	58828	397.598932134767	0.008050603795
5	58835	397.60945708914	0.008065445328
5	58838	397.617533701578	0.008293597566
5	58843	397.664162238826	0.008142375247
5	58850	397.684947278528	0.008171842167
5	58853	397.693130584584	0.014148303168
5	58858	397.731637678166	0.008239171375
5	58863	397.788604761296	0.008322434907
5	58868	397.829184774977	0.008382229673
5	58873	397.854604747425	0.008420546133
5	58878	397.879063146775	0.008458192363
5	58883	397.999204549558	0.008646245059
5	58889	398.038042644442	0.008694572103
5	58896	398.061758554321	0.008682709005
5	58899	398.070435881704	0.015545132923
5	58904	398.116168318306	0.008652657602
5	58909	398.128063753838	0.008646245059
5	58916	398.137321134054	0.008641975309
5	58919	398.145957778101	0.008749312116
5	58926	398.160819428646	0.008629191321
5	58929	398.169443304462	0.014266429419
5	58936	398.218173256497	0.008598452279
5	58939	398.226767486086	0.009044631054
5	58944	398.298440616759	0.008556411197
5	58951	398.36722565293	0.008519961052
5	58954	398.375741468015	0.013098200659
5	58959	398.450431806161	0.008476628724
5	58964	398.491538571578	0.008455127431
5	58969	398.518183189899	0.008441871684
5	58974	398.655800124594	0.008372204282
5	58979	398.678972635953	0.008360205422
5	58984	398.781644640886	0.008309591643
5	58989	398.803406238049	0.008298755187
5	58994	398.819256120293	0.008290891863
5	58999	398.931036331046	0.00823626309
5	59004	398.943454019593	0.008229485069
5	59031	399.408010069802	0.373835311306
5	59036	399.416016474926	0.376785375985
5	59041	399.424019218724	0.376249211822
5	59044	399.432018304543	0.231033434026
5	59047	399.440013735725	0.235535472547
5	59050	399.448005515609	0.192263819171
5	59053	399.455993647527	0.198294826895
5	59058	399.463978134809	0.171874985148
5	59061	399.471958980779	0.164363335292
5	59064	399.479936188756	0.146579243842
5	59067	399.487909762056	0.135635328975
5	59070	399.495879703989	0.086137995543
5	59073	399.503846017862	0.084143734445
5	59076	399.511808706976	0.055196399645
5	59081	399.553055129632	0.007943713118
5	59086	399.57644858429	0.007932910245
5	59091	399.63994318102	0.007904245709
5	59096	399.660331423233	0.007895330476
5	59101	399.708063701104	0.007874015748
5	59106	399.724707970957	0.00786693639
5	59111	399.747848046598	0.00785634119
5	59116	399.870361014451	0.007802050825
5	59121	399.9464851378	0.007769145394
6	1542	10.19835258653	1.2001889365728
6	1698	11.398541523103	0.96566736514229
6	1803	12.364208888245	0.1277771729257
6	1851	12.491986061171	0.35618174740504
6	1913	12.848167808576	0.66393001886428
6	2017	13.51209782744	0.31037396562103
6	2079	13.822471793061	1.0016790557176
6	2257	14.824150848779	0.97057225814131
6	2399	15.79472310692	1.7049950941208
6	2665	17.499718201041	0.75319890850995
6	2769	18.252917109551	1.1489355117373
6	2946	19.401852621288	0.14454027411866
6	2955	19.546392895407	0.69027364835869
6	3035	20.236666543766	0.72067896131804
6	3112	20.957345505084	0.88381623042317
6	3220	21.841161735507	0.20388011696116
6	3266	22.045041852468	1.272088314127
6	3502	23.317130166595	1.5386772927642
6	3770	24.855807459359	0.29907753004643
6	3826	25.154884989405	1.9239794311703
6	4070	27.078864420575	0.79011482940329
6	4170	27.868979249978	0.68168678330413
6	4306	28.550666033282	0.52308012522729
6	4412	29.073746158509	1.8744553867197
6	4650	30.948201545229	0.19478039533625
6	4681	31.142981940565	0.082996325505996
6	4697	31.225978266071	3.4943792803259
6	5147	34.720357546397	0.70369478920492
6	5246	35.424052335602	0.35242450398605
6	5287	35.776476839588	0.067515217654314
6	5293	35.843992057242	0.33949314282428
6	5337	36.183485200066	0.55883017613127
6	5427	36.742315376197	0.12351693109527
6	5460	36.865832307292	0.1015133936909
6	5483	36.967345700983	0.20055930281028
6	5530	37.167905003793	0.13600298362652
6	5581	37.30390798742	0.68179143761943
6	5710	37.985699425039	0.90818692663954
6	5834	38.893886351679	0.83416971691722
6	5953	39.728056068596	0.25619891344856
6	5974	39.984254982045	0.25081690982445
6	6005	40.235071891869	0.11310787648983
6	6018	40.348179768359	1.4588271041011
6	6251	41.80700687246	0.24885400850555
6	6289	42.055860880966	0.86111166349467
6	6408	42.916972544461	0.43051569854091
6	6462	43.347488243002	0.18371049824741
6	6503	43.531198741249	0.63071240531491
6	6559	44.161911146564	0.45802979297553
6	6595	44.61994093954	0.22532496256765
6	6618	44.845265902108	0.63237872423476
6	6733	45.477644626343	1.0227816817705
6	6887	46.500426308114	1.062086112426
6	7083	47.56251242054	0.65984748465707
6	7226	48.222359905197	1.5754701208104
6	7473	49.797830026007	0.70367584683763
6	7664	50.501505872845	1.0878557349496
6	7845	51.589361607795	0.48921523685956
6	7951	52.078576844655	0.94940731685217
6	8069	53.027984161507	1.5781207184635
6	8252	54.60610487997	4.6942196674673
6	9010	59.300324547437	0.86751052698531
6	9108	60.167835074422	0.12724808738521
6	9121	60.295083161807	0.17709357042038
6	9156	60.472176732227	0.160831859711
6	9204	60.633008591938	1.2064837658756
6	9385	61.839492357814	1.9124436823978
6	9633	63.751936040212	3.3396625581087
6	10076	67.091598598321	0.71238276335011
6	10192	67.803981361671	0.69316390865028
6	10283	68.497145270321	0.24496736759855
6	10304	68.74211263792	2.2029213048819
6	10617	70.945033942802	5.0006293088072
6	11402	75.945663251609	0.41796337159556
6	11428	76.363626623205	0.37877081408032
6	11479	76.742397437285	0.83735046450154
6	11585	77.579747901787	0.29939462543832
6	11616	77.879142527225	0.55782283368032
6	11663	78.436965360905	1.6563999950498
6	11885	80.093365355955	0.57402683905906
6	11971	80.667392195014	0.43645338340742
6	12058	81.103845578421	1.4986087234038
6	12308	82.602454301825	0.63081576499479
6	12421	83.23327006682	0.76701802268976
6	12518	84.00028808951	0.32044393375055
6	12557	84.320732023261	3.0735256647249
6	12935	87.394257687986	1.6004800982432
6	13210	88.994737786229	0.78571905500128
6	13309	89.78045684123	1.6827530591843
6	13519	91.463209900414	0.085661293271079
6	13528	91.548871193685	2.958251984911
6	13906	94.507123178596	0.45624652685833
6	13942	94.963369705454	1.73095397945
6	14252	96.694323684904	1.9028061339611
6	14490	98.597129818865	0.72389327825572
6	14593	99.321023097121	0.5213391108869
6	14670	99.842362208008	0.2497418640352
6	14706	100.092104072043	0.027579200084848
6	14716	100.119683272128	1.3729099848399
6	14888	101.492593256968	0.28392545331783
6	14939	101.776518710286	0.56482040593653
6	14976	102.341339116223	0.069504825701929
6	14989	102.410843941925	2.1919721139289
6	15309	104.602816055854	5.0916301550693
6	15989	109.694446210923	2.8334995336328
6	16354	112.527945744556	3.5260912624288
6	16870	116.054037006985	0.69918990096539
6	16971	116.75322690795	1.6107305002588
6	17189	118.363957408209	1.2108028659259
6	17340	119.574760274135	0.92084387790351
6	17453	120.495604152039	1.2260207574069
6	17656	121.721624909446	1.4479989833428
6	17886	123.169623892789	0.65589331411704
6	17985	123.825517206906	0.1853968154171
6	18044	124.010914022323	3.2267499934701
6	18562	127.237664015793	0.3467574741214
6	18608	127.584421489914	0.55516512914858
6	18674	128.139586619063	0.74247793514677
6	18755	128.88206455421	0.3898982287357
6	18805	129.271962782946	0.44102640243262
6	18864	129.712989185379	1.435190526173
6	19009	131.148179711552	0.046755149518365
6	19026	131.19493486107	2.6975341017809
6	19439	133.892468962851	4.0836089113507
6	20022	137.976077874202	1.2420805721391
6	20235	139.218158446341	0.5822409230849
6	20313	139.800399369426	0.72863086825066
6	20402	140.529030237677	0.70118023749097
6	20467	141.230210475168	2.1582388852684
6	20798	143.388449360436	0.39088390774087
6	20907	143.779333268177	0.80661569040621
6	21040	144.585948958583	0.30076022185329
6	21071	144.886709180436	0.85247707889295
6	21202	145.739186259329	0.48921072461963
6	21267	146.228396983949	0.50076521863156
6	21304	146.729162202581	1.7838918995731
6	21622	148.513054102154	2.6111061090606
6	22030	151.124160211215	1.3346399633672
6	22206	152.458800174582	0.005559848382739
6	22207	152.464360022965	0.47676333125698
6	22278	152.941123354222	1.3037876236073
6	22451	154.244910977829	0.013102806067789
6	22452	154.258013783897	0.43967405442543
6	22503	154.697687838322	1.59654608776
6	22687	156.294233926082	0.23944220835307
6	22739	156.533676134435	0.31387383649509
6	22788	156.84754997093	0.44945995375832
6	22849	157.297009924688	0.87391368060988
6	22995	158.170923605298	2.1061986511535
6	23243	160.277122256451	0.025883039693845
6	23246	160.303005296145	0.45149735764825
6	23285	160.754502653793	1.0853072605304
6	23411	161.839809914323	0.69958167173829
6	23509	162.539391586061	0.49024458606667
6	23575	163.029636172128	1.458814554834
6	23756	164.488450726962	0.68731182974631
6	23853	165.175762556708	2.458953234254
6	24162	167.634715790962	0.53598247600904
6	24235	168.170698266971	1.7508171948512
6	24459	169.921515461822	0.43212520454637
6	24542	170.353640666368	0.53059720071409
6	24616	170.884237867082	0.800683182685
6	24769	171.684921049767	0.99653231967504
6	24957	172.681453369442	3.6086161241274
6	25509	176.290069493569	0.41841601826978
6	25580	176.708485511839	0.1196580349801
6	25586	176.828143546819	0.4807700816622
6	25623	177.308913628481	0.3757973645514
6	25740	177.684710993032	3.2823369430844
6	26228	180.967047936116	0.042696361358483
6	26234	181.009744297474	1.0413275226714
6	26347	182.051071820145	1.3409377218767
6	26495	183.392009542022	3.1664179141808
6	26991	186.558427456203	1.0715197789214
6	27142	187.629947235124	1.6268492602584
6	27330	189.256796495382	0.24160765347191
6	27394	189.498404148854	0.2605676327161
6	27427	189.75897178157	0.53914526077589
6	27477	190.298117042346	2.1136358012906
6	27738	192.411752843637	1.0323806290749
6	27957	193.444133472712	0.89770542171107
6	28048	194.341838894423	1.0831760170536
6	28197	195.425014911477	1.5425844752613
6	28474	196.967599386738	0.18690460141352
6	28478	197.154503988152	0.75959566489772
6	28579	197.91409965305	2.1341277771656
6	29021	200.048227430216	3.4511412381354
6	29473	203.499368668351	1.5051146448708
6	29677	205.004483313222	0.85555679289699
6	29820	205.860040106119	0.14381749864963
6	29848	206.003857604769	0.64787444522696
6	30011	206.651732049996	2.0319217463459
6	30271	208.683653796342	0.54669180685233
6	30357	209.230345603194	1.3814177839259
6	30555	210.61176338712	0.91374390912158
6	30698	211.525507296242	1.6023910756517
6	30965	213.127898371894	0.11269012700057
6	30987	213.240588498895	0.78382760674387
6	31123	214.024416105639	0.45982764709528
6	31203	214.484243752734	0.2495361892162
6	31235	214.73377994195	0.24309934699521
6	31271	214.976879288945	2.5066449127116
6	31659	217.483524201657	1.6461596830665
6	31877	219.129683884723	0.89669541254352
6	32020	220.026379297267	1.6005802010089
6	32244	221.626959498276	0.42501177435329
6	32311	222.051971272629	0.80864664092288
6	32420	222.860617913552	0.30622429021478
6	32471	223.166842203767	2.2551838808788
6	32785	225.422026084646	2.4524256370365
6	33193	227.874451721683	2.6470477784697
6	33646	230.521499500153	0.54427117610876
6	33679	231.065770676262	3.8001860933545
6	34207	234.865956769617	0.77694520226012
6	34283	235.642901971877	2.4976116793948
6	34636	238.140513651272	0.93762204706648
6	34752	239.078135698338	0.040833697762833
6	34758	239.118969396101	1.7501367971248
6	34998	240.869106193226	1.3198420010276
6	35152	242.188948194254	0.97700505886266
6	35273	243.165953253117	2.2669658223574
6	35643	245.432919075474	0.19444939517962
6	35672	245.627368470654	1.819113490068
6	36015	247.446481960722	0.89466955295561
6	36128	248.341151513678	0.7688490026619
6	36249	249.11000051634	0.67190670046511
6	36330	249.781907216805	0.38760345676262
6	36384	250.169510673568	0.79386908963993
6	36490	250.963379763208	0.50625938536679
6	36543	251.469639148575	1.2023761550254
6	36769	252.6720153036	0.3249537313517
6	36830	252.996969034952	0.28211249288776
6	36876	253.27908152784	2.7527554023826
6	37296	256.031836930223	0.20656565709359
6	37335	256.238402587317	0.62314102416667
6	37428	256.861543611484	0.11718925108497
6	37432	256.978732862569	1.9124973477991
6	37720	258.891230210368	0.32028688870673
6	37788	259.211517099075	0.2392314846322
6	37827	259.450748583707	0.010302934684522
6	37828	259.461051518392	0.00012359181449871
6	37829	259.461175110206	0.99252330012643
6	37960	260.453698410332	0.097498464854526
6	37971	260.551196875187	0.34980191140012
6	38022	260.900998786587	0.19251298024655
6	38037	261.093511766834	0.20737668435934
6	38048	261.300888451193	0.72331605320716
6	38182	262.0242045044	0.10013867286612
6	38203	262.124343177266	2.1201831323787
6	38508	264.244526309645	0.33373411715272
6	38574	264.578260426798	1.5361499183842
6	38878	266.114410345182	0.24197523575218
6	38909	266.356385580934	0.75464217972414
6	39000	267.111027760658	0.33631747386842
6	39040	267.447345234526	0.3199819688709
6	39084	267.767327203397	0.63754192707526
6	39130	268.404869130472	0.026738453737199
6	39131	268.431607584209	0.79739014047039
6	39257	269.228997724679	2.0379819610922
6	39525	271.266979685771	1.8650602367259
6	39794	273.132039922497	0.32218775757927
6	39834	273.454227680076	4.4662526192604
6	40579	277.920480299336	0.15689987179823
6	40603	278.077380171134	0.050102515669037
6	40614	278.127482686803	0.7040294485407
6	40740	278.831512135344	0.26411952917844
6	40758	279.095631664522	0.40811060070872
6	40829	279.503742265231	1.0308922230364
6	41045	280.534634488267	0.17637379924298
6	41056	280.71100828751	0.17610082593866
6	41089	280.887109113449	0.24755148222442
6	41128	281.134660595673	2.0413437140347
6	41421	283.176004309708	1.8110502536933
6	41682	284.987054563401	0.24513666474835
6	41698	285.232191228149	1.2742093919155
6	41936	286.506400620065	1.3538467038763
6	42107	287.860247323941	0.052861038647014
6	42118	287.913108362588	1.0584896060232
6	42246	288.971597968611	0.97623272143115
6	42412	289.947830690042	1.6038809522826
6	42682	291.551711642325	0.33724949101715
6	42726	291.888961133342	0.031746180982872
6	42732	291.920707314325	1.6754813073159
6	42958	293.596188621641	0.26081170662736
6	43004	293.857000328268	0.78937773080339
6	43149	294.646378059071	1.2195180078308
6	43318	295.865896066902	0.018438994158877
6	43319	295.884335061061	0.091635699010483
6	43325	295.975970760071	0.016241446300164
6	43326	295.992212206371	0.031067101346268
6	43332	296.023279307717	2.7339178204843
6	43792	298.757197128201	0.44182042862901
6	43871	299.19901755683	0.49525691422706
6	43960	299.694274471057	0.89106653240342
6	44113	300.58534100346	2.4152557840872
6	44455	303.000596787547	0.053635745580626
6	44468	303.054232533128	1.7118326941504
6	44743	304.766065227278	0.067918809415694
6	44749	304.833984036694	0.094717771103499
6	44765	304.928701807797	0.044475731206528
6	44766	304.973177539004	0.44354135653916
6	44812	305.416718895543	0.50277604162904
6	44913	305.919494937172	0.019167659521677
6	44914	305.938662596694	1.1039074314704
6	45032	307.042570028164	0.59788558768001
6	45103	307.640455615844	0.22068047985552
6	45134	307.8611360957	0.030838920761374
6	45147	307.891975016461	2.0896248526716
6	45521	309.981599869133	0.31519575205227
6	45593	310.296795621185	0.56631913077113
6	45691	310.863114751956	0.0025859150943617
6	45692	310.86570066705	0.96664094849313
6	45895	311.832341615543	0.56871238861799
6	46046	312.401054004161	0.34309154004145
6	46104	312.744145544202	0.88472957012078
6	46262	313.628875114323	0.95517338546873
6	46378	314.584048499792	4.8263468095534
6	47118	319.410395309345	3.0717489887161
6	47699	322.482144298061	0.57185179038465
6	47790	323.053996088446	0.59423388938181
6	47866	323.648229977828	0.45008709826316
6	47924	324.098317076091	0.23199490237619
6	47945	324.330311978467	2.0645713735437
6	48251	326.394883352011	0.55402421708695
6	48347	326.948907569098	0.66369278432386
6	48445	327.612600353422	0.58802036509311
6	48543	328.200620718515	1.3620390347451
6	48757	329.56265975326	0.70849939034418
6	48809	330.271159143604	1.403159592749
6	49081	331.674318736353	0.74598535669201
6	49177	332.420304093045	0.39109367735869
6	49228	332.811397770404	0.043355608523314
6	49231	332.854753378927	1.3293523486438
6	49502	334.184105727571	0.17962809698369
6	49539	334.363733824555	0.20529103023816
6	49579	334.569024854793	0.59825013983952
6	49686	335.167274994633	0.1416692819768
6	49738	335.30894427661	1.2309027641298
6	50005	336.53984704074	0.010021958443374
6	50009	336.549868999183	1.503223365769
6	50254	338.053092364952	0.4668742188541
6	50356	338.519966583806	1.5010455147374
6	50614	340.021012098543	0.010859676165024
6	50615	340.031871774708	0.69872017606092
6	50686	340.730591950769	1.8869188789945
6	50939	342.617510829764	3.1407024991495
6	51312	345.758213328914	0.27861237868042
6	51364	346.036825707594	0.40327806717674
6	51421	346.440103774771	1.1395194560612
6	51626	347.579623230832	0.6567345559506
6	51741	348.236357786783	1.1305356902375
6	51919	349.36689347702	1.3798114151468
6	52055	350.746704892167	2.1700439508944
6	52465	352.916748843061	1.950798699639
6	52837	354.8675475427	0.16672266433768
6	52877	355.034270207038	0.5352208710624
6	52944	355.5694910781	2.9317087017057
6	53302	358.501199779806	1.8883883439488
6	53540	360.389588123755	0.34777712436991
6	53639	360.737365248125	0.58801438490204
6	53702	361.325379633027	1.3340835296095
6	53871	362.659463162636	1.2578908976684
6	54062	363.917354060304	0.64538415495975
6	54166	364.562738215264	0.0084842546290175
6	54170	364.571222469893	0.18016445594759
6	54212	364.751386925841	0.025524417592573
6	54217	364.776911343434	1.7570876466968
6	54521	366.533998990131	2.8209473091173
6	54878	369.354946299248	0.77587206955744
6	55050	370.130818368805	0.10773884165227
6	55066	370.238557210457	0.4372227187989
6	55125	370.675779929256	1.0846140859443
6	55251	371.7603940152	1.8451455877055
6	55514	373.605539602905	0.33304037809726
6	55570	373.938579981002	0.032321639015923
6	55576	373.970901620018	0.22419704153153
6	55607	374.19509866155	0.070138426489858
6	55613	374.26523708804	0.49156918792564
6	55674	374.756806275966	0.98934869027264
6	55772	375.746154966239	2.6023613006628
6	56108	378.348516266902	1.0077031694496
6	56271	379.356219436352	0.84460796775324
6	56397	380.200827404105	1.4685330070279
6	56625	381.669360411133	2.4854822060331
6	56908	384.154842617166	0.58230126385313
6	57004	384.737143881019	1.2115488980681
6	57184	385.948692779087	1.9552318480034
6	57458	387.90392462709	0.69558305515487
6	57571	388.599507682245	0.48072097924622
6	57655	389.080228661491	0.70539554280374
6	57756	389.785624204295	3.3461597666097
6	58200	393.131783970905	0.24695068407643
6	58215	393.378734654981	1.5155008147767
6	58468	394.894235469758	0.0046744288649914
6	58471	394.898909898623	0.55508189360776
6	58560	395.453991792231	0.54100350710359
6	58621	395.994995299335	0.42479801400954
6	58658	396.419793313345	0.82868311712706
6	58800	397.248476430472	0.77475343487035
6	58886	398.023229865342	2.0920152077087

