file 1439313 1613553641                                         
version 2
run Exponential-capacity-15-20210217-10:20:41-2176
attr configname Exponential-capacity
attr datetime 20210217-10:20:41
attr experiment Exponential-capacity
attr inifile aerocom.ini
attr iterationvars "$0=60, $1=3.5"
attr iterationvarsf 60,3.5-
attr measurement "$0=60, $1=3.5"
attr network Aerocom
attr processid 2176
attr repetition 0
attr replication #0
attr resultdir results
attr runnumber 15
attr seedset 0
param **.t 3s
param **.k 60ms
param **.X 0.5s
param **.m 3.5s
param **.tDistribution "\"exponential\""
param **.operationMode 0
param **.s "70 byte"
param **.dimPoolMax 10000
param **.dimPoolMin 8000
param **.nDL 10
param **.nA 1
param **.DLMaxCapacity 0
param **.trasmitting false

vector 0 Aerocom.aircraft[0].packetGenerator arrivalTime:vector ETV
attr "" ""
attr source computeArrivalTime
vector 1 Aerocom.aircraft[0].linkSelector waitingTime:vector ETV
attr "" ""
attr source computeWaitingTime
vector 2 Aerocom.aircraft[0].linkSelector queueLength:vector ETV
attr "" ""
attr source computeQueueLength
vector 3 Aerocom.aircraft[0].dataLink[1] actualCapacity:vector ETV
attr "" ""
attr source computeActualCapacity
vector 4 Aerocom.aircraft[0].linkSelector serviceTime:vector ETV
attr "" ""
attr source computeServiceTime
vector 5 Aerocom.aircraft[0].linkSelector responseTime:vector ETV
attr "" ""
attr source computeResponseTime
vector 6 Aerocom.aircraft[0].dataLink[4] tDistribution:vector ETV
attr "" ""
attr source computeTDistribution
vector 7 Aerocom.aircraft[0].dataLink[6] tDistribution:vector ETV
attr "" ""
attr source computeTDistribution
vector 8 Aerocom.aircraft[0].dataLink[1] tDistribution:vector ETV
attr "" ""
attr source computeTDistribution
vector 9 Aerocom.aircraft[0].dataLink[0] actualCapacity:vector ETV
attr "" ""
attr source computeActualCapacity
vector 10 Aerocom.aircraft[0].dataLink[2] actualCapacity:vector ETV
attr "" ""
attr source computeActualCapacity
vector 11 Aerocom.aircraft[0].dataLink[3] actualCapacity:vector ETV
attr "" ""
attr source computeActualCapacity
vector 12 Aerocom.aircraft[0].dataLink[4] actualCapacity:vector ETV
attr "" ""
attr source computeActualCapacity
vector 13 Aerocom.aircraft[0].dataLink[5] actualCapacity:vector ETV
attr "" ""
attr source computeActualCapacity
vector 14 Aerocom.aircraft[0].dataLink[6] actualCapacity:vector ETV
attr "" ""
attr source computeActualCapacity
vector 15 Aerocom.aircraft[0].dataLink[7] actualCapacity:vector ETV
attr "" ""
attr source computeActualCapacity
vector 16 Aerocom.aircraft[0].dataLink[8] actualCapacity:vector ETV
attr "" ""
attr source computeActualCapacity
vector 17 Aerocom.aircraft[0].dataLink[9] actualCapacity:vector ETV
attr "" ""
attr source computeActualCapacity
vector 18 Aerocom.aircraft[0].dataLink[5] tDistribution:vector ETV
attr "" ""
attr source computeTDistribution
vector 19 Aerocom.aircraft[0].dataLink[8] tDistribution:vector ETV
attr "" ""
attr source computeTDistribution
vector 20 Aerocom.aircraft[0].dataLink[0] tDistribution:vector ETV
attr "" ""
attr source computeTDistribution
vector 21 Aerocom.aircraft[0].dataLink[2] tDistribution:vector ETV
attr "" ""
attr source computeTDistribution
vector 22 Aerocom.aircraft[0].dataLink[7] tDistribution:vector ETV
attr "" ""
attr source computeTDistribution
vector 23 Aerocom.aircraft[0].dataLink[9] tDistribution:vector ETV
attr "" ""
attr source computeTDistribution
vector 24 Aerocom.aircraft[0].dataLink[3] tDistribution:vector ETV
attr "" ""
attr source computeTDistribution
0	3586 256534 856 34941 10.002239996404 399.941012287251 6369 3.321114e-006 0.61394892745 390.12588975903 47.967875753031
1	260120 193341 857 34942 10.002239996404 399.941012287251 6369 0 0.502726130992 224.39436804276 74.555737975659
2	453461 173396 857 34942 10.002239996404 399.941012287251 6369 0 16 3464 21402
3	626857 27340 857 34864 10.002239996404 399 935 8083 9915 8827640 83500110702
4	654197 280871 857 34942 10.002239996404 399.941012287251 6369 0.0070063056751076 0.0087238285144566 47.173112942029 0.35013996087032
5	935068 256526 858 34943 10.009549174644 399.948573315551 6369 0.007006305675 0.510077527757 271.56748098464 78.169782551002
6	1191594 6452 878 34728 10.203684607688 397.281470896017 155 0.010739517205868 10.933740481042 391.20523465692 1867.3384032852
7	1198046 5345 884 34914 10.276687748401 399.582664491057 128 0.0046257705518035 21.866676562641 394.65348847132 2680.3533415531
8	1203391 4981 895 34915 10.379485951627 399.598350968059 120 0.010023053548118 19.095471434865 392.76340000707 2407.0567308421
9	1208372 26550 901 34864 10.5 399 922 8066 9904 8680193 81917083243
10	1234922 14120 901 34864 10.5 399 496 8018 9888 4654600 43778272532
11	1249042 20443 901 34864 10.5 399 701 8044 9933 6581900 61917875310
12	1269485 20883 901 34864 10.5 399 717 8023 9960 6646897 61846957575
13	1290368 17963 901 34864 10.5 399 613 8089 9986 5747276 54007871552
14	1308331 18450 901 34864 10.5 399 630 8116 9969 5901451 55414350083
15	1326781 21291 901 34942 10.5 399.941012287251 721 8040 9987 6702522 62474787986
16	1348072 22013 901 34864 10.5 399 758 8032 9991 7304019 70466077833
17	1370085 29749 901 34864 10.5 399 996 8103 9935 9326278 87533227744
18	1399834 6201 905 34876 10.512701937009 399.26724886852 146 0.0074565261417224 13.460148239681 393.83660967434 2049.2077779932
19	1406035 4677 984 34402 11.360882962893 393.499445083393 110 0.00037077544349613 23.253607185995 395.47160748284 3033.4957189197
20	1410712 5660 1078 34686 11.986246086418 396.616178795411 133 0.039976272460222 11.530792426723 388.43385299836 2058.0400242859
21	1416372 5806 1096 34612 12.109370541993 395.436018372776 136 0.0061931119847609 15.274890465208 389.19202620404 2037.979323136
22	1422178 5580 1120 34852 12.313726549034 398.971737981676 131 0.029300814333314 15.865257109258 388.93846333758 2425.3017972606
23	1427758 5504 1190 34881 13.034736668212 399.363504255394 129 0.0077577452830852 19.513402438353 388.62563507912 2515.9534008334
24	1433262 6049 1645 34827 18.527692622347 398.597767503948 142 0.0056532962066554 13.09960706888 383.31012451243 1994.1847888339

