version 2
run Exponential-capacity-3-20210214-21:13:32-6516
attr configname Exponential-capacity
attr datetime 20210214-21:13:32
attr experiment Exponential-capacity
attr inifile aerocom.ini
attr iterationvars $0=50
attr iterationvarsf 50-
attr measurement $0=50
attr network Aerocom
attr processid 6516
attr repetition 0
attr replication #0
attr resultdir results
attr runnumber 3
attr seedset 0
param **.t 1s
param **.k 50ms
param **.X 0.4s
param **.m 1s
param **.tDistribution "\"exponential\""
param **.operationMode 0
param **.s "70 byte"
param **.dimPoolMax 10000
param **.dimPoolMin 8000
param **.nDL 1
param **.nA 1
param **.DLMaxCapacity 0
param **.trasmitting false

vector 0 Aerocom.aircraft[0].dataLink[0] actualCapacity:vector ETV
attr "" ""
attr source computeActualCapacity
vector 1 Aerocom.aircraft[0].packetGenerator arrivalTime:vector ETV
attr "" ""
attr source computeArrivalTime
vector 2 Aerocom.aircraft[0].dataLink[0] tDistribution:vector ETV
attr "" ""
attr source computeTDistribution
vector 3 Aerocom.aircraft[0].linkSelector waitingTime:vector ETV
attr "" ""
attr source computeWaitingTime
vector 4 Aerocom.aircraft[0].linkSelector queueLength:vector ETV
attr "" ""
attr source computeQueueLength
vector 5 Aerocom.aircraft[0].linkSelector serviceTime:vector ETV
attr "" ""
attr source computeServiceTime
vector 6 Aerocom.aircraft[0].linkSelector responseTime:vector ETV
attr "" ""
attr source computeResponseTime
0	1052	10	8763
0	1070	10.4	8799
0	1071	10.407955449483	8804
0	1076	10.415906380878	8808
0	1079	10.423853701496	8812
0	1082	10.431797414614	8817
0	1085	10.439736622962	8821
0	1088	10.44767223117	8825
0	1091	10.455604242501	8829
0	1094	10.463532660215	8834
0	1101	10.484421101191	8845
0	1106	10.527340749582	8868
0	1111	10.552557939911	8882
0	1116	10.59738748345	8906
0	1121	10.710574162243	8967
0	1126	10.753035202821	8990
0	1131	10.803968139322	9017
0	1136	10.816589138967	9024
0	1141	10.927664483891	9084
0	1145	11	9123
0	1157	11.4	9338
0	1158	11.407496251874	9333
0	1161	11.414996519741	9329
0	1164	11.422500003501	9325
0	1167	11.430006705914	9321
0	1174	11.482532459156	9291
0	1179	11.542644387518	9257
0	1182	11.550206232608	9253
0	1189	11.56647172655	9244
0	1194	11.639312654478	9202
0	1199	11.723358764705	9155
0	1204	11.749894889536	9140
0	1209	11.775145826924	9126
0	1214	11.831409927766	9094
0	1219	11.937884897569	9034
0	1224	11.952255421373	9025
0	1229	11.995782212689	9001
0	1230	12	8998
0	1245	12.403559126365	9124
0	1246	12.411231200017	9189
0	1249	12.418849003913	9253
0	1252	12.42641411793	9317
0	1255	12.433927265939	9381
0	1262	12.457486880605	9579
0	1268	12.511378624812	9827
0	1273	12.546168597857	9750
0	1278	12.584261986422	9665
0	1283	12.740535404305	9316
0	1288	12.753638266389	9287
0	1293	12.805278116921	9172
0	1301	12.830393656834	9116
0	1309	12.857963456341	9086
0	1315	12.906186134616	9130
0	1321	12.952806278636	9173
0	1327	12.985011514052	9203
0	1330	12.991504614461	9209
0	1337	13	9217
0	1344	13.148049358792	9354
0	1347	13.155532788341	9361
0	1350	13.161175684285	9366
0	1351	13.163010621906	9368
0	1358	13.169584672119	9374
0	1366	13.186714653354	9390
0	1371	13.210896437683	9412
0	1378	13.259015190472	9457
0	1385	13.328164150799	9521
0	1390	13.356162204303	9547
0	1399	13.461534584551	9645
0	1404	13.468813283473	9651
0	1407	13.476066417863	9658
0	1414	13.49195184501	9673
0	1417	13.499188483075	9680
0	1425	13.538992406369	9617
0	1430	13.560843807058	9557
0	1435	13.605530260973	9434
0	1440	13.645657860261	9324
0	1445	13.688361847043	9207
0	1448	13.695964757872	9186
0	1455	13.74302248723	9056
0	1461	13.916649261194	8818
0	1466	13.969441741627	8806
0	1471	13.988798246234	8802
0	1475	14	8800
0	1490	14.4	8715
0	1491	14.408032128514	8714
0	1496	14.416065178778	8712
0	1499	14.424100073177	8710
0	1502	14.432136812557	8708
0	1505	14.440175397766	8707
0	1508	14.448214906207	8705
0	1511	14.45625626175	8703
0	1518	14.525363200336	8689
0	1523	14.540441495997	8686
0	1528	14.622486374893	8668
0	1533	14.66099021787	8660
0	1538	14.721841192637	8647
0	1543	14.751544867553	8641
0	1546	14.759645781799	8639
0	1551	14.767748571474	8637
0	1559	14.888033698018	8674
0	1564	14.909750980815	8691
0	1569	14.972381357061	8739
0	1573	15	8760
0	1578	15.4	9067
0	1579	15.407720304401	9073
0	1586	15.434310653198	9093
0	1591	15.442404157534	9099
0	1596	15.559913022022	9190
0	1601	15.661208462877	9267
0	1604	15.668762147996	9273
0	1609	15.67631094558	9279
0	1616	15.707484783639	9303
0	1621	15.755283104835	9339
0	1626	15.764410034929	9346
0	1629	15.771899870153	9352
0	1637	15.84651039319	9360
0	1642	15.940706837519	9342
0	1646	16	9331
0	1663	16.4	9256
0	1664	16.407562662057	9254
0	1667	16.415126958577	9253
0	1670	16.422692072594	9251
0	1673	16.430258822135	9250
0	1678	16.437826389703	9248
0	1681	16.445395593855	9247
0	1684	16.452965616565	9246
0	1687	16.46053645801	9244
0	1694	16.492956740117	9238
0	1699	16.516320368437	9234
0	1704	16.546535322029	9228
0	1709	16.573778178436	9223
0	1714	16.637794888627	9211
0	1717	16.64539449779	9209
0	1724	16.741029153046	9191
0	1729	16.763774745286	9187
0	1734	16.949272774881	9152
0	1737	16.95692137628	9151
0	1743	17	9143
0	1758	17.4	9067
0	1759	17.407720304401	9066
0	1762	17.415441460368	9064
0	1765	17.423164320033	9063
0	1768	17.430888031828	9061
0	1773	17.438613448449	9060
0	1778	17.446339717765	9059
0	1781	17.454066839964	9057
0	1784	17.461795668494	9056
0	1789	17.469525350473	9054
0	1797	17.501310001535	9047
0	1802	17.534933027377	9019
0	1805	17.542694419993	9012
0	1812	17.558425476155	8999
0	1817	17.56958243656	8989
0	1822	17.579473911933	8981
0	1825	17.587268144201	8974
0	1830	17.595068456213	8967
0	1837	17.668705269119	8905
0	1842	17.699835136318	8878
0	1847	17.712510421575	8867
0	1852	17.816311974597	8779
0	1857	17.837494829665	8761
0	1862	17.981722044085	8638
0	1866	18	8623
0	1884	18.4	8469
0	1885	18.408265438659	8472
0	1888	18.416527950463	8476
0	1891	18.424786563016	8479
0	1894	18.433042253546	8482
0	1901	18.441295024119	8486
0	1904	18.449543904628	8489
0	1907	18.457789869995	8493
0	1910	18.466031951709	8496
0	1913	18.474271123084	8500
0	1920	18.48254965676	8503
0	1925	18.542598202087	8528
0	1930	18.556181605604	8534
0	1935	18.800138250004	8635
0	1940	18.9362056628	8692
0	1945	18.951754053048	8698
0	1950	18.999345538425	8718
0	1951	19	8718
0	1968	19.407374902958	8919
0	1969	19.415223316457	8966
0	1972	19.423030588373	9013
0	1975	19.430797147787	9060
0	1978	19.438523417103	9106
0	1981	19.446210656286	9152
0	1988	19.540826711587	9722
0	1994	19.559521036382	9731
0	1999	19.599920039052	9655
0	2004	19.625313295186	9607
0	2009	19.637250938828	9585
0	2014	19.649027167499	9563
0	2019	19.661607098155	9539
0	2024	19.671908700579	9520
0	2029	19.684251664019	9496
0	2036	19.828705443614	9225
0	2045	19.870854382385	9146
0	2050	19.938121754047	9019
0	2057	19.968205703373	8963
0	2061	20	8903
0	2064	20.007170168519	8890
0	2075	20.177641865882	8569
0	2080	20.190542504079	8545
0	2087	20.247599399222	8452
0	2092	20.262274781818	8444
0	2097	20.270564691813	8439
0	2102	20.278508001453	8435
0	2103	20.278859513474	8435
0	2113	20.301120040835	8422
0	2118	20.334575727019	8403
0	2124	20.353259216739	8393
0	2131	20.459692721466	8333
0	2136	20.519285626649	8300
0	2141	20.70662035734	8194
0	2146	20.730341171857	8181
0	2151	20.778413150436	8154
0	2156	20.788311537203	8148
0	2161	20.827410323247	8127
0	2164	20.836023587674	8122
0	2171	20.925077747757	8072
0	2174	20.933749700185	8067
0	2182	20.996655217526	8099
0	2183	21	8102
0	2201	21.405298259877	8567
0	2202	21.413469148169	8577
0	2205	21.421630509951	8586
0	2208	21.429783316846	8596
0	2213	21.437926639322	8605
0	2216	21.446061444668	8614
0	2219	21.454187750681	8624
0	2222	21.462304633798	8633
0	2229	21.66618431491	8867
0	2234	21.69788081588	8903
0	2239	21.710105366982	8917
0	2244	21.740547012669	8952
0	2249	21.79494223435	9014
0	2263	21.913388142892	9164
0	2268	21.928668387983	9184
0	2271	21.936290339203	9194
0	2276	21.943904000286	9205
0	2281	21.951508563024	9215
0	2287	22	9279
0	2291	22.074078754969	9351
0	2298	22.127806458289	9371
0	2303	22.147090842991	9379
0	2310	22.264483031062	9424
0	2315	22.288664950436	9433
0	2322	22.34055745421	9453
0	2330	22.384932550634	9470
0	2336	22.404561202043	9477
0	2341	22.493468368885	9511
0	2346	22.530136752543	9525
0	2351	22.579711967188	9544
0	2354	22.587046418152	9547
0	2361	22.682755796827	9584
0	2366	22.701443961518	9591
0	2371	22.717422694262	9597
0	2376	22.745131235714	9608
0	2381	22.825117207806	9638
0	2386	22.93340539185	9680
0	2391	22.943672780287	9684
0	2395	23	9705
0	2411	23.4	9773
0	2412	23.407162590811	9768
0	2415	23.414328847977	9764
0	2418	23.421498040931	9759
0	2421	23.428670907003	9755
0	2424	23.435846714281	9750
0	2427	23.44302620146	9745
0	2434	23.512011030539	9701
0	2439	23.525043037008	9692
0	2444	23.590668436656	9650
0	2449	23.696805769353	9581
0	2454	23.711453342277	9572
0	2459	23.730274809853	9560
0	2464	23.742270985825	9552
0	2469	23.900125762896	9450
0	2474	23.936637146158	9427
0	2479	23.968546576438	9406
0	2482	23.975988634699	9401
0	2488	24	9386
0	2513	24.4	9128
0	2514	24.407668711656	9123
0	2517	24.415341626267	9118
0	2522	24.423018748443	9113
0	2525	24.430700082801	9108
0	2528	24.438385633965	9103
0	2531	24.446075406567	9098
0	2534	24.453769405248	9093
0	2537	24.461467634655	9088
0	2540	24.469170099444	9083
0	2543	24.476876804277	9078
0	2546	24.484587753825	9073
0	2549	24.492302952767	9068
0	2556	24.516679827975	9052
0	2561	24.585413825665	9008
0	2564	24.593184696002	9003
0	2571	24.647838480138	8968
0	2576	24.684264672275	8944
0	2581	24.700474627949	8934
0	2584	24.708309864125	8929
0	2591	24.717169801731	8923
0	2596	24.780260435405	8882
0	2601	24.841210402664	8843
0	2607	24.866424399327	8836
0	2612	24.897526245281	8845
0	2617	24.939195157313	8856
0	2621	25	8872
0	2645	25.4	8939
0	2646	25.407830853563	8940
0	2651	25.415660831192	8941
0	2654	25.423489933082	8942
0	2657	25.43131815943	8943
0	2660	25.439145510431	8943
0	2663	25.446972861432	8944
0	2666	25.454799337282	8945
0	2669	25.462624938176	8946
0	2672	25.470449664311	8947
0	2675	25.478273515881	8948
0	2680	25.486096493083	8948
0	2683	25.493919470285	8949
0	2690	25.548340189658	8955
0	2693	25.556157051746	8956
0	2700	25.670223171609	8968
0	2705	25.682483076241	8969
0	2708	25.690287736738	8970
0	2715	25.756004328712	8977
0	2720	25.796173916845	8981
0	2725	25.86195522976	8988
0	2730	25.905865983696	8993
0	2733	25.913649815565	8994
0	2739	26	9003
0	2764	26.4	9045
0	2765	26.407739082366	9046
0	2768	26.415477309207	9047
0	2771	26.423214680711	9047
0	2776	26.430952052215	9048
0	2779	26.438688568572	9049
0	2782	26.446424229971	9050
0	2785	26.454159036601	9051
0	2788	26.46189298865	9051
0	2791	26.469626940699	9052
0	2794	26.477360038357	9053
0	2797	26.485092281812	9054
0	2800	26.492823671253	9055
0	2807	26.515801421826	9057
0	2812	26.59269285755	9065
0	2817	26.800491412328	9087
0	2822	26.817036906387	9089
0	2827	26.877821430055	9095
0	2832	26.921965457303	9100
0	2837	26.931987567057	9101
0	2840	26.939679029534	9102
0	2847	26.971204491597	9105
0	2851	27	9108
0	2861	27.4	9012
0	2862	27.407767421216	9010
0	2865	27.41553656661	9007
0	2870	27.423308299706	9005
0	2873	27.431081758895	9002
0	2880	27.466233360154	8991
0	2885	27.48686985349	8984
0	2890	27.499190644601	8980
0	2895	27.66213669346	8928
0	2900	27.692500657891	8918
0	2905	27.705679513533	8913
0	2910	27.811223952252	8879
0	2916	27.960333986026	8783
0	2921	27.994224086129	8754
0	2922	28	8749
0	2936	28.402220430657	8406
0	2937	28.410547815858	8399
0	2940	28.418882141373	8392
0	2945	28.42722341878	8385
0	2948	28.435571659686	8378
0	2951	28.443926875728	8370
0	2958	28.527588286537	8299
0	2964	28.562060013429	8314
0	2969	28.579397678618	8367
0	2974	28.672469260767	8652
0	2979	28.766974345672	8940
0	2984	28.777779156502	8973
0	2991	28.825879752832	9120
0	3000	28.900091876965	9347
0	3003	28.90758091088	9370
0	3012	29	9652
0	3016	29.083741005744	9870
0	3021	29.105067796346	9853
0	3028	29.204205241576	9774
0	3033	29.2122219463	9768
0	3039	29.288025392791	9708
0	3047	29.488422875535	9550
0	3052	29.698515846847	9384
0	3057	29.731055713965	9358
0	3062	29.801089498813	9302
0	3067	29.835486672736	9275
0	3070	29.843033842547	9269
0	3077	29.8866988432	9235
0	3082	29.902398738103	9222
0	3087	29.925388303992	9204
0	3092	29.951811665407	9183
0	3095	29.959434446633	9177
0	3102	29.987123300773	9155
0	3106	30	9145
0	3125	30.4	8829
0	3126	30.407928417714	8823
0	3131	30.415862227076	8816
0	3134	30.423802335969	8810
0	3137	30.431747852428	8804
0	3140	30.439698783823	8798
0	3143	30.44765513754	8791
0	3146	30.455617826654	8785
0	3149	30.463585954144	8779
0	3152	30.471559527444	8772
0	3159	30.509907581419	8742
0	3164	30.552014396561	8709
0	3169	30.73246144681	8566
0	3174	30.753511111712	8549
0	3179	30.915509260057	8421
0	3185	30.993273978075	8664
0	3186	31	8704
0	3210	31.401353387124	9592
0	3213	31.408651135247	9592
0	3216	31.41594888337	9591
0	3221	31.423247392389	9591
0	3224	31.430545901408	9591
0	3227	31.437844410427	9590
0	3230	31.4451436805	9590
0	3233	31.452442950573	9589
0	3236	31.459742981859	9589
0	3239	31.467043013145	9589
0	3242	31.474343044431	9588
0	3249	31.547194850626	9585
0	3252	31.554497928352	9585
0	3259	31.573976246752	9584
0	3262	31.581280086485	9583
0	3269	31.72946460433	9576
0	3274	31.79412199727	9573
0	3279	31.80143422959	9573
0	3282	31.808651135247	9572
0	3293	31.833520173553	9571
0	3305	31.907130381453	9567
0	3310	31.925292492398	9566
0	3315	31.933239151381	9566
0	3323	32	9563
0	3334	32.13677454585	9556
0	3335	32.144099786536	9556
0	3338	32.151425027222	9555
0	3341	32.158751034548	9555
0	3344	32.166077041874	9555
0	3351	32.176034210609	9554
0	3360	32.259182499643	9550
0	3365	32.273258700767	9550
0	3370	32.301553427849	9548
0	3376	32.328836313587	9547
0	3383	32.39857976815	9543
0	3389	32.439330684695	9541
0	3394	32.527811675855	9537
0	3399	32.626314554135	9532
0	3404	32.650138483265	9531
0	3409	32.715060765045	9528
0	3412	32.722407532467	9528
0	3419	32.735895470678	9527
0	3424	32.75069056434	9526
0	3427	32.758038874229	9526
0	3434	32.802555418812	9524
0	3437	32.809905271815	9523
0	3444	32.837762480637	9522
0	3449	32.855710546556	9521
0	3454	32.889175690155	9520
0	3459	32.904374268116	9519
0	3464	32.935046222596	9517
0	3469	32.965499445362	9516
0	3473	33	9514
0	3490	33.4	9495
0	3493	33.407372301211	9494
0	3498	33.414745378944	9494
0	3501	33.422118456677	9494
0	3504	33.42949153441	9493
0	3507	33.436865388829	9493
0	3510	33.444239243248	9493
0	3515	33.451613097667	9492
0	3518	33.458987728935	9492
0	3521	33.466362360203	9492
0	3524	33.473736991471	9491
0	3531	33.524494566351	9489
0	3534	33.53187152915	9488
0	3539	33.539249269454	9488
0	3546	33.585884168927	9486
0	3551	33.645584837457	9483
0	3556	33.657155886055	9482
0	3561	33.732566647636	9479
0	3566	33.826522569347	9474
0	3571	33.901643209033	9470
0	3576	33.958827740062	9468
0	3581	33.973843994076	9467
0	3586	33.983667088371	9466
0	3590	34	9466
0	3613	34.4	9446
0	3614	34.407410544146	9446
0	3617	34.414821088292	9445
0	3620	34.422232417037	9445
0	3623	34.429643745782	9445
0	3626	34.437055074527	9444
0	3629	34.444467188038	9444
0	3632	34.451879301549	9444
0	3635	34.45929141506	9443
0	3642	34.466704313503	9443
0	3645	34.474117211946	9442
0	3648	34.481530895488	9442
0	3651	34.48894457903	9442
0	3658	34.525025173045	9440
0	3663	34.605446065499	9436
0	3668	34.639193614182	9434
0	3671	34.646613584502	9434
0	3678	34.674894163304	9433
0	3683	34.711471430261	9431
0	3689	34.818626415282	9501
0	3694	34.836948979874	9514
0	3699	34.870460573703	9538
0	3704	34.913543948293	9569
0	3709	34.940314165848	9588
0	3713	35	9631
0	3734	35.4	9918
0	3735	35.407057874571	9923
0	3738	35.414112192822	9928
0	3741	35.421162958334	9933
0	3747	35.428210174684	9932
0	3752	35.43525810058	9925
0	3755	35.442310997305	9918
0	3758	35.449368871876	9912
0	3761	35.456431018769	9905
0	3764	35.463498156578	9898
0	3767	35.470570292363	9892
0	3770	35.477646717757	9885
0	3777	35.489101516954	9874
0	3782	35.541515972202	9825
0	3787	35.557774515726	9810
0	3792	35.596516634701	9774
0	3795	35.603678492692	9767
0	3802	35.623117174894	9749
0	3807	35.648051791538	9725
0	3812	35.656002392378	9718
0	3818	35.812643866855	9080
0	3823	35.821353802684	8954
0	3828	35.831713061797	8804
0	3831	35.839663993192	8688
0	3839	35.955804399373	8480
0	3844	35.999051304844	8424
0	3845	36	8423
0	3864	36.407360896487	8665
0	3865	36.415439373117	8682
0	3870	36.423502031491	8699
0	3873	36.431548933434	8717
0	3876	36.439579219083	8734
0	3879	36.447593874453	8751
0	3882	36.455592960272	8768
0	3885	36.463576536914	8785
0	3892	36.481204836654	8823
0	3897	36.58603665033	9048
0	3902	36.611496774673	9103
0	3905	36.619186547275	9119
0	3912	36.733596232844	9365
0	3918	36.761379178502	9330
0	3924	36.819942363249	9165
0	3933	36.851991040512	9074
0	3943	36.912126729703	9362
0	3948	36.955525228804	9668
0	3954	36.975379276305	9751
0	3959	37	9748
0	3963	37.038361334836	9744
0	3968	37.109050501313	9736
0	3971	37.116240312324	9735
0	3979	37.16096106449	9730
0	3986	37.226687169394	9755
0	3992	37.240410345494	9761
0	3999	37.313238356073	9787
0	4005	37.321988108484	9785
0	4008	37.329141915331	9784
0	4018	37.402056636444	9770
0	4023	37.420485783425	9766
0	4028	37.580398532264	9735
0	4033	37.593653187334	9733
0	4038	37.624290459577	9727
0	4043	37.659291741383	9720
0	4048	37.703991811517	9712
0	4053	37.857645572656	9682
0	4058	37.955144418248	9663
0	4064	37.995945346446	9641
0	4065	38	9634
0	4081	38.403206004054	8973
0	4082	38.411007185376	8961
0	4085	38.418818813542	8948
0	4088	38.426641790744	8935
0	4091	38.434476150005	8922
0	4094	38.442321924495	8909
0	4101	38.460145685795	8880
0	4106	38.468722617164	8866
0	4111	38.588481606633	8670
0	4119	38.83265655615	8270
0	4130	38.917168303888	8211
0	4133	38.925693453078	8226
0	4138	38.934203056774	8241
0	4143	38.942697171566	8257
0	4150	38.984817802793	8332
0	4155	39	8359
0	4164	39.24112088505	8789
0	4165	39.249085386131	8804
0	4168	39.257036317526	8818
0	4171	39.264974625532	8832
0	4181	39.350788824479	8985
0	4187	39.378374005109	9034
0	4194	39.408028084975	9087
0	4199	39.422994504096	9114
0	4204	39.488036375469	9230
0	4209	39.582572833191	9399
0	4214	39.650358758884	9520
0	4217	39.65771170006	9533
0	4224	39.670387609336	9556
0	4230	39.83007570297	9029
0	4233	39.837828499514	8981
0	4240	39.858408230939	8854
0	4245	39.887746671273	8673
0	4250	39.909804411809	8537
0	4255	39.934664876126	8384
0	4258	39.943014112767	8332
0	4265	39.973436279037	8144
0	4270	39.983678892394	8081
0	4275	40	8107
0	4292	40.4	8331
0	4293	40.408402352659	8329
0	4296	40.416806722932	8328
0	4299	40.425212102375	8327
0	4302	40.433618491231	8326
0	4305	40.442025889742	8324
0	4308	40.450435308291	8323
0	4315	40.528071468164	8311
0	4318	40.536494040658	8310
0	4325	40.63506971936	8295
0	4328	40.643508537925	8294
0	4335	40.670168472393	8290
0	4338	40.678612380716	8288
0	4345	40.692826398254	8286
0	4348	40.701274382806	8285
0	4355	40.710598518643	8284
0	4360	40.72413473818	8282
0	4365	40.771790865093	8274
0	4370	40.863267972886	8260
0	4373	40.871742549157	8259
0	4380	40.901895669929	8255
0	4383	40.910375379196	8253
0	4390	40.938664371002	8249
0	4395	40.966664789669	8245
0	4399	41	8240
0	4428	41.4	8179
0	4429	41.408558503485	8178
0	4432	41.417118053497	8177
0	4435	41.425678650293	8175
0	4438	41.434241341424	8174
0	4441	41.442805080108	8173
0	4444	41.4513698666	8171
0	4447	41.459936749478	8170
0	4450	41.468504680935	8169
0	4453	41.477073661226	8167
0	4456	41.485644739957	8166
0	4461	41.494216868294	8165
0	4464	41.502790046494	8164
0	4467	41.511364274813	8162
0	4470	41.519940604144	8161
0	4477	41.541546874153	8158
0	4482	41.555575670462	8156
0	4487	41.738553776385	8128
0	4492	41.761999842749	8124
0	4498	41.994013842546	9348
0	4501	42	9388
0	4522	42.401502075323	9589
0	4523	42.408802106609	9585
0	4526	42.416105184335	9582
0	4529	42.42341054856	9578
0	4532	42.430718963678	9575
0	4535	42.438029668639	9571
0	4538	42.445343428957	9568
0	4541	42.452659482469	9564
0	4544	42.459978595811	9561
0	4551	42.584495117567	9501
0	4556	42.607446513941	9490
0	4559	42.614822699399	9486
0	4566	42.629576318941	9479
0	4571	42.706023262477	9442
0	4576	42.786956315798	9403
0	4581	42.803968176779	9395
0	4584	42.808802106609	9393
0	4593	42.821436019283	9387
0	4605	42.878969148929	9359
0	4611	42.933279314487	9297
0	4616	42.957239949211	9233
0	4621	42.971362284809	9196
0	4626	43	9120
0	4629	43.021608950262	9062
0	4636	43.076418578312	8916
0	4643	43.207200624933	8569
0	4651	43.243619503585	8472
0	4657	43.339806432118	8216
0	4665	43.3673965382	8303
0	4672	43.401822232602	8488
0	4677	43.442271217359	8706
0	4682	43.470187556822	8857
0	4687	43.487104862757	8948
0	4693	43.573560844641	9162
0	4698	43.634867455253	9129
0	4703	43.701881253352	9092
0	4708	43.728676193119	9078
0	4713	43.758309064016	9062
0	4718	43.780666059146	9049
0	4723	43.954198313173	8955
0	4727	44	8930
0	4747	44.4	9102
0	4748	44.407690617447	9110
0	4751	44.415374481333	9119
0	4754	44.423050761627	9127
0	4757	44.430720313506	9136
0	4760	44.438382310003	9144
0	4763	44.446037603091	9152
0	4766	44.45368620449	9161
0	4769	44.461327291708	9169
0	4776	44.492178353877	9203
0	4781	44.576539268315	9295
0	4786	44.59140794471	9311
0	4792	44.803058734527	9807
0	4797	44.827102645742	9868
0	4802	45	9647
0	4815	45.4	8957
0	4816	45.407815116669	8943
0	4819	45.41564246767	8930
0	4822	45.423481213471	8916
0	4825	45.431332267755	8902
0	4828	45.439195669238	8889
0	4836	45.557348331778	8841
0	4841	45.571171967605	8845
0	4846	45.585517422374	8848
0	4851	45.598473035168	8851
0	4854	45.606381746048	8853
0	4861	45.637689407327	8861
0	4866	45.788437820936	8896
0	4871	45.899498530096	8923
0	4876	45.912789357547	8926
0	4881	45.934956077347	8931
0	4886	45.993477863848	8945
0	4887	46	8947
0	4909	46.401303464742	9042
0	4910	46.409045114819	9044
0	4913	46.416785052899	9046
0	4918	46.42452327974	9047
0	4921	46.432260651244	9049
0	4924	46.439996312643	9051
0	4929	46.447730264692	9053
0	4932	46.455462508147	9055
0	4935	46.463193043763	9057
0	4940	46.470921872293	9058
0	4943	46.478649847563	9060
0	4946	46.486376116879	9062
0	4951	46.494100680993	9064
0	4959	46.55574995974	9031
0	4964	46.612739730073	8995
0	4969	46.626317519657	8986
0	4974	46.705685381142	8936
0	4979	46.715113617355	8930
0	4984	46.750165892821	8908
0	4989	46.779993388665	8889
0	4994	46.797559452742	8878
0	5000	46.815713394751	8866
0	5017	46.924274688819	8798
0	5022	47	8750
0	5025	47.02052183124	8737
0	5031	47.037334244979	8726
0	5036	47.0509077433	8718
0	5042	47.11795282953	8675
0	5048	47.152849706972	8653
0	5055	47.193374364331	8628
0	5063	47.336245631722	8537
0	5068	47.347497756415	8530
0	5073	47.397753538844	8499
0	5079	47.437514648909	8473
0	5084	47.53849387407	8410
0	5090	47.575155141004	8413
0	5095	47.716000727502	8624
0	5100	47.737446319291	8656
0	5105	47.806914244638	8760
0	5108	47.814905112218	8772
0	5115	47.868288516659	8852
0	5120	47.8763456456	8864
0	5124	48	9050
0	5134	48.4	9292
0	5137	48.407533362032	9288
0	5140	48.415069968406	9284
0	5143	48.422609821917	9280
0	5146	48.430152925365	9276
0	5153	48.468046643442	9257
0	5156	48.475608488532	9253
0	5163	48.519027049376	9231
0	5168	48.536348715751	9222
0	5173	48.592071627337	9194
0	5178	48.600336277953	9190
0	5183	48.630002806366	9174
0	5188	48.657022941246	9161
0	5193	48.716572013916	9130
0	5196	48.724239045679	9126
0	5203	48.747376255169	9115
0	5208	48.793708185184	9091
0	5211	48.801408108185	9087
0	5218	48.823106752438	9076
0	5223	48.984372556624	8994
0	5227	49	8986
0	5238	49.4	8782
0	5239	49.407970849465	8777
0	5242	49.415946239689	8773
0	5245	49.423925266248	8769
0	5248	49.431907932459	8765
0	5255	49.507887580142	8726
0	5260	49.523954595285	8718
0	5265	49.531991097313	8714
0	5270	49.576843748018	8691
0	5275	49.591811398165	8684
0	5280	49.705346903535	8626
0	5285	49.717484175403	8620
0	5290	49.743589740624	8606
0	5295	49.786954341566	8584
0	5301	49.827111180162	8581
0	5305	50	8593
0	5322	50.4	8623
0	5325	50.408117824423	8624
0	5328	50.41623470754	8624
0	5331	50.424351590657	8625
0	5334	50.432467532686	8625
0	5339	50.440583474715	8626
0	5342	50.448698475874	8627
0	5345	50.456812536382	8627
0	5348	50.46492659689	8628
0	5351	50.473039716964	8628
0	5358	50.498353299945	8630
0	5364	50.516934087686	8626
0	5369	50.533204923544	8620
0	5374	50.556548140722	8613
0	5379	50.669172784226	8577
0	5384	50.706391697296	8565
0	5387	50.71456449356	8563
0	5394	50.777169591965	8543
0	5399	50.826296009101	8527
0	5404	50.846582326294	8520
0	5409	50.866572089918	8514
0	5414	50.995527746457	8473
0	5415	51	8471
0	5429	51.403789283103	8343
0	5432	51.412179550393	8340
0	5435	51.420572835765	8337
0	5440	51.428969141391	8335
0	5443	51.437367461727	8332
0	5446	51.445768805942	8329
0	5449	51.454173176215	8327
0	5454	51.462579565071	8324
0	5461	51.567222331162	8291
0	5464	51.575665221043	8288
0	5472	51.608666416753	8326
0	5477	51.630088468193	8374
0	5482	51.665820177562	8454
0	5487	51.733192618747	8604
0	5492	51.757648039278	8658
0	5498	51.814700205991	8785
0	5507	51.852460796879	8869
0	5515	51.901154726453	8978
0	5521	52	9198
0	5525	52.045910607304	9300
0	5532	52.107895511335	9378
0	5539	52.21957750389	9401
0	5545	52.231043362472	9403
0	5551	52.287566222388	9415
0	5556	52.308470805335	9419
0	5562	52.359418464389	9430
0	5568	52.415806486068	9441
0	5573	52.455550127871	9449
0	5578	52.561245468603	9471
0	5583	52.577165119406	9474
0	5588	52.616392954252	9482
0	5593	52.62441715962	9483
0	5598	52.641030190799	9487
0	5603	52.738032601293	9507
0	5606	52.74539559698	9508
0	5613	52.789968366968	9517
0	5618	52.851920192337	9530
0	5623	52.869728481415	9533
0	5626	52.877071395503	9535
0	5633	52.900953903166	9540
0	5638	52.924268754488	9544
0	5641	52.931603205452	9546
0	5648	52.963318727265	9552
0	5652	53	9560
0	5676	53.4	9590
0	5677	53.407299270073	9590
0	5680	53.414598540146	9591
0	5683	53.421897049165	9591
0	5686	53.429195558184	9592
0	5689	53.436493306307	9592
0	5692	53.44379105443	9593
0	5699	53.451088041817	9593
0	5702	53.458385029204	9594
0	5707	53.465681256012	9594
0	5710	53.47297748282	9595
0	5713	53.480272949209	9595
0	5716	53.487568415598	9595
0	5719	53.494863881987	9596
0	5726	53.635335959996	9605
0	5731	53.647106253321	9606
0	5736	53.705809760161	9610
0	5739	53.713093839245	9610
0	5744	53.720377918329	9611
0	5751	53.760229237552	9613
0	5756	53.777337972133	9614
0	5761	53.836754430147	9618
0	5766	53.875480269544	9621
0	5771	53.931210819694	9624
0	5776	53.99560533165	9629
0	5777	54	9629
0	5795	54.402875037746	9655
0	5796	54.410125167213	9656
0	5799	54.417374545838	9656
0	5802	54.424623924463	9657
0	5805	54.431872552401	9657
0	5808	54.439121180339	9658
0	5811	54.446369057746	9658
0	5818	54.48911892433	9661
0	5823	54.533545359946	9664
0	5829	54.623279015646	9665
0	5834	54.787811457159	9636
0	5847	54.910943670629	9614
0	5850	54.9182247191	9612
0	5858	54.966817878339	9604
0	5862	55	9598
0	5865	55.030521643685	9592
0	5870	55.055484099823	9588
0	5875	55.139498219827	9573
0	5881	55.197271956264	9562
0	5886	55.23291978022	9556
0	5891	55.285211044859	9546
0	5896	55.305531688196	9543
0	5899	55.312866907729	9541
0	5909	55.385241106289	9528
0	5915	55.511235540981	9506
0	5918	55.518599311231	9504
0	5925	55.555444851186	9498
0	5930	55.584617859801	9493
0	5935	55.820937619644	9450
0	5940	55.857631117995	9443
0	5945	55.881783769208	9439
0	5950	55.940985156025	9428
0	5954	56	9418
0	5973	56.4	9346
0	5974	56.407489835224	9345
0	5977	56.414980471928	9343
0	5980	56.422472712108	9342
0	5983	56.429965754283	9341
0	5986	56.437459598625	9339
0	5989	56.444955047817	9338
0	5992	56.452451299691	9337
0	5995	56.459948354419	9335
0	6002	56.49150423346	9330
0	6007	56.597561956302	9310
0	6012	56.64578694439	9302
0	6017	56.665684364122	9298
0	6020	56.673212864875	9297
0	6027	56.698758191716	9292
0	6032	56.895831125947	9257
0	6037	56.93516528172	9250
0	6041	57	9238
0	6058	57.4	9166
0	6059	57.407636919049	9165
0	6062	57.415274671368	9163
0	6065	57.422914090772	9162
0	6068	57.430554343992	9161
0	6071	57.43819543121	9159
0	6074	57.445838186969	9158
0	6077	57.453481777273	9157
0	6084	57.485902060742	9151
0	6089	57.542982836918	9140
0	6094	57.631550502884	9125
0	6099	57.648472559525	9121
0	6104	57.821023065993	9090
0	6107	57.82872383607	9089
0	6114	57.949370300767	9067
0	6117	57.957090605168	9066
0	6124	57.964811761135	9065
0	6127	57.972533768857	9063
0	6132	57.980257480652	9062
0	6139	57.99163255141	9060
0	6143	58	9058
0	6158	58.4	8986
0	6159	58.407789895393	8985
0	6164	58.415580657775	8984
0	6167	58.423372287339	8982
0	6170	58.431165651846	8981
0	6173	58.438959884114	8979
0	6176	58.446755852485	8978
0	6179	58.454552689197	8977
0	6186	58.5208655181	8965
0	6191	58.566422808504	8956
0	6196	58.595987947782	8951
0	6201	58.609581239711	8949
0	6206	58.728812006873	8927
0	6211	58.772292774915	8919
0	6216	58.781024164739	8918
0	6221	58.78890776738	8916
0	6226	58.843012861604	8907
0	6231	58.863458738066	8903
0	6236	58.892473217465	8898
0	6241	58.941585126685	8889
0	6244	58.949460028249	8888
0	6251	58.967980099771	8884
0	6255	59	8878
0	6277	59.4	8734
0	6278	59.40801465537	8727
0	6281	59.416035739362	8719
0	6284	59.424064182991	8712
0	6287	59.43209907739	8705
0	6290	59.440140432933	8697
0	6293	59.448189185376	8690
0	6296	59.456244421279	8683
0	6299	59.464306151096	8675
0	6302	59.472375315361	8668
0	6309	59.492670140923	8650
0	6314	59.502859410033	8640
0	6319	59.57019077446	8579
0	6324	59.598716073864	8553
0	6329	59.712885775585	8449
0	6334	59.723270939896	8440
0	6339	59.779096868574	8389
0	6344	59.841896648513	8332
0	6349	59.879535131115	8298
0	6354	59.916547740686	8264
0	6359	59.934700098406	8248
0	6364	59.954024807508	8230
0	6368	60	8188
0	6381	60.4	8916
0	6382	60.407851054284	8979
0	6385	60.415647022655	9042
0	6390	60.423388672732	9105
0	6393	60.431076756203	9167
0	6396	60.438712842164	9229
0	6403	60.446297629248	9290
0	6406	60.453832613102	9351
0	6415	60.634557385135	9248
0	6420	60.810256326283	9355
0	6425	60.819854221381	9360
0	6430	60.874366500704	9393
0	6435	60.8942404547	9405
0	6440	60.911586898858	9416
0	6445	60.968613122606	9450
0	6450	60.979793075523	9457
0	6453	60.987195000023	9462
0	6459	61	9469
0	6476	61.4	9711
0	6477	61.407208320461	9715
0	6480	61.414413673009	9720
0	6483	61.4216153191	9724
0	6488	61.428814002769	9728
0	6491	61.436009726453	9733
0	6494	61.443201753577	9737
0	6497	61.450390826187	9741
0	6500	61.457576946709	9746
0	6505	61.464759380528	9750
0	6512	61.492126113797	9767
0	6517	61.515063678929	9780
0	6522	61.646770248726	9860
0	6527	61.677258357369	9878
0	6532	61.722092649198	9906
0	6537	61.742677678092	9918
0	6542	61.770940442158	9935
0	6548	61.947098009219	9940
0	6553	61.992018127541	9924
0	6558	61.999179291115	9922
0	6559	62	9921
0	6585	62.406234320343	9782
0	6586	62.413390321161	9780
0	6589	62.420547785374	9777
0	6592	62.427707445802	9775
0	6595	62.434868571122	9772
0	6598	62.442031894904	9770
0	6601	62.449196685078	9767
0	6604	62.456363675966	9765
0	6607	62.463532134747	9762
0	6610	62.470702796497	9760
0	6613	62.477874927645	9758
0	6620	62.752934453863	9663
0	6636	62.961706634074	9592
0	6641	62.983391607594	9584
0	6645	63	9578
0	6650	63.160178580946	9523
0	6651	63.167529205749	9521
0	6658	63.215752745966	9504
0	6663	63.266500693884	9487
0	6668	63.322244036588	9468
0	6676	63.406090773238	9439
0	6681	63.421600579401	9434
0	6686	63.608558003303	9370
0	6691	63.650071035641	9355
0	6697	63.760341075831	9321
0	6702	63.917590953466	9329
0	6707	63.989906332074	9333
0	6710	63.997406599941	9333
0	6713	64	9333
0	6745	64.404906867808	9355
0	6746	64.412389497418	9355
0	6749	64.419872127028	9356
0	6752	64.42735395687	9356
0	6755	64.434835786712	9356
0	6758	64.442317616554	9357
0	6761	64.449798646799	9357
0	6764	64.457279677044	9357
0	6769	64.464760707289	9358
0	6774	64.472240938108	9358
0	6777	64.479721168927	9359
0	6780	64.48720060049	9359
0	6783	64.494680032053	9359
0	6786	64.502159463616	9360
0	6789	64.509638096095	9360
0	6792	64.517116728574	9361
0	6799	64.628637231685	9366
0	6804	64.657031616341	9368
0	6807	64.664503862285	9368
0	6814	64.682932135304	9369
0	6817	64.690403583698	9370
0	6824	64.732372741829	9372
0	6829	64.776915431924	9374
0	6848	64.914726085798	9381
0	6855	64.983128786867	9385
0	6859	65	9386
0	6866	65.124454985395	9392
0	6873	65.218698216105	9397
0	6876	65.226147402015	9398
0	6884	65.358707657437	9405
0	6891	65.404050812802	9407
0	6896	65.609047527435	9418
0	6901	65.720236668223	9424
0	6906	65.745761426358	9425
0	6911	65.821679883778	9429
0	6916	65.845608712331	9430
0	6921	65.857492005886	9431
0	6926	65.865489216554	9431
0	6931	65.937896522751	9435
0	6936	65.995645249429	9438
0	6937	66	9438
0	6959	66.403062075028	9459
0	6962	66.410462434474	9460
0	6965	66.417862011641	9460
0	6968	66.425261588808	9461
0	6971	66.432660383861	9461
0	6976	66.440059178914	9461
0	6979	66.447457973967	9462
0	6986	66.454855987072	9462
0	6991	66.462254000177	9463
0	6994	66.469651231499	9463
0	6997	66.477048462821	9463
0	7000	66.484445694143	9464
0	7003	66.491842143847	9464
0	7006	66.499238593551	9464
0	7013	66.671676827198	9473
0	7018	66.769832991676	9479
0	7033	66.883281446007	9485
0	7037	66.890661519808	9485
0	7046	66.902109202488	9486
0	7052	66.933911726044	9487
0	7057	66.965957497204	9489
0	7060	66.973334460003	9489
0	7066	67	9491
0	7073	67.079066249767	9495
0	7074	67.086438550978	9495
0	7078	67.093810852189	9493
0	7086	67.266333947445	9275
0	7098	67.437290772579	9059
0	7103	67.464847669995	9024
0	7106	67.472604762194	9014
0	7113	67.567402620151	8894
0	7116	67.575273094628	8884
0	7121	67.583152428261	8874
0	7128	67.608718884093	8842
0	7133	67.624540253652	8822
0	7138	67.655188617086	8783
0	7143	67.68104696344	8751
0	7148	67.694458118104	8734
0	7153	67.719983746901	8702
0	7156	67.728027874688	8691
0	7163	67.778660652491	8627
0	7166	67.786774712999	8617
0	7174	67.806405721885	8595
0	7179	67.903565749701	8590
0	7184	67.966113182734	8587
0	7189	67.991626752622	8586
0	7193	68	8585
0	7216	68.4	8565
0	7217	68.408172796264	8564
0	7220	68.416346546848	8564
0	7223	68.424520297432	8563
0	7226	68.432695002559	8563
0	7229	68.440869707686	8562
0	7232	68.449045367579	8562
0	7235	68.457221027472	8562
0	7238	68.465396687365	8561
0	7241	68.473573302246	8561
0	7244	68.481749917127	8560
0	7252	68.508574459059	8575
0	7257	68.561556706219	8647
0	7262	68.617262443042	8722
0	7267	68.682056333867	8810
0	7272	68.701640560861	8837
0	7277	68.740133657652	8889
0	7283	68.759139609219	8897
0	7286	68.767007429833	8899
0	7293	68.854575827979	8927
0	7298	68.880538514223	8935
0	7303	68.955300070129	8958
0	7308	68.981291167373	8966
0	7313	68.997796502076	8971
0	7314	69	8972
0	7340	69.405599422598	9098
0	7341	69.413293421279	9101
0	7344	69.420984883756	9103
0	7349	69.428674656358	9105
0	7352	69.436362739829	9108
0	7355	69.444048290993	9110
0	7358	69.451732154879	9112
0	7361	69.459414332228	9115
0	7364	69.467093981158	9117
0	7367	69.474771945401	9120
0	7374	69.482447383997	9122
0	7377	69.490121139752	9124
0	7380	69.497793213404	9127
0	7383	69.505462765283	9129
0	7390	69.636814112625	9170
0	7395	69.746854956343	9204
0	7398	69.754460345304	9207
0	7405	69.809610451277	9224
0	7423	69.910543639273	9255
0	7428	70	9283
0	7435	70.044447700411	9297
0	7436	70.051977010941	9299
0	7439	70.059504702091	9302
0	7444	70.067029965475	9304
0	7453	70.199732025069	9345
0	7459	70.225628197323	9353
0	7465	70.384499728396	9403
0	7471	70.421635915881	9415
0	7476	70.501196029048	9439
0	7481	70.523910407901	9446
0	7486	70.765789780354	9522
0	7491	70.776360839103	9525
0	7496	70.798303547955	9532
0	7499	70.805647232386	9534
0	7506	70.893574708557	9561
0	7511	70.93008080957	9573
0	7516	71	9565
0	7553	71.4	9474
0	7554	71.407388642601	9473
0	7561	71.41477806517	9471
0	7564	71.422169048171	9469
0	7569	71.429561592262	9468
0	7572	71.436954917146	9466
0	7575	71.44434980411	9464
0	7578	71.451746253814	9463
0	7581	71.459143485136	9461
0	7584	71.466542280189	9459
0	7587	71.473942639635	9458
0	7590	71.481343781525	9456
0	7593	71.488746488801	9454
0	7596	71.496150762124	9453
0	7599	71.50355581872	9451
0	7602	71.510962442358	9449
0	7605	71.518370633701	9447
0	7610	71.525780393413	9446
0	7613	71.533190937559	9444
0	7616	71.54060305107	9442
0	7621	71.548016734612	9441
0	7626	71.555431203418	9439
0	7631	71.562847243253	9437
0	7634	71.570264854782	9436
0	7637	71.577683252408	9434
0	7644	71.598576225306	9429
0	7649	71.719643057628	9402
0	7654	71.79388376133	9385
0	7659	71.902004008466	9360
0	7664	71.932481967508	9354
0	7668	72	9338
0	7695	72.4	9248
0	7696	72.407569204152	9246
0	7699	72.415140045597	9244
0	7702	72.422712525043	9242
0	7705	72.430286643199	9241
0	7708	72.437861580976	9239
0	7711	72.445438158528	9237
0	7714	72.453016376564	9236
0	7719	72.460595415109	9234
0	7722	72.468176095204	9232
0	7725	72.475758417561	9230
0	7730	72.483342382891	9229
0	7733	72.490927169975	9227
0	7736	72.498513601101	9225
0	7739	72.506101676982	9223
0	7746	72.613731292999	9199
0	7751	72.622472393001	9197
0	7754	72.630083570559	9195
0	7761	72.645496481726	9192
0	7766	72.758516504095	9166
0	7769	72.766153423144	9165
0	7776	72.788467596878	9159
0	7781	72.890904496557	9136
0	7786	72.996244102851	9112
0	7787	73	9111
0	7799	73.4039262802	9020
0	7800	73.411686812351	9018
0	7803	73.419449065622	9016
0	7806	73.427213040777	9015
0	7813	73.464311789591	9006
0	7818	73.535518340373	8990
0	7823	73.578855393906	8980
0	7828	73.601526064823	8975
0	7833	73.631957032526	8968
0	7838	73.666720821575	8960
0	7843	73.718131087489	8949
0	7848	73.741742524921	8943
0	7853	73.75639569981	8940
0	7858	73.779095272147	8935
0	7864	73.81914070629	8926
0	7871	73.834257113192	8922
0	7875	73.842102887682	8921
0	7883	73.875585722338	8913
0	7888	73.886775160945	8910
0	7894	73.944019483418	8897
0	7899	73.980102420803	8889
0	7905	73.996343261035	8886
0	7906	74	8885
0	7912	74.00932550772	8883
0	7917	74.038629006745	8876
0	7925	74.13410675767	8854
0	7928	74.142012788842	8853
0	7937	74.165521106335	8847
0	7942	74.17422956739	8845
0	7948	74.187498065279	8842
0	7951	74.195414826193	8840
0	7959	74.233920847173	8832
0	7971	74.410482917198	8792
0	7978	74.479168880432	8776
0	7981	74.487145179429	8774
0	7988	74.526313201767	8765
0	7993	74.536149236198	8763
0	8001	74.579406689144	8753
0	8009	74.626856006483	8743
0	8014	74.636178488193	8740
0	8017	74.641846571811	8739
0	8025	74.698397857045	8726
0	8030	74.805207553361	8702
0	8041	74.993391593038	8659
0	8042	75	8658
0	8050	75.056972093154	8645
0	8055	75.103872498934	8634
0	8062	75.273519034666	8596
0	8067	75.293422084915	8591
0	8072	75.328848888687	8583
0	8078	75.40999838954	8565
0	8083	75.427860979303	8561
0	8090	75.518366529876	8540
0	8095	75.558236453668	8531
0	8100	75.585067557817	8525
0	8107	75.718618806492	8495
0	8113	75.745477993346	8489
0	8118	75.782255831093	8481
0	8125	75.920183897239	8449
0	8131	75.935728500394	8446
0	8139	75.999768316547	8413
0	8140	76	8413
0	8148	76.126858947752	8340
0	8151	76.135252233124	8336
0	8154	76.143649545984	8331
0	8162	76.157387849385	8323
0	8167	76.165798278317	8318
0	8170	76.174213762808	8313
0	8175	76.182634308941	8309
0	8186	76.368712864398	8205
0	8191	76.387866267752	8202
0	8197	76.430674575622	8195
0	8202	76.528545495234	8179
0	8212	76.58014153038	8171
0	8219	76.610812433686	8166
0	8224	76.633476657227	8163
0	8229	76.662878847811	8158
0	8234	76.717966943677	8149
0	8239	76.738448301681	8146
0	8246	76.780861642173	8180
0	8253	76.88715817067	8275
0	8259	76.961670625004	8342
0	8264	77	8376
0	8269	77.106716077063	8471
0	8277	77.221896420894	8574
0	8285	77.462631320881	8790
0	8290	77.488532773737	8813
0	8295	77.512172450973	8834
0	8301	77.625026808055	8901
0	8306	77.7943138532	8925
0	8309	77.802156990455	8926
0	8316	77.87616061929	8937
0	8322	77.933995583775	9024
0	8327	77.99029822366	9113
0	8331	78	9128
0	8348	78.4	9758
0	8349	78.407173601148	9770
0	8354	78.414338391322	9781
0	8357	78.421495123762	9792
0	8360	78.428643816572	9803
0	8365	78.435784487795	9815
0	8369	78.442916428702	9811
0	8372	78.450051277341	9804
0	8375	78.457191220221	9797
0	8380	78.464336264622	9790
0	8383	78.47148641784	9783
0	8390	78.492749288718	9762
0	8395	78.503534280782	9751
0	8400	78.537591044687	9718
0	8405	78.549097333095	9706
0	8410	78.624389890249	9633
0	8415	78.662726159355	9595
0	8420	78.755696487976	9504
0	8425	78.78449263662	9476
0	8430	78.791979897033	9468
0	8435	78.976403495807	9287
0	8439	79	9264
0	8454	79.4	8872
0	8455	79.407889990983	8864
0	8458	79.415787102896	8856
0	8461	79.423691348605	8848
0	8464	79.43160274101	8841
0	8467	79.439520397384	8833
0	8470	79.447445224736	8825
0	8477	79.459563917119	8813
0	8482	79.468066771559	8805
0	8487	79.544250285576	8730
0	8492	79.562384842386	8712
0	8497	79.576572347513	8698
0	8502	79.5846201746	8691
0	8505	79.592674483655	8683
0	8512	79.609992108858	8666
0	8517	79.636113571025	8640
0	8520	79.644215422877	8632
0	8527	79.746891283094	8531
0	8532	79.788882958163	8490
0	8537	79.817164104214	8462
0	8542	79.831319195664	8449
0	8547	79.848028966412	8432
0	8552	79.893399612409	8388
0	8556	80	8283
0	8568	80.4	8403
0	8569	80.408330358205	8408
0	8572	80.416655762582	8414
0	8575	80.424975230136	8420
0	8578	80.433288769328	8425
0	8585	80.478808335686	8457
0	8588	80.48708550253	8462
0	8595	80.503804692095	8474
0	8600	80.637854446582	8566
0	8605	80.651719823029	8576
0	8611	80.707737777167	8699
0	8616	80.722148435562	8739
0	8621	80.734858668698	8775
0	8626	80.767882363412	8867
0	8633	80.775776803471	8889
0	8636	80.783651705035	8911
0	8639	80.791507164579	8933
0	8646	80.822592755983	9020
0	8651	80.953734032078	9386
0	8656	80.979972054282	9460
0	8660	81	9515
0	8676	81.4	9562
0	8677	81.407320644217	9556
0	8680	81.414645884903	9550
0	8683	81.421975727835	9544
0	8686	81.429310178799	9538
0	8689	81.436649243592	9532
0	8692	81.443992928023	9526
0	8699	81.506568618372	9475
0	8704	81.53697019966	9450
0	8709	81.558658509135	9432
0	8714	81.604497202719	9394
0	8719	81.718412689859	9301
0	8724	81.771490355674	9257
0	8729	81.844967021467	9197
0	8734	81.86831063034	9178
0	8739	81.89042418979	9159
0	8744	81.945590454925	9114
0	8749	81.994189274579	9074
0	8750	82	9069
0	8782	82.401903623268	8739
0	8783	82.40991369307	8733
0	8786	82.417929266183	8726
0	8789	82.425951269392	8719
0	8792	82.433979713021	8713
0	8795	82.442013685246	8706
0	8800	82.450054117132	8700
0	8803	82.458100094143	8693
0	8806	82.466152550142	8686
0	8809	82.474211495571	8680
0	8814	82.4822760117	8673
0	8817	82.49034703672	8667
0	8820	82.498423649158	8660
0	8823	82.506506790036	8653
0	8826	82.514596469916	8647
0	8829	82.522691763081	8640
0	8836	82.538068784309	8627
0	8841	82.571508718518	8600
0	8846	82.579648253402	8593
0	8849	82.587794418886	8587
0	8854	82.595946276345	8580
0	8862	82.616253561065	8567
0	8867	82.624424449357	8563
0	8870	82.632599154484	8558
0	8875	82.640778635671	8554
0	8882	82.649891531615	8549
0	8887	82.671304433056	8538
0	8892	82.806007317305	8466
0	8896	82.814275684893	8461
0	8904	82.822755641187	8457
0	8915	82.868849604101	8432
0	8929	82.966565042686	8380
0	8936	83	8362
0	8940	83.029218947386	8347
0	8950	83.110419469576	8303
0	8955	83.118972060528	8299
0	8960	83.127638936589	8294
0	8965	83.148576904202	8283
0	8970	83.195110582033	8258
0	8979	83.260070548655	8238
0	8982	83.268567756715	8239
0	8990	83.320647146716	8240
0	8996	83.385724252139	8242
0	9002	83.482089477002	8245
0	9007	83.532820814715	8246
0	9012	83.573260321029	8247
0	9017	83.656809649789	8250
0	9020	83.665294498274	8250
0	9027	83.690751529064	8251
0	9030	83.699235349207	8251
0	9037	83.816877713166	8254
0	9042	83.825358449779	8254
0	9045	83.833839186392	8255
0	9052	83.85998166866	8255
0	9057	83.877310019116	8256
0	9062	83.94765654638	8258
0	9066	84	8259
0	9091	84.4	9022
0	9092	84.407758811793	9020
0	9095	84.415519343944	9017
0	9098	84.423282458062	9015
0	9103	84.431047294446	9012
0	9106	84.438814715662	9010
0	9109	84.446583861056	9007
0	9112	84.454355594152	9005
0	9115	84.462129053341	9002
0	9118	84.469905103108	8999
0	9121	84.477683745179	8997
0	9124	84.485464116414	8994
0	9131	84.535054794553	8978
0	9136	84.648454314095	8941
0	9141	84.714533819404	8919
0	9146	84.757326280476	8905
0	9151	84.783684719961	8896
0	9156	84.81107815466	8887
0	9161	84.834459358523	8880
0	9166	84.895152386676	8860
0	9171	84.931398558491	8848
0	9176	84.953495217935	8840
0	9180	85	8825
0	9187	85.4	8693
0	9188	85.408052455999	8691
0	9195	85.416106765054	8688
0	9200	85.424163855293	8686
0	9203	85.432222800722	8683
0	9206	85.440284530539	8680
0	9213	85.481615333857	8667
0	9218	85.539235884826	8648
0	9223	85.665215392774	8606
0	9226	85.673349252872	8604
0	9233	85.728920985841	8585
0	9238	85.837152344625	8550
0	9243	85.846892649451	8546
0	9248	85.940061948641	8516
0	9253	85.973097703312	8505
0	9257	86	8496
0	9274	86.4	8365
0	9275	86.408368200837	8362
0	9278	86.416739403898	8359
0	9283	86.425113611339	8356
0	9286	86.433490825317	8354
0	9291	86.441870044853	8351
0	9294	86.450252274526	8348
0	9297	86.4586375165	8345
0	9300	86.467025772941	8343
0	9303	86.475416040231	8340
0	9310	86.499995969416	8332
0	9315	86.520743798552	8325
0	9318	86.52915220696	8322
0	9325	86.57220168445	8308
0	9330	86.604605202434	8297
0	9335	86.769714400057	8243
0	9340	86.813759780921	8228
0	9343	86.822267316167	8226
0	9350	86.83638296476	8221
0	9355	86.851230317699	8216
0	9360	86.862450677876	8212
0	9365	86.965848793634	8178
0	9369	87	8167
0	9387	87.4	8038
0	9388	87.408708633989	8039
0	9393	87.417416184679	8039
0	9396	87.426123735369	8040
0	9401	87.434830203031	8041
0	9404	87.443535587933	8041
0	9407	87.452240972835	8042
0	9410	87.460945275247	8043
0	9413	87.469648495438	8044
0	9416	87.478350633678	8044
0	9423	87.515792633587	8047
0	9428	87.534822178553	8049
0	9433	87.546234509713	8050
0	9438	87.575843249912	8052
0	9443	87.655422355566	8059
0	9448	87.683798984758	8061
0	9453	87.699289091486	8062
0	9458	87.721396600082	8064
0	9463	87.739106530786	8065
0	9468	87.862344537607	8075
0	9472	88	8086
0	9493	88.4	8119
0	9496	88.408621751447	8119
0	9499	88.417243502894	8120
0	9502	88.425864192549	8121
0	9505	88.434483820674	8121
0	9508	88.443103448799	8122
0	9511	88.451722015654	8123
0	9514	88.460339521502	8123
0	9517	88.46895702735	8124
0	9520	88.477573472451	8125
0	9523	88.486188857066	8126
0	9528	88.494803181457	8126
0	9535	88.544295345945	8130
0	9540	88.565415518415	8132
0	9545	88.620733171663	8136
0	9550	88.694407060496	8142
0	9555	88.860260429382	8156
0	9560	88.926830646904	8161
0	9565	89	8174
0	9572	89.4	8780
0	9573	89.407972665148	8792
0	9576	89.415934448587	8804
0	9583	89.438680044228	8839
0	9588	89.461220534759	8873
0	9593	89.490329587416	8917
0	9596	89.498179761241	8929
0	9603	89.525960606513	8971
0	9608	89.545634726361	9001
0	9613	89.575378539156	9046
0	9618	89.609728320951	9098
0	9623	89.651676985097	9161
0	9628	89.661125910933	9176
0	9633	89.709659198325	9249
0	9636	89.717227584096	9261
0	9643	89.748580562538	9308
0	9648	89.778721107938	9354
0	9654	89.879511981155	9385
0	9658	90	9419
0	9673	90.4	9532
0	9676	90.407343684431	9534
0	9679	90.414685828337	9536
0	9682	90.422026432364	9538
0	9685	90.429365497157	9540
0	9688	90.436703023362	9542
0	9691	90.444039011624	9544
0	9694	90.451373462588	9546
0	9701	90.459859022595	9549
0	9706	90.481259280118	9555
0	9711	90.512379181335	9564
0	9716	90.524257458482	9567
0	9721	90.53962582212	9571
0	9724	90.546939582438	9573
0	9731	90.5855329488	9584
0	9736	90.689917461957	9614
0	9741	90.700756963244	9617
0	9746	90.826143080007	9652
0	9751	90.89373418431	9671
0	9754	90.900972318939	9673
0	9760	91	9701
0	9781	91.4	9815
0	9782	91.407131940907	9817
0	9785	91.414262428836	9819
0	9788	91.421391464379	9821
0	9793	91.428519048128	9823
0	9796	91.435645180674	9825
0	9799	91.442769862608	9827
0	9802	91.44989309452	9829
0	9805	91.457014877	9831
0	9809	91.464135210638	9817
0	9812	91.471265698567	9700
0	9820	91.620007724667	8456
0	9823	91.628285870362	8460
0	9828	91.63656010204	8464
0	9835	91.654075360559	8472
0	9840	91.753636142584	8519
0	9845	91.819000711834	8550
0	9850	91.860794590211	8570
0	9855	91.903957017424	8590
0	9860	91.926893784491	8601
0	9865	91.945185526448	8610
0	9870	91.966139066626	8620
0	9874	92	8636
0	9883	92.4	8824
0	9884	92.407932910245	8828
0	9887	92.415862226058	8832
0	9890	92.423787950696	8836
0	9897	92.467843813485	8856
0	9902	92.521391565804	8882
0	9907	92.5624149442	8901
0	9912	92.59883564297	8918
0	9917	92.640417790605	8938
0	9922	92.673593874852	8954
0	9925	92.681411609942	8957
0	9932	92.791933924301	9010
0	9935	92.799703069695	9013
0	9942	92.837873247491	9031
0	9947	92.8855259188	9054
0	9952	92.973209119667	9095
0	9956	93	9108
0	9969	93.4	9297
0	9970	93.40752931053	9300
0	9973	93.41505619225	9304
0	9976	93.422579837994	9307
0	9981	93.430101058581	9311
0	9984	93.437619048056	9314
0	9989	93.445134616018	9318
0	9992	93.452646957722	9322
0	9997	93.460156075937	9325
0	10004	93.570065084569	9377
0	10009	93.621765375706	9401
0	10012	93.629211392087	9405
0	10019	93.644716329328	9412
0	10024	93.664969990787	9422
0	10029	93.729972291246	9452
0	10032	93.73737813128	9456
0	10039	93.779150257416	9476
0	10044	93.811424245967	9491
0	10049	93.882087736731	9524
0	10054	93.967833891936	9565
0	10059	93.982315676832	9572
0	10063	94	9580
0	10072	94.4	9769
0	10073	94.407165523595	9772
0	10078	94.414328847377	9776
0	10083	94.421489240176	9779
0	10086	94.428647436311	9782
0	10089	94.435803437129	9786
0	10096	94.504032952994	9818
0	10102	94.539997791608	9727
0	10107	94.54756126386	9705
0	10112	94.647124088427	9424
0	10117	94.660021349891	9388
0	10122	94.681383730706	9327
0	10125	94.688888823448	9306
0	10132	94.698846233367	9278
0	10137	94.760005720395	9105
0	10142	94.825670038162	8920
0	10147	94.850815658996	8848
0	10152	95	8532
0	10171	95.4	8547
0	10172	95.40819000819	8547
0	10175	95.41638001638	8548
0	10178	95.42456906645	8548
0	10181	95.43275811652	8548
0	10184	95.44094716659	8549
0	10187	95.449135258765	8549
0	10192	95.45732335094	8549
0	10195	95.465511443115	8550
0	10198	95.473698577618	8550
0	10205	95.517694126112	8552
0	10210	95.529967600219	8552
0	10215	95.549171178804	8553
0	10220	95.731306663205	8560
0	10225	95.914934642467	8567
0	10230	95.923792863013	8567
0	10234	96	8570
0	10257	96.4	8585
0	10258	96.408153756552	8586
0	10261	96.416306563447	8586
0	10264	96.424459370342	8586
0	10267	96.432612177237	8587
0	10270	96.440764034696	8587
0	10273	96.448915892155	8587
0	10276	96.457067749614	8587
0	10279	96.465219607073	8588
0	10282	96.473370515317	8588
0	10287	96.481521423561	8588
0	10290	96.489672331805	8589
0	10297	96.52100003035	8590
0	10302	96.631113452622	8594
0	10307	96.6653343997	8595
0	10312	96.677764125914	8596
0	10315	96.68590744839	8596
0	10323	96.732806095503	8604
0	10328	96.809599338792	8620
0	10331	96.817719988444	8622
0	10338	96.849333642537	8628
0	10343	96.880047656468	8634
0	10348	96.976294448351	8654
0	10353	96.995749451271	8658
0	10354	97	8659
0	10376	97.403834459356	8740
0	10377	97.411843612674	8742
0	10380	97.419850933653	8744
0	10383	97.427856423131	8745
0	10386	97.435860997173	8747
0	10389	97.443863740971	8749
0	10394	97.451864655361	8750
0	10397	97.459864655361	8752
0	10400	97.467862827207	8753
0	10403	97.47586008529	8755
0	10410	97.567809244487	8774
0	10415	97.634175393111	8787
0	10420	97.654500021489	8791
0	10425	97.664209570428	8793
0	10434	97.839667800885	8829
0	10446	97.979643939308	8857
0	10450	98	8861
0	10453	98.042141706984	8870
0	10456	98.050033476995	8872
0	10464	98.067164703202	8875
0	10473	98.495215616168	8962
0	10478	98.573193180254	8978
0	10483	98.584179367529	8980
0	10489	98.615652262596	8987
0	10494	98.653928286288	8997
0	10497	98.661708657523	8999
0	10504	98.674998983929	9002
0	10509	98.763257072908	9025
0	10514	98.78138982356	9030
0	10519	98.85953240128	9050
0	10524	98.904242400791	9061
0	10529	98.940421989196	9070
0	10533	99	9085
0	10551	99.4	9007
0	10552	99.407771733096	8991
0	10555	99.415557296437	8975
0	10558	99.423356739334	8959
0	10561	99.431170111362	8943
0	10564	99.438997462363	8927
0	10567	99.446838842446	8911
0	10570	99.45469430199	8895
0	10577	99.49739542417	8808
0	10582	99.557601482176	8686
0	10587	99.591500758262	8617
0	10592	99.613888172	8571
0	10597	99.717395288908	8360
0	10602	99.7670237448	8259
0	10608	99.856806591742	8165
0	10613	99.885337729642	8282
0	10618	99.89736718103	8331
0	10623	99.924071980428	8441
0	10628	99.997822896157	8744
0	10629	100	8752
0	10665	100.405828385635	9164
0	10666	100.413466971405	9164
0	10669	100.421105557175	9165
0	10672	100.428743309494	9165
0	10675	100.436381061813	9166
0	10678	100.444017980862	9166
0	10681	100.451654899911	9167
0	10684	100.459290985872	9167
0	10687	100.466927071833	9167
0	10690	100.474563157794	9168
0	10693	100.482198410848	9168
0	10696	100.489833663902	9169
0	10699	100.497468084231	9169
0	10702	100.50510250456	9170
0	10705	100.512736092346	9170
0	10712	100.520875470257	9171
0	10717	100.553543643618	9172
0	10722	100.566524072602	9173
0	10727	100.610856679332	9176
0	10732	100.667383680838	9179
0	10737	100.781501209087	9186
0	10744	100.826433606822	9188
0	10763	100.95289017882	9195
0	10766	100.960503011881	9196
0	10775	100.976200500887	9197
0	10779	101	9198
0	10782	101.01848527567	9199
0	10788	101.142063332087	9206
0	10794	101.203745495967	9210
0	10800	101.243204104255	9212
0	10803	101.25080288845	9213
0	10810	101.288129271169	9215
0	10818	101.393943463571	9221
0	10824	101.403782886877	9221
0	10829	101.440489827694	9224
0	10832	101.44807872622	9224
0	10837	101.455667624746	9224
0	10842	101.463256523272	9225
0	10849	101.47492131926	9225
0	10852	101.482509395141	9226
0	10860	101.635161702763	8758
0	10865	101.647796221609	8716
0	10870	101.691448174195	8572
0	10875	101.730254333076	8445
0	10878	101.738543261436	8417
0	10886	101.837283582351	8467
0	10891	101.854235473734	8515
0	10896	101.933469759076	8743
0	10901	101.963974774186	8830
0	10906	101.971902294005	8853
0	10909	101.979809218211	8876
0	10915	102	8933
0	10925	102.4	9292
0	10928	102.407533362032	9213
0	10934	102.415131321437	9176
0	10937	102.422759917775	9174
0	10940	102.430390177204	9172
0	10943	102.438022100449	9169
0	10950	102.491152087543	9153
0	10955	102.535566292651	9140
0	10960	102.548724337481	9136
0	10965	102.618691315602	9115
0	10970	102.652369355125	9105
0	10975	102.665817881542	9101
0	10980	102.733966548127	9081
0	10985	102.782411568272	9066
0	10990	102.873980217277	9039
0	10995	102.92501034151	9023
0	11000	102.938004439114	9019
0	11004	103	9001
0	11015	103.4	8881
0	11016	103.407881995271	8879
0	11019	103.415765765966	8876
0	11022	103.423652201297	8874
0	11025	103.431540414053	8872
0	11032	103.452453034677	8865
0	11037	103.48616144615	8855
0	11042	103.590650140534	8824
0	11047	103.600899889237	8821
0	11052	103.614123117333	8817
0	11057	103.887939059903	8735
0	11060	103.895952797739	8732
0	11065	103.903969288806	8730
0	11072	103.923317570793	8724
0	11077	103.955199156756	8715
0	11082	103.969763580926	8710
0	11087	103.977800320306	8708
0	11090	103.985838905515	8705
0	11096	104	8701
0	11105	104.4	8581
0	11106	104.408157557394	8579
0	11109	104.416317016538	8576
0	11114	104.424479329971	8574
0	11117	104.432643547372	8572
0	11124	104.448192061636	8567
0	11129	104.46973065729	8560
0	11134	104.486735636447	8555
0	11139	104.501412756614	8551
0	11145	104.628449928473	8525
0	11150	104.643864806036	8528
0	11155	104.673775674774	8533
0	11158	104.681979120221	8534
0	11165	104.786537001082	8552
0	11170	104.823844250932	8559
0	11173	104.832022776461	8560
0	11178	104.840200346554	8561
0	11185	104.872114082962	8567
0	11190	104.89115739068	8570
0	11195	104.921298085899	8575
0	11200	104.970567598127	8584
0	11205	104.990302588088	8587
0	11209	105	8589
0	11234	105.4	8658
0	11235	105.408085008085	8659
0	11238	105.416169082458	8661
0	11241	105.424251290055	8662
0	11244	105.432332564587	8664
0	11247	105.440411973636	8665
0	11250	105.448490450266	8666
0	11253	105.456567994692	8668
0	11256	105.464643675357	8669
0	11259	105.472718424463	8671
0	11262	105.480791311097	8672
0	11265	105.488863266817	8673
0	11272	105.559329238086	8685
0	11275	105.567389111431	8687
0	11282	105.578191560572	8689
0	11287	105.586247723537	8690
0	11290	105.59430295944	8691
0	11297	105.70089598074	8710
0	11302	105.733954464946	8716
0	11307	105.760655631982	8720
0	11312	105.775448992341	8723
0	11317	105.831961034287	8732
0	11322	105.918744456762	8747
0	11327	105.948854871465	8753
0	11332	105.962103478251	8755
0	11337	105.973300526273	8757
0	11342	105.991899326694	8760
0	11346	106	8761
0	11361	106.4	8830
0	11362	106.407927519819	8832
0	11367	106.415853244457	8833
0	11370	106.423778071809	8835
0	11375	106.431701105199	8836
0	11378	106.439623241912	8837
0	11381	106.447544482152	8839
0	11386	106.455463930053	8840
0	11389	106.463382482089	8841
0	11392	106.471300138463	8843
0	11399	106.50960878155	8849
0	11402	106.517519279911	8851
0	11409	106.547245925246	8856
0	11412	106.555150170955	8857
0	11419	106.587748371095	8863
0	11424	106.623540693461	8869
0	11429	106.71280139934	8884
0	11434	106.720680732973	8886
0	11439	106.72855829318	8887
0	11442	106.736434966973	8888
0	11449	106.840508932034	8906
0	11453	107	8934
0	11470	107.4	9003
0	11471	107.407775186049	9004
0	11474	107.415549508572	9006
0	11477	107.423322104619	9007
0	11480	107.431093837715	9008
0	11483	107.438864708052	9010
0	11486	107.446633853446	9011
0	11489	107.454402136655	9012
0	11496	107.483029011514	9017
0	11499	107.490792125632	9019
0	11506	107.500757098829	9020
0	11511	107.511012947605	9022
0	11516	107.521296403603	9024
0	11521	107.634421943792	9043
0	11526	107.693224930153	9053
0	11529	107.700957173608	9055
0	11534	107.708687709224	9056
0	11541	107.731139370928	9060
0	11546	107.746509778436	9063
0	11551	107.81787584667	9075
0	11555	108	9106
0	11580	108.4	9175
0	11581	108.407629427793	9177
0	11584	108.415257192858	9178
0	11587	108.422884126831	9179
0	11590	108.430510229892	9181
0	11593	108.438134671674	9182
0	11596	108.445758283088	9183
0	11599	108.453381064314	9184
0	11602	108.461003015534	9186
0	11605	108.468623307282	9187
0	11608	108.476242769566	9188
0	11611	108.483861402566	9190
0	11618	108.561465946286	9203
0	11623	108.870175799934	9256
0	11628	108.96888413445	9273
0	11632	109	9279
0	11647	109.4	9348
0	11648	109.407488232777	9349
0	11651	109.414975664588	9350
0	11654	109.422462295604	9352
0	11657	109.429947325544	9353
0	11660	109.437431555203	9354
0	11663	109.444914984752	9355
0	11670	109.519327168414	9368
0	11675	109.533819840194	9371
0	11680	109.57099736456	9377
0	11685	109.579589232299	9379
0	11690	109.601454425101	9382
0	11695	109.678744735547	9396
0	11698	109.686194714261	9397
0	11706	109.865778892003	9342
0	11711	109.936083567856	9319
0	11714	109.943595103428	9316
0	11720	110	9297
0	11737	110.4	9165
0	11738	110.407637752319	9163
0	11741	110.415277171723	9160
0	11746	110.42291909312	9158
0	11749	110.430562683424	9155
0	11752	110.438208778454	9153
0	11755	110.445856544214	9150
0	11758	110.453506817438	9147
0	11761	110.461159599771	9145
0	11768	110.573674143135	9108
0	11773	110.621407276546	9092
0	11776	110.629106352657	9089
0	11783	110.667872348066	9077
0	11788	110.689899637074	9069
0	11793	110.707444920659	9064
0	11798	110.722926581948	9058
0	11803	110.855386178141	9015
0	11808	110.937747978293	8987
0	11813	110.953203862803	8982
0	11818	110.962133814956	8979
0	11822	111	8967
0	11829	111.4	8834
0	11830	111.407923930269	8832
0	11833	111.415849654907	8829
0	11840	111.439548679704	8821
0	11845	111.516033051437	8796
0	11850	111.623663192419	8761
0	11855	111.660256544395	8748
0	11860	111.834216254291	8691
0	11863	111.842270563346	8688
0	11870	111.880234745909	8676
0	11875	111.912206895579	8665
0	11880	111.942869421655	8655
0	11885	111.97170486941	8645
0	11889	112	8636
0	11916	112.4	8504
0	11917	112.408231420508	8501
0	11920	112.416465745881	8498
0	11925	112.424702978171	8496
0	11928	112.432942149546	8493
0	11931	112.44118423126	8490
0	11934	112.449429225371	8487
0	11937	112.457677133937	8485
0	11940	112.465926986618	8482
0	11943	112.474179757191	8479
0	11946	112.482435447721	8477
0	11949	112.490693086036	8474
0	11952	112.498953647754	8471
0	11955	112.507217134946	8468
0	11963	112.612553449395	8455
0	11966	112.620832574173	8455
0	11973	112.634475450551	8454
0	11978	112.752821724209	8445
0	11983	112.764359316058	8444
0	11988	112.849099387285	8438
0	11993	112.867448131179	8437
0	11998	112.90766115607	8434
0	12002	113	8427
0	12009	113.4	8398
0	12010	113.408335317933	8397
0	12013	113.41667162852	8396
0	12020	113.431605217032	8395
0	12025	113.44567550375	8394
0	12028	113.454014793719	8394
0	12035	113.462757271307	8393
0	12040	113.512582418329	8389
0	12043	113.52092667867	8389
0	12050	113.82705554743	8366
0	12055	113.849621626709	8365
0	12059	114	8354
0	12078	114.4	8325
0	12079	114.408408408408	8324
0	12082	114.416817826957	8323
0	12087	114.425228255889	8323
0	12090	114.433638684821	8322
0	12095	114.442050124379	8321
0	12098	114.450462574806	8321
0	12101	114.458875025233	8320
0	12106	114.467288486771	8320
0	12109	114.475701948309	8319
0	12112	114.484116421202	8318
0	12115	114.492531905693	8318
0	12122	114.618309174031	8309
0	12127	114.62728460883	8308
0	12132	114.647341376308	8306
0	12137	114.759450109163	8298
0	12142	114.8103095738	8295
0	12147	114.853100139813	8291
0	12152	114.86958506581	8290
0	12157	114.8844224051	8289
0	12161	115	8281
0	12180	115.4	8251
0	12181	115.408483820143	8251
0	12184	115.416967640286	8250
0	12189	115.425452488771	8249
0	12192	115.433938365847	8249
0	12197	115.442424242923	8248
0	12200	115.45091114884	8248
0	12203	115.459398054757	8247
0	12206	115.467885989764	8246
0	12209	115.47637495411	8246
0	12212	115.484863918456	8245
0	12219	115.519659598925	8243
0	12224	115.532160813203	8242
0	12229	115.566474171079	8239
0	12234	115.624031559286	8235
0	12239	115.643824830413	8234
0	12242	115.652326166337	8233
0	12247	115.660828534854	8232
0	12254	115.684535640061	8231
0	12259	115.693629097165	8230
0	12264	115.709822182533	8229
0	12269	115.723576298221	8228
0	12274	115.758872006913	8225
0	12279	115.771328951672	8224
0	12284	115.792860226977	8223
0	12289	115.854702340131	8218
0	12294	115.915980990228	8214
0	12299	115.98938523587	8208
0	12302	115.997913500977	8208
0	12305	116	8207
0	12328	116.406441766084	8638
0	12329	116.414545493799	8648
0	12332	116.422639850876	8658
0	12335	116.430724858961	8668
0	12338	116.438800539626	8678
0	12341	116.446866914367	8688
0	12344	116.454924004606	8698
0	12347	116.462971831693	8708
0	12350	116.471010416902	8718
0	12357	116.543707053721	8807
0	12362	116.621421634692	8903
0	12367	116.640451738591	8926
0	12379	116.860597458137	9050
0	12387	116.948264393342	9037
0	12392	117	9029
0	12396	117.057443674164	9021
0	12401	117.065203346041	9019
0	12404	117.072964738657	9018
0	12411	117.113453959085	9012
0	12414	117.121221380301	9011
0	12421	117.18608717442	9002
0	12427	117.300320631368	8985
0	12432	117.308799463371	8983
0	12435	117.31659196031	8982
0	12442	117.342887004515	8978
0	12448	117.388152521604	8972
0	12454	117.499762193734	8955
0	12459	117.521673578248	8952
0	12464	117.529493059928	8951
0	12471	117.537313415196	8950
0	12474	117.545134644246	8948
0	12477	117.552957621448	8947
0	12484	117.57874864256	8944
0	12489	117.651334568735	8933
0	12494	117.679928106985	8929
0	12499	117.772313438001	8915
0	12504	117.852458714874	8903
0	12509	117.875025578206	8900
0	12513	118	8881
0	12535	118.4	8859
0	12536	118.407901569026	8866
0	12539	118.415796899502	8873
0	12542	118.423686001271	8880
0	12545	118.431568884154	8887
0	12548	118.439445557947	8894
0	12551	118.447316032424	8901
0	12554	118.455180317336	8908
0	12557	118.46303842241	8915
0	12560	118.470890357351	8922
0	12567	118.501526603061	8949
0	12572	118.562390578531	9003
0	12577	118.622146228269	9056
0	12582	118.75661719769	9175
0	12587	118.781295019622	9197
0	12592	118.827324210777	9237
0	12597	118.84263468914	9251
0	12602	118.887852478816	9291
0	12606	119	9390
0	12621	119.4	9744
0	12622	119.407183908046	9750
0	12625	119.414363395225	9757
0	12628	119.421537731599	9763
0	12631	119.428707658875	9769
0	12634	119.43587318247	9776
0	12637	119.443033575269	9782
0	12644	119.460917591681	9798
0	12649	119.515548941479	9846
0	12655	119.63294886161	9866
0	12660	119.660449229815	9851
0	12665	119.736021417707	9809
0	12670	119.74711556861	9803
0	12675	119.841766310283	9750
0	12680	119.864668112501	9738
0	12685	119.959099760323	9685
0	12689	120	9663
0	12702	120.4	9441
0	12703	120.407414468806	9436
0	12706	120.414832866432	9432
0	12709	120.422254410113	9428
0	12712	120.429679102519	9424
0	12715	120.437106946322	9420
0	12722	120.470667731059	9401
0	12727	120.490198931124	9390
0	12733	120.574880889236	9362
0	12738	120.631028619579	9343
0	12743	120.752238507282	9303
0	12748	120.80815740462	9285
0	12753	120.824328888391	9280
0	12758	120.905393218525	9253
0	12763	120.92845719167	9246
0	12766	120.936028033115	9243
0	12773	120.952353454729	9238
0	12777	121	9222
0	12802	121.4	9091
0	12803	121.407699923001	9088
0	12806	121.41540238779	9086
0	12809	121.423106548037	9083
0	12812	121.43081325287	9081
0	12817	121.438521655028	9078
0	12820	121.446232604576	9076
0	12823	121.45394525332	9073
0	12826	121.461660452262	9071
0	12829	121.469377352273	9068
0	12832	121.477096805295	9066
0	12835	121.484817961262	9063
0	12838	121.492541673057	9061
0	12845	121.575267566272	9033
0	12850	121.596265101836	9027
0	12855	121.705846384289	8991
0	12861	121.752119192102	8982
0	12866	121.850535914111	8971
0	12871	121.899098687309	8966
0	12876	121.952020177729	8960
0	12881	121.969754999003	8958
0	12886	121.990856768361	8956
0	12890	122	8955
0	12905	122.4	8911
0	12906	122.407855459544	8911
0	12909	122.415710919088	8910
0	12914	122.423567260278	8909
0	12917	122.431424483311	8908
0	12920	122.439282588385	8907
0	12929	122.447141575698	8906
0	12932	122.455001445449	8905
0	12935	122.462862197835	8905
0	12938	122.470722950221	8904
0	12941	122.478584585441	8903
0	12948	122.528848304927	8897
0	12953	122.644484072197	8885
0	12958	122.726883604	8876
0	12963	122.734770039331	8875
0	12968	122.742657363275	8874
0	12971	122.750545576031	8873
0	12978	122.784703651464	8870
0	12983	122.861159763177	8861
0	12988	122.896063033932	8857
0	12991	122.903966387212	8856
0	12996	122.911870632921	8856
0	13002	123	8846
0	13016	123.4	8916
0	13017	123.407851054284	8919
0	13022	123.415699467783	8922
0	13025	123.423545242273	8925
0	13028	123.431388379528	8928
0	13031	123.43922888132	8931
0	13034	123.44706674942	8935
0	13041	123.612707785474	8998
0	13046	123.648832718907	9012
0	13052	123.85039495677	8949
0	13055	123.858217059798	8907
0	13061	124	8156
0	13073	124.4	8271
0	13074	124.408463305525	8275
0	13077	124.416922520027	8279
0	13080	124.425377647458	8282
0	13083	124.433829712177	8286
0	13090	124.513948482484	8322
0	13095	124.527971864357	8328
0	13100	124.543066881747	8334
0	13105	124.573710930526	8348
0	13110	124.603289828712	8361
0	13115	124.674108245067	8393
0	13118	124.682448528637	8396
0	13123	124.690785832115	8400
0	13130	124.795102362515	8446
0	13135	124.836873812388	8465
0	13138	124.845143156747	8468
0	13143	124.853409571485	8472
0	13150	124.922819500453	8503
0	13153	124.931051889022	8507
0	13160	124.944660621002	8513
0	13163	124.952883339198	8516
0	13168	124.96110316071	8520
0	13175	124.980478161091	8528
0	13179	125	8537
0	13210	125.4	8715
0	13213	125.408032128514	8718
0	13216	125.416061493047	8722
0	13219	125.42408717523	8725
0	13222	125.432110097866	8729
0	13225	125.440129344057	8732
0	13228	125.448145835124	8736
0	13233	125.456158655637	8739
0	13236	125.464168725439	8743
0	13239	125.472175130563	8747
0	13242	125.480177874361	8750
0	13245	125.488177874361	8754
0	13248	125.496174218889	8757
0	13251	125.504167824005	8761
0	13254	125.51215777949	8764
0	13257	125.520144999937	8768
0	13260	125.528128576579	8771
0	13267	125.621011176978	8813
0	13272	125.668032243868	8833
0	13277	125.676230609123	8837
0	13282	125.687447231745	8842
0	13287	125.769303733069	8878
0	13292	125.789916201768	8887
0	13297	125.834023705486	8907
0	13302	125.85209033828	8915
0	13307	125.894205994179	8934
0	13311	126	8981
0	13326	126.4	9158
0	13327	126.407643590304	9161
0	13330	126.415284677522	9165
0	13333	126.422922429841	9168
0	13336	126.430557682895	9172
0	13341	126.43818960614	9175
0	13344	126.445819033933	9178
0	13347	126.453445967906	9182
0	13354	126.583513300022	9239
0	13359	126.624030406748	9257
0	13364	126.656343887742	9272
0	13369	126.681522625216	9283
0	13374	126.907161891011	9383
0	13378	127	9424
0	13394	127.4	9315
0	13395	127.407514761138	9305
0	13400	127.415037598322	9295
0	13403	127.42256852893	9285
0	13406	127.430107570395	9275
0	13409	127.437654740206	9265
0	13412	127.44521005591	9255
0	13415	127.45277353511	9245
0	13422	127.487829761765	9198
0	13427	127.554370868649	9110
0	13433	127.613538058905	9019
0	13438	127.628995636466	8992
0	13443	127.753045550266	8773
0	13446	127.761024576825	8758
0	13453	127.775916925352	8732
0	13458	127.786704105773	8713
0	13463	127.857685022482	8588
0	13467	128	8336
0	13477	128.4	8523
0	13478	128.408213070515	8537
0	13481	128.416412672249	8551
0	13484	128.424598849304	8564
0	13491	128.496388450456	8684
0	13496	128.651494979165	8942
0	13501	128.705230598652	9032
0	13507	128.899078628826	9281
0	13511	129	9010
0	13529	129.4	8496
0	13530	129.408239171375	8510
0	13533	129.416464788296	8524
0	13536	129.424676895288	8538
0	13539	129.432875536656	8552
0	13542	129.441060756488	8566
0	13545	129.449232598655	8580
0	13548	129.457391106814	8594
0	13555	129.514964614701	8692
0	13560	129.543070277796	8740
0	13565	129.670682821307	8957
0	13568	129.678497937976	8970
0	13576	129.723286175415	9032
0	13581	129.796797835162	9061
0	13584	129.804523251783	9064
0	13591	129.836817470587	9076
0	13596	129.851934320411	9082
0	13601	129.929067345564	9112
0	13606	129.938863812761	9116
0	13610	130	9139
0	13633	130.4	9294
0	13634	130.407531740908	9297
0	13639	130.415061051438	9300
0	13642	130.422587933158	9303
0	13645	130.430112387635	9306
0	13648	130.437634416434	9309
0	13651	130.445154021118	9312
0	13654	130.452671203249	9315
0	13657	130.460185964387	9317
0	13662	130.467699112396	9320
0	13665	130.47520984201	9323
0	13672	130.482718154785	9326
0	13675	130.490224052276	9329
0	13678	130.497727536036	9332
0	13681	130.505228607618	9335
0	13688	130.59543248897	9370
0	13691	130.602903139984	9373
0	13698	130.642407024101	9388
0	13703	130.659685110937	9395
0	13706	130.667135882624	9397
0	13713	130.870106076452	9476
0	13718	130.881577452529	9480
0	13723	130.889103818577	9483
0	13727	131	9526
0	13752	131.4	9749
0	13753	131.407180223613	9745
0	13756	131.41436339447	9740
0	13759	131.421550252786	9735
0	13762	131.428740802349	9730
0	13765	131.435935046953	9725
0	13768	131.443132990398	9720
0	13771	131.450334636489	9715
0	13776	131.457539989037	9710
0	13779	131.464749051859	9705
0	13782	131.471961828778	9701
0	13787	131.479177579732	9696
0	13790	131.486397051679	9691
0	13797	131.498596156593	9682
0	13802	131.599263369385	9614
0	13805	131.606544417856	9609
0	13812	131.65984503994	9573
0	13817	131.748747075171	9513
0	13820	131.7561054269	9508
0	13827	131.803662890794	9476
0	13832	131.962340947429	9368
0	13837	131.970606174724	9362
0	13841	132	9342
0	13846	132.4	9071
0	13847	132.407716900011	9066
0	13854	132.461273351747	9029
0	13857	132.469026148291	9024
0	13864	132.480321999267	9016
0	13869	132.581235384353	8948
0	13874	132.639547231771	8908
0	13879	132.656973087348	8897
0	13884	132.845071313639	8769
0	13889	132.873649081312	8750
0	13892	132.881649081312	8744
0	13899	132.959793792664	8691
0	13903	133	8664
0	13922	133.4	8393
0	13923	133.40834028357	8387
0	13926	133.416686533719	8381
0	13929	133.42503875899	8376
0	13932	133.433395970069	8370
0	13935	133.441759171981	8364
0	13938	133.45012837332	8359
0	13941	133.458502580761	8353
0	13944	133.466882803435	8347
0	13951	133.501956399925	8323
0	13956	133.560128229541	8284
0	13961	133.633428784213	8234
0	13964	133.641930120137	8228
0	13971	133.697823570171	8191
0	13976	133.73766427847	8164
0	13979	133.746238506789	8158
0	13986	133.79195465503	8127
0	13991	133.817182151432	8110
0	13996	133.859429913578	8081
0	14001	133.868592161815	8075
0	14006	133.884580222334	8064
0	14012	133.970851823569	8080
0	14017	133.983327757953	8083
0	14021	134	8088
0	14030	134.4	8197
0	14033	134.40853970965	8199
0	14036	134.41707733619	8202
0	14039	134.42561183997	8204
0	14042	134.434144263178	8206
0	14049	134.479199925077	8219
0	14054	134.553726614789	8239
0	14059	134.593689538646	8250
0	14064	134.851470447549	8320
0	14069	134.889469597353	8330
0	14074	134.937165318522	8343
0	14079	134.959566192379	8350
0	14086	134.967949425912	8352
0	14089	134.976330651966	8354
0	14092	134.984709871502	8356
0	14098	135	8361
0	14109	135.4	8470
0	14110	135.40826446281	8472
0	14113	135.416526974614	8474
0	14116	135.424787536332	8477
0	14119	135.433045174647	8479
0	14126	135.494622772349	8496
0	14131	135.522279221816	8503
0	14136	135.684249127794	8547
0	14141	135.737100723002	8562
0	14144	135.745276382895	8564
0	14151	135.780687895218	8574
0	14154	135.788852112619	8576
0	14161	135.797431817598	8578
0	14166	135.919687427402	8612
0	14171	135.939269407459	8617
0	14176	135.957464938917	8622
0	14180	136	8633
0	14195	136.4	8743
0	14198	136.408006405124	8745
0	14201	136.416010979166	8747
0	14206	136.424013722964	8749
0	14209	136.432014637354	8751
0	14212	136.440013723173	8753
0	14217	136.448010981256	8756
0	14220	136.456005499301	8758
0	14225	136.463998191697	8760
0	14228	136.471989059277	8762
0	14231	136.479978102874	8764
0	14238	136.531940835548	8779
0	14243	136.569259441152	8789
0	14248	136.606768045523	8799
0	14253	136.641278974012	8808
0	14258	136.654838129489	8812
0	14263	136.78636368124	8848
0	14268	136.802188757515	8852
0	14273	136.837192239801	8862
0	14278	136.852116532076	8866
0	14283	136.863047605857	8869
0	14288	136.901046190085	8879
0	14291	136.90892996078	8881
0	14298	136.963151758665	8896
0	14301	136.971020463701	8898
0	14307	137	8906
0	14322	137.4	9015
0	14323	137.407764836384	9017
0	14328	137.415527950502	9020
0	14331	137.423288482653	9022
0	14334	137.431047294446	9024
0	14339	137.438804386645	9026
0	14342	137.446559760011	9028
0	14345	137.454313415306	9030
0	14348	137.46206535329	9032
0	14355	137.485648269388	9039
0	14360	137.51235129502	9046
0	14363	137.520089521861	9048
0	14370	137.57036585364	9062
0	14373	137.578090417754	9064
0	14380	137.588651590919	9067
0	14385	137.669811614742	9089
0	14390	137.687881053874	9094
0	14395	137.735438379555	9107
0	14400	137.757432601496	9113
0	14405	137.827908289439	9132
0	14410	137.911024408792	9155
0	14415	137.934797603904	9161
0	14421	137.977886558353	9173
0	14425	138	9184
0	14448	138.4	9375
0	14449	138.407466666667	9378
0	14452	138.414930944765	9382
0	14455	138.42239204048	9386
0	14458	138.429849956525	9389
0	14461	138.437305489596	9393
0	14466	138.444757847735	9396
0	14471	138.452207826449	9400
0	14474	138.45965463496	9403
0	14477	138.467099067588	9407
0	14480	138.474540334729	9410
0	14483	138.481979229522	9414
0	14486	138.489414963535	9418
0	14493	138.517651731023	9431
0	14498	138.684578098451	9511
0	14503	138.701502501496	9519
0	14508	138.763853383181	9549
0	14513	138.803585396266	9568
0	14518	138.840701687482	9585
0	14523	138.879893878913	9604
0	14528	138.9885235066	9656
0	14532	139	9661
0	14542	139.4	9778
0	14545	139.407158928206	9778
0	14548	139.414317856412	9779
0	14551	139.421476052547	9779
0	14554	139.428634248682	9780
0	14561	139.483256541178	9784
0	14566	139.562076447961	9789
0	14571	139.63812274128	9794
0	14576	139.692058893566	9798
0	14581	139.734223227604	9801
0	14586	139.77762658202	9804
0	14592	139.842513479175	9764
0	14597	139.917069514984	9689
0	14602	139.947615591971	9659
0	14606	140	9607
0	14619	140.4	9209
0	14620	140.407601259637	9201
0	14623	140.415209128347	9194
0	14628	140.42282278943	9186
0	14631	140.430443081178	9179
0	14634	140.438069184239	9171
0	14637	140.445701939664	9163
0	14645	140.553067766526	9053
0	14650	140.560800009981	9044
0	14653	140.568539948061	9035
0	14660	140.594426204084	9005
0	14665	140.62716306557	8968
0	14670	140.639577209737	8953
0	14675	140.764114573208	8810
0	14680	140.780145206076	8791
0	14685	140.789457768671	8781
0	14690	140.849964100878	8711
0	14695	140.857999917661	8702
0	14698	140.866044045448	8693
0	14705	140.881616330957	8675
0	14710	140.984920657394	8556
0	14714	141	8538
0	14738	141.4	8322
0	14741	141.408411439558	8325
0	14744	141.416819847966	8327
0	14747	141.425226236822	8330
0	14750	141.433629598167	8332
0	14753	141.442030942382	8334
0	14756	141.450430270436	8337
0	14761	141.458826576062	8339
0	14764	141.467220867944	8342
0	14767	141.47561214102	8344
0	14772	141.484001402765	8347
0	14775	141.492387649321	8349
0	14778	141.500771886954	8351
0	14781	141.509154116627	8354
0	14786	141.517533336163	8356
0	14793	141.525910550141	8359
0	14796	141.534284757582	8361
0	14803	141.566394760781	8370
0	14808	141.649763712866	8394
0	14813	141.66890209335	8400
0	14818	141.685777479857	8405
0	14823	141.844361799373	8450
0	14828	141.960323157378	8484
0	14832	142	8495
0	14845	142.4	8610
0	14846	142.408130081301	8612
0	14849	142.41625827452	8615
0	14852	142.424383637259	8617
0	14855	142.432507114107	8619
0	14858	142.440628705939	8622
0	14865	142.579011339116	8662
0	14870	142.58749730061	8664
0	14875	142.69664111965	8695
0	14880	142.749342246507	8711
0	14885	142.821765620468	8731
0	14890	142.84232074839	8737
0	14895	142.861134801062	8743
0	14900	142.889261407027	8751
0	14905	142.912010382101	8757
0	14909	143	8783
0	14923	143.4	8876
0	14924	143.407886435331	8864
0	14927	143.415783547244	8851
0	14930	143.423692258124	8839
0	14933	143.431611706025	8826
0	14936	143.439542818647	8814
0	14943	143.492647442966	8730
0	14948	143.614254206713	8538
0	14953	143.649540526647	8482
0	14956	143.65779329722	8469
0	14963	143.666058735879	8456
0	14966	143.674336881574	8443
0	14973	143.690127324186	8418
0	14979	143.804580012254	8325
0	14982	143.812988420662	8340
0	14989	143.851165480335	8412
0	14992	143.859486925889	8427
0	14999	143.868882394849	8445
0	15003	144	8689
0	15024	144.4	9436
0	15025	144.407418397626	9450
0	15028	144.414825805033	9464
0	15033	144.422222254737	9478
0	15038	144.429607779109	9492
0	15041	144.436982410377	9505
0	15044	144.444346955353	9519
0	15047	144.451700668978	9533
0	15050	144.459043583066	9547
0	15053	144.46637572929	9560
0	15056	144.473697905022	9574
0	15059	144.481009373583	9588
0	15067	144.86864446255	9624
0	15070	144.875917945509	9620
0	15075	144.883194452786	9615
0	15083	144.890661038218	9610
0	15088	144.898381481904	9602
0	15093	144.956214818976	9543
0	15097	145	9499
0	15118	145.4	9096
0	15119	145.407695690413	9089
0	15122	145.415397307753	9081
0	15125	145.423105709911	9073
0	15128	145.430820908853	9065
0	15133	145.438542916575	9057
0	15138	145.446271745105	9050
0	15141	145.454006551735	9042
0	15144	145.461748201812	9034
0	15147	145.469496707457	9026
0	15150	145.477252080823	9018
0	15153	145.485014334094	9011
0	15160	145.517287665186	8978
0	15165	145.586709828735	8908
0	15170	145.612621001123	8882
0	15176	145.923924411096	8770
0	15179	145.931906167082	8770
0	15186	145.965467298256	8773
0	15190	146	8776
0	15212	146.4	8891
0	15213	146.407873130132	8895
0	15216	146.415742719789	8900
0	15219	146.423607888328	8904
0	15222	146.431469523548	8908
0	15225	146.439327628622	8913
0	15228	146.447181325469	8917
0	15231	146.455031499294	8922
0	15234	146.462877273784	8926
0	15237	146.470719532354	8930
0	15244	146.545367559311	8972
0	15249	146.579369923392	8991
0	15254	146.609979184804	9009
0	15259	146.663486793786	9039
0	15264	146.699408851034	9059
0	15270	146.730315494662	9075
0	15275	146.84990725102	9025
0	15280	146.986699276642	8968
0	15284	147	8962
0	15301	147.4	8795
0	15302	147.407959067652	8792
0	15305	147.415920851091	8788
0	15308	147.423886258465	8785
0	15311	147.431854385955	8782
0	15314	147.43982523542	8778
0	15317	147.447799717079	8775
0	15322	147.455776925056	8772
0	15325	147.463756861217	8768
0	15332	147.480942190155	8761
0	15337	147.501706072495	8752
0	15342	147.562643737299	8727
0	15347	147.574946950146	8722
0	15352	147.591712582292	8715
0	15357	147.610180267683	8707
0	15360	147.618219776124	8704
0	15367	147.651029174359	8690
0	15372	147.770272356521	8640
0	15377	147.782809724999	8635
0	15382	147.844540056306	8609
0	15387	147.910007186413	8582
0	15392	147.957768696365	8562
0	15395	147.965944356258	8558
0	15401	148	8544
0	15418	148.4	8377
0	15419	148.408356213442	8373
0	15422	148.416716418864	8370
0	15425	148.425079620776	8366
0	15428	148.43344682135	8363
0	15431	148.441817023431	8359
0	15434	148.450191230872	8356
[...]
6	39102	376.41477127601	0.401774970812
6	39107	376.422767620538	0.149657915575
6	39110	376.430765792384	0.13091967022
6	39113	376.438764878203	0.115458966239
6	39116	376.446764878203	0.083109031261
6	39119	376.454765792593	0.060237890165
6	39122	376.462767621582	0.048080042767
6	39125	376.470771280397	0.048231495055
6	39130	376.517881454856	0.008009153318
6	39135	376.579815527663	0.008018327606
6	39140	376.612118949745	0.008022003209
6	39145	376.63951730754	0.008025682183
6	39150	376.657772243866	0.008028443629
6	39155	376.739014731135	0.008039508441
6	39160	376.760222139721	0.008042279412
6	39165	376.803282851593	0.008048752443
6	39184	377.030083995381	0.008079409049
6	39187	377.038164337064	0.013973450307
6	39194	377.0864448598	0.008087810514
6	39199	377.106842658004	0.008090614887
6	39204	377.133200657236	0.008094357077
6	39212	377.215880393251	0.008105604447
6	39217	377.329474094808	0.008121591832
6	39222	377.387737498295	0.00812913715
6	39228	377.460073934658	0.008139534884
6	39233	377.510136509803	0.008146165484
6	39238	377.610131875698	0.008160410352
6	39243	377.665953563616	0.008168028005
6	39248	377.67473965301	0.008169934641
6	39253	377.721193521552	0.008175659893
6	39258	377.802285061702	0.008187134503
6	39263	377.853531693032	0.008194802154
6	39268	377.886243802495	0.008199601734
6	39275	377.93468517257	0.008206330598
6	39278	377.942892465336	0.012884561757
6	39285	377.976337150653	0.008212106992
6	39288	377.984550221168	0.01159761226
6	39320	378.408217891524	0.364376625295
6	39325	378.416428072148	0.32999156736
6	39328	378.424630556329	0.315132534929
6	39333	378.432825358483	0.298717702625
6	39336	378.441012492986	0.274664281688
6	39339	378.449191974173	0.279170975612
6	39342	378.45736381634	0.261680594182
6	39347	378.465528033741	0.24117717287
6	39350	378.473684640593	0.237597607295
6	39353	378.48183365107	0.167199860766
6	39358	378.489975079309	0.155919077009
6	39361	378.498108939407	0.151948614942
6	39366	378.50623524542	0.157245605545
6	39371	378.514354011368	0.10125962851
6	39374	378.522465251229	0.089679639682
6	39377	378.530568978944	0.070000189129
6	39382	378.538665208414	0.053333784871
6	39385	378.546753953503	0.041495762887
6	39390	378.554835228035	0.044675217271
6	39393	378.562909045797	0.025705813133
6	39396	378.570975420538	0.021319936627
6	39401	378.608205271457	0.008033050264
6	39406	378.622545030208	0.008019246191
6	39411	378.646662429317	0.007998171846
6	39416	378.659554801704	0.007986309184
6	39421	378.697641502289	0.007952738014
6	39428	378.719178776432	0.007933809362
6	39433	378.727105398559	0.011971076991
6	39436	378.73502484646	0.012065079363
6	39441	378.785364073532	0.007874901564
6	39448	378.851053251413	0.007818608288
6	39451	378.858864879579	0.007822145223
6	39456	378.879814270281	0.007794232268
6	39463	378.889057781278	0.007786429366
6	39466	378.896837287835	0.009039698062
6	39471	378.955160090951	0.007730535616
6	39477	379.000143549867	0.007693153094
6	39494	379.407554878612	0.179702023783
6	39497	379.414967777055	0.177213823424
6	39502	379.422382245861	0.067662408541
6	39505	379.429798285696	0.072087958617
6	39508	379.437215897225	0.048936474357
6	39513	379.444635081115	0.047441642801
6	39516	379.452055838032	0.036827225146
6	39519	379.459478168644	0.017013644206
6	39524	379.479332210314	0.00742626777
6	39529	379.538473176772	0.007438894793
6	39534	379.57949867277	0.007447600809
6	39539	379.630800442922	0.007457916045
6	39546	379.646129088621	0.007461095715
6	39549	379.653591775188	0.014662803563
6	39554	379.71035470791	0.007474639616
6	39561	379.78919358705	0.007491438356
6	39564	379.796686629225	0.013765843347
6	39570	379.810867189057	0.007496251874
6	39584	379.953786236937	0.00752688172
6	39592	380.03834517239	0.035158506842
6	39601	380.075472122725	0.007552870091
6	39604	380.083026623049	0.013446427708
6	39610	380.180357366331	0.007575757576
6	39618	380.205389406231	0.007581501137
6	39626	380.2260524301	0.007579038545
6	39629	380.233630648136	0.014166989837
6	39635	380.361427197546	0.007557762902
6	39641	380.44614912193	0.007544729468
6	39646	380.67698336378	0.007509118215
6	39651	380.687330943529	0.007507507508
6	39656	380.697218882815	0.007506702413
6	39661	380.753337038439	0.007497857755
6	39666	380.79603946404	0.007491438356
6	39671	380.812258937965	0.007489033915
6	39678	380.913030282126	0.007473841555
6	39683	380.92050252807	0.007674498848
6	39686	380.927973976464	0.012651374874
6	39707	381.407399577167	0.358902575133
6	39710	381.414797590272	0.291535021548
6	39713	381.422194821594	0.253735802339
6	39716	381.429590489845	0.259352527724
6	39719	381.436985376809	0.156096002454
6	39722	381.44437948265	0.110320419758
6	39729	381.451772026741	0.09940559429
6	39732	381.459163790205	0.101767195884
6	39735	381.466553992908	0.02060796283
6	39738	381.473943415477	0.022705131995
6	39743	381.600701544219	0.007370748657
6	39748	381.617650071268	0.007368421053
6	39753	381.642787730806	0.007364544976
6	39758	381.666178388761	0.00736144705
6	39764	381.783402366799	0.007346767422
6	39769	381.81866958548	0.007342143906
6	39776	381.83907213533	0.007339834329
6	39779	381.846411200123	0.011180154206
6	39784	381.862191080893	0.007337526205
6	39789	381.887039648324	0.007334450964
6	39798	382.407272727273	0.254729169839
6	39801	382.414544699016	0.104212508629
6	39806	382.469854472153	0.007265179035
6	39811	382.502338422784	0.007261410788
6	39816	382.51531551722	0.007259904584
6	39821	382.700563176169	0.007238134629
6	39826	382.791314976649	0.007227671657
6	39831	382.937163358686	0.007211290821
6	39836	382.958122710923	0.007208320461
6	39841	382.974039555455	0.007206836199
6	39854	383.407157464213	0.246580256023
6	39857	383.414314196653	0.169532931063
6	39860	383.421470197471	0.081893685667
6	39863	383.428624735492	0.067775814391
6	39868	383.485649077256	0.00714869281
6	39873	383.537497158072	0.007142128354
6	39878	383.580120279624	0.007137758744
6	39883	383.59983771211	0.007135575943
6	39888	383.617253252882	0.007133394477
6	39893	383.628201679735	0.007131940907
6	39898	383.639203682562	0.007131214344
6	39903	383.682462744733	0.007126132546
6	39908	383.719983643088	0.00712178248
6	39913	383.815062170369	0.007110930516
6	39918	383.870719711745	0.007105156313
6	39946	384.407420756917	0.386428227209
6	39949	384.414852543731	0.326161173852
6	39952	384.422295393279	0.318377929525
6	39957	384.429749338546	0.316492305664
6	39960	384.437214412664	0.267057187722
6	39963	384.444690648913	0.236151955878
6	39966	384.45217888169	0.156386226596
6	39969	384.459678346014	0.135240902769
6	39972	384.467189075628	0.130859775922
6	39975	384.474711104427	0.126707953543
6	39978	384.482244466459	0.098365777914
6	39981	384.489790009199	0.065655701526
6	39986	384.549739296849	0.00763858577
6	39991	384.565907460601	0.007664513303
6	39996	384.666151531137	0.00782647585
6	40003	384.704507696571	0.007890880397
6	40008	384.71241194228	0.015227411096
6	40011	384.720329598654	0.011981055453
6	40017	384.765221493145	0.007942811755
6	40022	384.880228504646	0.007849293564
6	40027	384.930635329167	0.007809013833
6	40032	384.951251064791	0.007792496939
6	40053	385.407447600809	0.227964329668
6	40056	385.41488965907	0.188283044568
6	40061	385.422326183026	0.137399885534
6	40064	385.42975796984	0.138330054025
6	40067	385.43718423761	0.106956938596
6	40070	385.444604994527	0.064662758503
6	40073	385.452020248764	0.062026675133
6	40076	385.459430008476	0.053560952393
6	40079	385.466835065072	0.045636899639
6	40084	385.585305616271	0.007321409894
6	40089	385.670942429633	0.007261410788
6	40096	385.695982390588	0.007244876837
6	40099	385.703222022401	0.010878819122
6	40106	385.746302786732	0.007210548002
6	40111	385.75350813928	0.013702397251
6	40114	385.760709044537	0.008747890809
6	40119	385.80638628255	0.007169927276
6	40124	385.905156446963	0.007104435197
6	40130	385.961495243048	0.007071421356
6	40149	386.407079288026	0.371088435368
6	40152	386.414158576052	0.290807664874
6	40155	386.421237864078	0.283792984855
6	40158	386.428317868124	0.253097963024
6	40161	386.43539787217	0.139194762615
6	40164	386.442477876216	0.053899740856
6	40167	386.449557880262	0.058930570586
6	40172	386.484916693191	0.00708072021
6	40177	386.55475013441	0.007082152975
6	40182	386.579434386729	0.007082152975
6	40189	386.610047464407	0.007082869574
6	40192	386.617130333981	0.009405711541
6	40197	386.705039536238	0.007085020243
6	40202	386.777015994992	0.007086454748
6	40207	386.808335859168	0.007086454748
6	40214	386.976164505025	0.007090043553
6	40217	386.983254548578	0.01078851208
6	40232	387.407097951734	0.329297392279
6	40235	387.414195903468	0.323550920112
6	40238	387.421293855202	0.280488420274
6	40243	387.428391806936	0.028561097875
6	40246	387.43548975867	0.030608162061
6	40249	387.442588430204	0.017370217678
6	40254	387.477164724013	0.007098671534
6	40261	387.485901284625	0.007099391481
6	40264	387.493000676106	0.013407528402
6	40269	387.568645252499	0.007100831812
6	40276	387.613467495825	0.007101552196
6	40279	387.620569048021	0.011897251628
6	40286	387.705474444855	0.007102993404
6	40289	387.712577438259	0.010770158307
6	40294	387.776545794668	0.007104435197
6	40299	387.794203346229	0.007105156313
6	40306	387.842020409248	0.007105877576
6	40311	387.849126286824	0.011783694304
6	40314	387.8562321644	0.012466723813
6	40332	388.407507507508	0.291137353188
6	40335	388.415021461995	0.289165417658
6	40338	388.422541874543	0.237944270588
6	40341	388.430068756263	0.152217644929
6	40344	388.437602118295	0.123095608493
6	40349	388.445141971806	0.085874636601
6	40352	388.452688327994	0.011640524088
6	40357	388.485518645526	0.007574937777
6	40362	388.539873192194	0.00762195122
6	40367	388.55155144095	0.007632755425
6	40372	388.561073323323	0.007641087218
6	40377	388.588715036644	0.007665352606
6	40383	388.601125563192	0.007676280294
6	40388	388.644657292357	0.00772797527
6	40393	388.745918539376	0.007857223033
6	40398	388.79543923931	0.007922136713
6	40403	388.816012326	0.007949125596
6	40408	388.876870100487	0.008030285649
6	40413	388.906588634526	0.00807102502
6	40418	388.975650212614	0.008166122259
6	40424	389.000492646334	0.008200562324
6	40449	389.408224889789	0.36744063092
6	40452	389.415943491619	0.372487621476
6	40455	389.42364934807	0.371737981925
6	40458	389.431341655762	0.318463492379
6	40461	389.439021304692	0.287063698273
6	40464	389.446687496785	0.255895397487
6	40467	389.454341115853	0.259660975126
6	40470	389.461981369073	0.210929018196
6	40473	389.469609134138	0.173879240432
6	40476	389.477223623423	0.165191196386
6	40481	389.513726305078	0.007554500324
6	40486	389.539804125925	0.007511535572
6	40491	389.555326559575	0.007486631016
6	40496	389.566008870706	0.007469056765
6	40501	389.590835157105	0.007429420505
6	40506	389.618001047164	0.007386303683
6	40511	389.633887520437	0.00736144705
6	40516	389.68679799065	0.00727953411
6	40521	389.727661045811	0.007217238891
6	40538	389.872335370061	0.007152344947
6	40541	389.876762940985	0.0093411898
6	40548	389.929047584449	0.007174336374
6	40562	390.184468561104	0.007278020378
6	40567	390.221722566636	0.00729318608
6	40574	390.301422238805	0.007326007326
6	40579	390.328357922688	0.007337526205
6	40587	390.376412800277	0.007357578306
6	40590	390.383773473253	0.009140955455
6	40596	390.465759875393	0.007394886964
6	40601	390.49818975808	0.007408975445
6	40606	390.510708728846	0.007414468806
6	40611	390.519139200557	0.007417611529
6	40616	390.616930538638	0.007459505541
6	40621	390.660585753109	0.007478632479
6	40626	390.866186406555	0.007569204152
6	40631	390.931727603724	0.007597959405
6	40636	390.982215797392	0.007620291748
6	40657	391.407816862088	0.286821774944
6	40660	391.415637217356	0.253278542401
6	40663	391.423461943491	0.243493812692
6	40666	391.431290169839	0.221306081364
6	40669	391.439121899532	0.203853739103
6	40672	391.446957135708	0.160236711963
6	40675	391.454796759406	0.157973467888
6	40680	391.462639896661	0.112419700726
6	40683	391.470486550624	0.015104019067
6	40688	391.503764305616	0.007862518252
6	40693	391.590691539301	0.007904245709
6	40698	391.662531746962	0.007939208348
6	40703	391.737142670398	0.007976298997
6	40710	391.759013846138	0.007987220447
6	40713	391.767004713718	0.013028257354
6	40718	391.845359220347	0.008029364533
6	40723	391.886057153728	0.008049678013
6	40728	391.936517414225	0.008075680665
6	40733	391.949918799662	0.008082207597
6	40740	391.971130900459	0.008093421205
6	40743	391.979228066451	0.009816801956
6	40748	391.987392127767	0.008100914246
6	40785	392.408321445554	0.352955881563
6	40788	392.416646849931	0.328425969162
6	40791	392.424977208136	0.324870023462
6	40794	392.433311533651	0.302941229728
6	40797	392.44165082362	0.276541924711
6	40800	392.449994089413	0.267433990804
6	40803	392.458342330319	0.238444669526
6	40806	392.46669455559	0.202043881809
6	40809	392.475051766669	0.198406821314
6	40812	392.483412970682	0.206497414279
6	40815	392.491779171232	0.180974211129
6	40820	392.500149373313	0.169586967496
6	40823	392.508524582693	0.175248875929
6	40826	392.516903802229	0.131270490052
6	40829	392.525288039862	0.139651104884
6	40832	392.533677301607	0.14672969434
6	40837	392.542070586979	0.048975485861
6	40840	392.550468907315	0.014406274904
6	40845	392.571329564677	0.008409418549
6	40850	392.594960815465	0.008422572494
6	40855	392.714010176662	0.008487935007
6	40860	392.784936904575	0.008528265107
6	40865	392.819245100019	0.008547008547
6	40870	392.831191020437	0.008554319932
6	40875	392.859409989026	0.008570029383
6	40880	392.945639826578	0.008619628125
6	40885	392.963191996516	0.008629191321
6	40892	392.974784369556	0.008636644047
6	40895	392.983425278086	0.013016597755
6	40924	393.407534983854	0.39049621884
6	40929	393.415067535237	0.379497708146
6	40932	393.422597655719	0.375992939148
6	40937	393.430125346869	0.336635939513
6	40940	393.437650610253	0.304547008658
6	40943	393.445173447437	0.24013014298
6	40946	393.452694668024	0.215558239969
6	40949	393.460213465016	0.184160786623
6	40952	393.467729839976	0.17900199759
6	40957	393.475243794463	0.115522186672
6	40960	393.482755330035	0.079221494401
6	40963	393.49026444825	0.078146598335
6	40966	393.497771955758	0.073176324948
6	40971	393.5052770485	0.036919187521
6	40974	393.512779728028	0.008871181117
6	40979	393.618488988672	0.007470651014
6	40984	393.715656667619	0.007442058261
6	40989	393.727945196025	0.007438104346
6	40994	393.82765523364	0.007408975445
6	40999	393.840568414131	0.007405056596
6	41004	393.892656695002	0.007389422569
6	41009	393.961638668213	0.007369196758
6	41014	393.992934867156	0.007360672976
6	41033	394.40724187875	0.338086914402
6	41038	394.414481510563	0.289985728852
6	41041	394.421719645192	0.28296983548
6	41044	394.428955535206	0.207095178117
6	41049	394.436189181997	0.194187659545
6	41052	394.443420586956	0.123031027288
6	41055	394.450650498131	0.080308642898
6	41060	394.457878169788	0.047788026761
6	41063	394.465103603314	0.029602699257
6	41066	394.472327545522	0.018461458954
6	41071	394.509988628554	0.007212776919
6	41076	394.563595325408	0.007197943445
6	41083	394.59788734728	0.00718833436
6	41086	394.605074205596	0.013416585357
6	41091	394.673109274117	0.007167724759
6	41096	394.846384288943	0.007120333638
6	41103	394.940751525199	0.007983576642
6	41108	394.960759443602	0.007989955485
6	41141	395.408132915069	0.35567189299
6	41146	395.416268665883	0.336784703791
6	41149	395.424407254419	0.297646959183
6	41152	395.43254773587	0.266092308025
6	41155	395.440691058346	0.226822805857
6	41160	395.44883722383	0.171767200143
6	41164	395.456986234307	0.150056450436
6	41167	395.465134296232	0.149380388247
6	41170	395.473277618708	0.156123586771
6	41173	395.481415261117	0.140691823116
6	41176	395.489547231377	0.131048567375
6	41179	395.49767353739	0.119972531529
6	41182	395.505795129222	0.124803277956
6	41185	395.513911071251	0.130040253554
6	41188	395.522021371332	0.109356984557
6	41191	395.530126037304	0.087216677846
6	41198	395.545688426323	0.008094357077
6	41201	395.553778106203	0.011580421427
6	41206	395.595675792765	0.008061729817
6	41211	395.702526809784	0.007992692396
6	41216	395.758768981742	0.007956353717
6	41221	395.796461384649	0.007932011331
6	41226	395.806868335598	0.007925724638
6	41231	395.89194932765	0.007872244714
6	41236	395.907126999883	0.007862518252
6	41241	395.95236056105	0.007834359261
6	41246	395.961259758864	0.00782910189
6	41268	396.408371203061	0.317676022322
6	41271	396.416754436594	0.233582804029
6	41275	396.42515074222	0.237716074133
6	41278	396.433546040853	0.229664427685
6	41281	396.441932287409	0.172209320077
6	41284	396.450309501387	0.139272452145
6	41289	396.458677702224	0.090241594618
6	41294	396.467036909294	0.090993997051
6	41297	396.475388138118	0.020058534189
6	41300	396.483730409599	0.021781979208
6	41305	396.512795921158	0.008311564949
6	41310	396.534127861415	0.008289909995
6	41315	396.552046865287	0.008271298594
6	41320	396.572075659714	0.008249852681
6	41325	396.590787566858	0.008231420508
6	41330	396.610705661974	0.008211143695
6	41335	396.719888874475	0.008100914246
6	41340	396.765775394698	0.008056162965
6	41345	396.787640596537	0.008034894399
6	41350	396.806611341639	0.008016491067
6	41355	396.890661526489	0.007935608208
6	41360	396.963801710486	0.007866052365
6	41388	397.407794232268	0.379258336835
6	41391	397.415598892765	0.382310594323
6	41394	397.423414009434	0.354450180419
6	41397	397.431238735569	0.342638637526
6	41402	397.439073971745	0.228909903652
6	41405	397.446919746235	0.181444650452
6	41408	397.454776087425	0.171413007672
6	41411	397.46264213979	0.133096659129
6	41414	397.470518813583	0.1406453052
6	41417	397.478406137527	0.142168474671
6	41420	397.486304140461	0.079179031406
6	41423	397.494212851341	0.058143805384
6	41428	397.516369373498	0.007938308006
6	41433	397.53489055496	0.007962689114
6	41438	397.545804870949	0.007978117164
6	41443	397.595839671053	0.008046901943
6	41450	397.680508388036	0.008165169719
6	41453	397.688685002917	0.009386136082
6	41458	397.785561346177	0.008317490494
6	41463	397.841163142471	0.008400336013
6	41468	397.894759841677	0.008481764207
6	41473	397.925973857078	0.008530343651
6	41478	397.962679915787	0.008587903325
6	41483	397.978776871324	0.008613264427
6	41507	398.40849823965	0.388828332097
6	41510	398.416992354442	0.328516334481
6	41513	398.425482348378	0.286360920266
6	41516	398.433967196863	0.284438572587
6	41519	398.442447933476	0.198411221118
6	41522	398.4509245622	0.198630086185
6	41525	398.459397087012	0.194077445214
6	41528	398.46786448752	0.201771092961
6	41531	398.476327793045	0.085785367239
6	41536	398.497766716103	0.008452064719
6	41541	398.647358941085	0.008376211559
6	41546	398.681241619693	0.00835920707
6	41551	398.693661851348	0.008353221957
6	41558	398.730001447506	0.008335317933
6	41563	398.738331805711	0.01110381884
6	41566	398.746658200382	0.013335241441
6	41573	398.797605034318	0.00830170778
6	41578	398.805901822276	0.010896584953
6	41581	398.814194678573	0.013197790395
6	41586	398.829589895129	0.008285984848
6	41591	398.843904271716	0.008278145695
6	41596	398.880194039344	0.008260561718
6	41601	398.889155735762	0.008256664308
6	41606	398.949469876805	0.008226583617
6	41631	399.408010069802	0.369058720521
6	41636	399.416016474926	0.342480678246
6	41641	399.424019218724	0.230685169324
6	41644	399.432018304543	0.14962593716
6	41647	399.440013735725	0.138828136536
6	41650	399.448005515609	0.123127980961
6	41653	399.455993647527	0.110964972509
6	41656	399.463978134809	0.117524959463
6	41659	399.471958980779	0.094302140705
6	41662	399.479936188756	0.074509788381
6	41665	399.487909762056	0.075172152783
6	41670	399.495879703989	0.078700390504
6	41673	399.503846017862	0.010731828644
6	41678	399.520506765377	0.007958162801
6	41683	399.558571163875	0.007941009643
6	41688	399.768980362387	0.007846653963
6	41693	399.786572815645	0.007839623698
6	41698	399.883899582175	0.007796836712
6	41703	399.916765573108	0.007782101167
6	41708	399.93024872915	0.007776049767
6	41713	399.97515384636	0.007757092199
6	41718	399.998720780459	0.007746790615

