file 31435841 1609663435                                        
version 2
run Exponential-selection-capacity-exponential-interarrival-time-1-20210103-09:43:45-12448
attr configname Exponential-selection-capacity-exponential-interarrival-time
attr datetime 20210103-09:43:45
attr experiment Exponential-selection-capacity-exponential-interarrival-time
attr inifile aerocom.ini
attr iterationvars $0=1
attr iterationvarsf 1-
attr measurement $0=1
attr network Aerocom
attr processid 12448
attr repetition 0
attr replication #0
attr resultdir results
attr runnumber 1
attr seedset 0
param **.t 0.5s
param **.k 0.5s
param **.dataLink[*].s "70 byte"
param **.dataLink[*].X 1
param **.nDL 1
param **.dataLink[*].dimPoolMax 100
param **.dataLink[*].dimPoolMin 10
param **.tDistribution "\"exponential\""
param **.aircraft[*].m 1s
param **.aircraft[*].linkSelector.DLMaxCapacity 0
param **.aircraft[*].linkSelector.trasmitting false
param **.operationMode 0

vector 0 Aerocom.aircraft[0].dataLink[0] queueLength:vector ETV
attr "" ""
attr source computeQueueLength
vector 1 Aerocom.aircraft[0].dataLink[0] waitingTime:vector ETV
attr "" ""
attr source computeWaitingTime
vector 2 Aerocom.aircraft[0].dataLink[0] responseTime:vector ETV
attr "" ""
attr source computeResponseTime
0	1245 1012932 148561 390311 10000.335380543637 26319.464179132675 32768 0 25 59766 350140
1	1014177 1254946 148561 390337 10000.335380543637 26321.742462656575 32768 -3e-012 14.060135921375 29747.144648521 74825.889484629
2	2269123 1280624 148561 390337 10000.335380543637 26321.742462656575 32768 -3e-012 14.636125747284 57090.144648521 183753.5536377
0	3549747 1012949 390323 631768 26320.654348163831 42626.805892038358 32768 0 21 61531 365683
1	4562696 1266776 390339 631788 26321.75197406878 42627.833395020938 32768 -6e-012 10.894918638176 30746.41342546 78757.400326519
2	5829472 1298101 390339 631788 26321.75197406878 42627.833395020938 32768 -6e-012 13.668138471426 58364.413425462 191584.62202353
0	7127573 1012935 631776 872875 42626.988541140419 58847.523085822318 32768 0 25 61274 364350
1	8140508 1273307 631805 872935 42628.313660135932 58852.141655971135 32768 -4e-012 11.614727692692 30648.231514139 80423.242829744
2	9413815 1305814 631805 872935 42628.313660135932 58852.141655971135 32768 -4e-012 13.537183361419 57862.23151414 192137.20479737
0	10719629 1028767 872882 1115273 58848.041532348462 75301.923510937212 32768 0 32 60066 361970
1	11748396 1288428 872940 1115274 58852.294697576749 75301.939255140966 32768 -1.2e-011 13.042254229775 30036.443822214 77703.972763257
2	13036824 1323083 872940 1115274 58852.294697576749 75301.939255140966 32768 -1.2e-011 15.339777416313 57165.443822214 187229.09159005
0	14359907 1045684 1115284 1357764 75302.243373671363 91769.385324265298 32768 0 23 60177 355157
1	15405591 1307359 1115284 1357765 75302.243373671363 91769.565391726243 32768 -8e-012 9.948951315535 30252.044448969 76958.890217538
2	16712950 1342725 1115284 1357765 75302.243373671363 91769.565391726243 32768 -8e-012 12.732786449827 57748.044448969 188646.99584536
0	18055675 1062378 1357771 1600363 91770.205778160665 108287.039274660405 32768 0 24 59508 351674
1	19118053 1323929 1357785 1600363 91771.972951827426 108287.039274660405 32768 -8e-012 9.647556962207 29423.954150401 74029.398597016
2	20441982 1359524 1357785 1600363 91771.972951827426 108287.039274660405 32768 -8e-012 12.652001353056 56057.954150401 178851.78160261
0	21801506 1078620 1600369 1842437 108287.34256221346 124656.625134461921 32768 0 30 60577 367337
1	22880126 1339767 1600389 1842459 108288 124658 32768 -8e-012 12.803367745898 30351.559359697 78565.589387957
2	24219893 1374329 1600389 1842459 108288 124658 32768 -8e-012 15.127289473387 57101.559359697 186213.30534307
0	25594222 1078519 1842449 2085647 124657.390967877016 141264.539999955219 32768 0 25 60915 358949
1	26672741 1346905 1842465 2085647 124658.975641778452 141264.539999955219 32768 -2.4e-011 9.58755648416 31118.984749828 79831.683189138
2	28019646 1380320 1842465 2085647 124658.975641778452 141264.539999955219 32768 -2.4e-011 13.483120778024 58169.984749827 190161.86655336
0	29399966 577219 2085654 2215059 141265.128028657286 149999.848571743832 17535 0 27 32399 194703
1	29977185 720670 2085657 2215044 141265.672948875616 149999 17528 -2.4e-011 10.613509255535 16120.383824617 40967.620544861
2	30697855 737984 2085657 2215044 141265.672948875616 149999 17528 -2.4e-011 13.676847082982 30722.383824617 99343.928738856

