file 30833853 1609663435                                        
version 2
run Exponential-selection-capacity-exponential-interarrival-time-5-20210103-09:43:45-6176
attr configname Exponential-selection-capacity-exponential-interarrival-time
attr datetime 20210103-09:43:45
attr experiment Exponential-selection-capacity-exponential-interarrival-time
attr inifile aerocom.ini
attr iterationvars $0=20
attr iterationvarsf 20-
attr measurement $0=20
attr network Aerocom
attr processid 6176
attr repetition 0
attr replication #0
attr resultdir results
attr runnumber 5
attr seedset 0
param **.t 0.5s
param **.k 0.5s
param **.dataLink[*].s "70 byte"
param **.dataLink[*].X 20
param **.nDL 1
param **.dataLink[*].dimPoolMax 100
param **.dataLink[*].dimPoolMin 10
param **.tDistribution "\"exponential\""
param **.aircraft[*].m 1s
param **.aircraft[*].linkSelector.DLMaxCapacity 0
param **.aircraft[*].linkSelector.trasmitting false
param **.operationMode 0

vector 0 Aerocom.aircraft[0].dataLink[0] queueLength:vector ETV
attr "" ""
attr source computeQueueLength
vector 1 Aerocom.aircraft[0].dataLink[0] waitingTime:vector ETV
attr "" ""
attr source computeWaitingTime
vector 2 Aerocom.aircraft[0].dataLink[0] responseTime:vector ETV
attr "" ""
attr source computeResponseTime
0	1247 1012601 148790 390812 10000.335380543637 26319.464179132675 32768 0 24 53327 267985
1	1013848 1222296 148790 390838 10000.335380543637 26321.742462656575 32768 -3e-012 8.334287969197 26794.740057541 55603.327098144
2	2236144 1248870 148790 390838 10000.335380543637 26321.742462656575 32768 -3e-012 12.691204716748 54949.740057542 165019.88609644
0	3485014 1012563 390824 632503 26320.654348163831 42626.805892038358 32768 0 18 54558 273572
1	4497577 1233337 390840 632544 26322 42629 32768 -6e-012 7.547375889948 27229.383804307 56983.036992951
2	5730914 1264929 390840 632544 26322 42629 32768 -6e-012 10.556018590839 55408.383804309 168034.83070138
0	6995843 1012523 632508 874047 42626.988541140419 58847.523085822318 32768 0 17 53610 261090
1	8008366 1234747 632545 874087 42629 58850.861388681631 32768 -4e-012 7.714988243288 26650.304425073 54546.174440183
2	9243113 1268679 632545 874087 42629 58850.861388681631 32768 -4e-012 9.805759155791 54814.304425075 165179.6319315
0	10511792 1028479 874056 1116739 58848.041532348462 75301.923510937212 32768 0 19 52180 257538
1	11540271 1251584 874093 1116749 58851 75303 32768 -1.2e-011 8.657238351632 26088.475026273 53145.883843608
2	12791855 1287557 874093 1116749 58851 75303 32768 -1.2e-011 10.963011098112 54092.475026273 160383.66461842
0	14079412 1045325 1116746 1359408 75302.243373671363 91769.385324265298 32768 0 22 55823 289127
1	15124737 1269502 1116751 1359409 75303 91770 32768 -8e-012 9.52531072688 27905.644462924 60632.091768408
2	16394239 1305233 1116751 1359409 75303 91770 32768 -8e-012 11.40907040908 56145.644462924 173449.26397834
0	17699472 1061884 1359415 1602412 91770.205778160665 108287.039274660405 32768 0 16 51037 242903
1	18761356 1288363 1359425 1602412 91771 108287.039274660405 32768 -8e-012 6.989144653405 25397.041138487 49142.391410267
2	20049719 1325410 1359425 1602412 91771 108287.039274660405 32768 -8e-012 11.174826099673 52865.041138487 152166.20456779
0	21375129 1078203 1602418 1844827 108287.34256221346 124656.625134461921 32768 0 22 54673 276821
1	22453332 1304029 1602437 1844854 108288 124658.406025146646 32768 -8e-012 8.412456474544 27136.19072553 57525.559145759
2	23757361 1339159 1602437 1844854 108288 124658.406025146646 32768 -8e-012 12.889348713296 54702.190725529 165926.44737642
0	25096520 1078042 1844834 2088440 124657.390967877016 141264.539999955219 32768 0 19 52694 251398
1	26174562 1311973 1844856 2088454 124658.406025146646 141265.776019847672 32768 -2.4e-011 7.460095611056 26742.068416625 54432.400215637
2	27486535 1346526 1844856 2088454 124658.406025146646 141265.776019847672 32768 -2.4e-011 11.836993358848 54772.068416624 163714.51136346
0	28833061 576961 2088449 2218054 141265.128028657286 149999.848571743832 17535 0 18 28487 139949
1	29410022 702950 2088455 2218055 141265.776019847672 150000 17529 -2.4e-011 9.429508418304 14278.158788055 29985.688204996
2	30112972 720879 2088455 2218055 141265.776019847672 150000 17529 -2.4e-011 12.280237295676 29265.158788055 88367.818329186

