file 30829926 1609663445                                        
version 2
run Exponential-selection-capacity-exponential-interarrival-time-6-20210103-09:43:56-6176
attr configname Exponential-selection-capacity-exponential-interarrival-time
attr datetime 20210103-09:43:56
attr experiment Exponential-selection-capacity-exponential-interarrival-time
attr inifile aerocom.ini
attr iterationvars $0=50
attr iterationvarsf 50-
attr measurement $0=50
attr network Aerocom
attr processid 6176
attr repetition 0
attr replication #0
attr resultdir results
attr runnumber 6
attr seedset 0
param **.t 0.5s
param **.k 0.5s
param **.dataLink[*].s "70 byte"
param **.dataLink[*].X 50
param **.nDL 1
param **.dataLink[*].dimPoolMax 100
param **.dataLink[*].dimPoolMin 10
param **.tDistribution "\"exponential\""
param **.aircraft[*].m 1s
param **.aircraft[*].linkSelector.DLMaxCapacity 0
param **.aircraft[*].linkSelector.trasmitting false
param **.operationMode 0

vector 0 Aerocom.aircraft[0].dataLink[0] queueLength:vector ETV
attr "" ""
attr source computeQueueLength
vector 1 Aerocom.aircraft[0].dataLink[0] waitingTime:vector ETV
attr "" ""
attr source computeWaitingTime
vector 2 Aerocom.aircraft[0].dataLink[0] responseTime:vector ETV
attr "" ""
attr source computeResponseTime
0	1247 1012730 148736 390723 10000.335380543637 26319.464179132675 32768 0 20 56235 299705
1	1013977 1221248 148736 390738 10000.335380543637 26321 32768 -3e-012 7.682698582448 27756.617610537 59262.241813578
2	2235225 1247238 148736 390738 10000.335380543637 26321 32768 -3e-012 10.930595850636 55968.617610538 170663.2108163
0	3482463 1012479 390736 632490 26320.654348163831 42626.805892038358 32768 0 17 53009 258193
1	4494942 1233667 390739 632530 26321 42629 32768 -6e-012 6.611706712394 26147.039141899 52495.951959711
2	5728609 1266294 390739 632530 26321 42629 32768 -6e-012 10.21892785232 53964.0391419 158739.95079852
0	6994903 1012500 632495 873970 42626.988541140419 58847.523085822318 32768 0 22 53131 260143
1	8007403 1236727 632541 874004 42629.135259475182 58849.572334331617 32768 -4e-012 7.601668028538 26467.031544217 54188.59036656
2	9244130 1270498 632541 874004 42629.135259475182 58849.572334331617 32768 -4e-012 11.75418146596 54461.031544218 162200.80092334
0	10514628 1028462 873977 1116740 58848.041532348462 75301.923510937212 32768 0 21 51987 255445
1	11543090 1254461 874006 1116750 58849.572334331617 75302.932241162332 32768 -1.2e-011 8.331481166926 25851.612053678 51494.676717531
2	12797551 1290303 874006 1116750 58849.572334331617 75302.932241162332 32768 -1.2e-011 12.810088875009 53506.612053677 156096.19563298
0	14087854 1045301 1116747 1359529 75302.243373671363 91769.385324265298 32768 0 18 53490 266996
1	15133155 1268895 1116751 1359530 75302.932241162332 91770 32768 -8e-012 7.384820667912 26845.646619417 56435.22157788
2	16402050 1305625 1116751 1359530 75302.932241162332 91770 32768 -8e-012 12.043437107184 55129.646619417 166487.64063492
0	17707675 1061843 1359536 1602534 91770.205778160665 108287.039274660405 32768 0 21 50437 241771
1	18769518 1285529 1359549 1602534 91771.384727401653 108287.039274660405 32768 -8e-012 6.963398550208 25119.185779342 48551.682545345
2	20055047 1322569 1359549 1602534 91771.384727401653 108287.039274660405 32768 -8e-012 12.383242156105 52768.185779342 151062.24339305
0	21377616 1078162 1602540 1844944 108287.34256221346 124656.625134461921 32768 0 19 53228 259078
1	22455778 1304228 1602566 1844967 108289.058184558532 124658.075112426868 32768 -8e-012 8.488505688019 26723.958656396 55014.666597404
2	23760006 1339172 1602566 1844967 108289.058184558532 124658.075112426868 32768 -8e-012 11.423288116928 54489.958656395 163426.10644043
0	25099178 1078154 1844956 2088534 124657.390967877016 141264.539999955219 32768 0 31 53785 276743
1	26177332 1308692 1844969 2088534 124658.260612423518 141264.539999955219 32768 -2.4e-011 11.941856127488 27167.323116136 58408.933532212
2	27486024 1343178 1844969 2088534 124658.260612423518 141264.539999955219 32768 -2.4e-011 14.144929307264 55021.323116135 166885.88376236
0	28829202 576949 2088543 2218103 141265.128028657286 149999.848571743832 17535 0 17 28698 139468
1	29406151 702927 2088543 2218087 141265.128028657286 149999 17527 -2.4e-011 7.9644995944 14304.060115893 28987.363511715
2	30109078 720846 2088543 2218087 141265.128028657286 149999 17527 -2.4e-011 10.375422140448 29185.060115893 86228.59801193

