file 1904055 1613479579                                         
version 2
run Exponential-capacity-36-20210216-13:46:19-24780
attr configname Exponential-capacity
attr datetime 20210216-13:46:19
attr experiment Exponential-capacity
attr inifile aerocom.ini
attr iterationvars "$0=2, $1=50, $2=0.5, $3=0.5"
attr iterationvarsf 2,50,0.5,0.5-
attr measurement "$0=2, $1=50, $2=0.5, $3=0.5"
attr network Aerocom
attr processid 24780
attr repetition 0
attr replication #0
attr resultdir results
attr runnumber 36
attr seedset 0
param **.t 2s
param **.k 50ms
param **.X 0.5s
param **.m 0.5s
param **.tDistribution "\"exponential\""
param **.operationMode 0
param **.s "70 byte"
param **.dimPoolMax 10000
param **.dimPoolMin 8000
param **.nDL 10
param **.nA 1
param **.DLMaxCapacity 0
param **.trasmitting false

vector 0 Aerocom.aircraft[0].dataLink[0] actualCapacity:vector ETV
attr "" ""
attr source computeActualCapacity
vector 1 Aerocom.aircraft[0].dataLink[1] actualCapacity:vector ETV
attr "" ""
attr source computeActualCapacity
vector 2 Aerocom.aircraft[0].dataLink[2] actualCapacity:vector ETV
attr "" ""
attr source computeActualCapacity
vector 3 Aerocom.aircraft[0].dataLink[3] actualCapacity:vector ETV
attr "" ""
attr source computeActualCapacity
vector 4 Aerocom.aircraft[0].dataLink[4] actualCapacity:vector ETV
attr "" ""
attr source computeActualCapacity
vector 5 Aerocom.aircraft[0].dataLink[5] actualCapacity:vector ETV
attr "" ""
attr source computeActualCapacity
vector 6 Aerocom.aircraft[0].dataLink[6] actualCapacity:vector ETV
attr "" ""
attr source computeActualCapacity
vector 7 Aerocom.aircraft[0].dataLink[7] actualCapacity:vector ETV
attr "" ""
attr source computeActualCapacity
vector 8 Aerocom.aircraft[0].dataLink[8] actualCapacity:vector ETV
attr "" ""
attr source computeActualCapacity
vector 9 Aerocom.aircraft[0].dataLink[9] actualCapacity:vector ETV
attr "" ""
attr source computeActualCapacity
vector 10 Aerocom.aircraft[0].packetGenerator arrivalTime:vector ETV
attr "" ""
attr source computeArrivalTime
vector 11 Aerocom.aircraft[0].linkSelector waitingTime:vector ETV
attr "" ""
attr source computeWaitingTime
vector 12 Aerocom.aircraft[0].linkSelector queueLength:vector ETV
attr "" ""
attr source computeQueueLength
vector 13 Aerocom.aircraft[0].linkSelector serviceTime:vector ETV
attr "" ""
attr source computeServiceTime
vector 14 Aerocom.aircraft[0].linkSelector responseTime:vector ETV
attr "" ""
attr source computeResponseTime
vector 15 Aerocom.aircraft[0].dataLink[1] tDistribution:vector ETV
attr "" ""
attr source computeTDistribution
vector 16 Aerocom.aircraft[0].dataLink[2] tDistribution:vector ETV
attr "" ""
attr source computeTDistribution
vector 17 Aerocom.aircraft[0].dataLink[7] tDistribution:vector ETV
attr "" ""
attr source computeTDistribution
vector 18 Aerocom.aircraft[0].dataLink[5] tDistribution:vector ETV
attr "" ""
attr source computeTDistribution
vector 19 Aerocom.aircraft[0].dataLink[0] tDistribution:vector ETV
attr "" ""
attr source computeTDistribution
vector 20 Aerocom.aircraft[0].dataLink[8] tDistribution:vector ETV
attr "" ""
attr source computeTDistribution
vector 21 Aerocom.aircraft[0].dataLink[9] tDistribution:vector ETV
attr "" ""
attr source computeTDistribution
vector 22 Aerocom.aircraft[0].dataLink[3] tDistribution:vector ETV
attr "" ""
attr source computeTDistribution
vector 23 Aerocom.aircraft[0].dataLink[4] tDistribution:vector ETV
attr "" ""
attr source computeTDistribution
vector 24 Aerocom.aircraft[0].dataLink[6] tDistribution:vector ETV
attr "" ""
attr source computeTDistribution
0	3622 42866 1133 44091 10 400 1716 8007 9962 16024115 150077685473
1	46488 40280 1133 44091 10 400 1628 8034 9938 15256821 143321575517
2	86768 37789 1133 44091 10 400 1543 8018 9977 14302759 133000338293
3	124557 42529 1133 44091 10 400 1704 8019 9972 16050992 151556935162
4	167086 33770 1133 44091 10 400 1417 8021 9963 13041769 120431399363
5	200856 37635 1133 44091 10 400 1536 8016 9986 14278428 133104867824
6	238491 31013 1133 44091 10 400 1323 8055 9983 12200147 112863422887
7	269504 32343 1133 44091 10 400 1364 8015 9987 12569035 116213961465
8	301847 42086 1133 44091 10 400 1693 8033 9993 15916823 150033768049
9	343933 38666 1133 44091 10 400 1573 8020 9954 14661544 137085907210
10	382599 317860 1135 44086 10.005245567619 399.990973989844 7687 2.767595e-006 0.511624106208 390.00681941603 39.585679544771
11	700459 233006 1136 44087 10.005245567619 399.990973989844 7687 0 0.020583918951 4.593442162899 0.028157048445072
12	933465 218613 1136 44087 10.005245567619 399.990973989844 7687 0 2 88 106
13	1152078 348326 1136 44087 10.005245567619 399.990973989844 7687 0.0070049034324027 0.0087249158668827 55.793418439092 0.40523171337154
14	1500404 317854 1137 44088 10.012534197357 399.998273259917 7687 0.007004903432 0.027604982141 60.38686060181 0.5001566153132
15	1818258 7917 1150 43851 10.108197594216 398.088369796402 185 0.0066820356987456 12.73031428991 396.86298794996 1623.8347515601
16	1826175 8920 1151 43795 10.118477058203 397.558805043633 208 0.0041287413231739 10.183260310139 395.22270641998 1456.7542704876
17	1835095 9228 1167 44005 10.33332325754 399.333067430601 215 0.00077673227493106 10.576838072839 389.79085381369 1482.1836615119
18	1844323 8611 1228 44055 10.906402754895 399.686148362669 202 0.0049710174278149 10.878397109943 389.80983006386 1506.3173147908
19	1852934 8783 1246 44054 11.154402806452 399.568904735542 205 0.026650848306815 8.9434407592357 391.98412032014 1363.8043493512
20	1861717 7642 1271 43869 11.548798313583 398.231772090748 179 0.00024718362899742 15.502404790664 390.4007084239 1835.4558401444
21	1869359 8269 1310 43845 11.840764687096 398.015447176651 193 0.0051718301887234 13.008934958902 388.53607179952 1591.3147854771
22	1877628 9175 1347 43686 12.351795081565 396.748910847202 214 0.0037688641377702 8.7330713792533 391.09610518445 1399.6917749019
23	1886803 9738 1398 43533 12.816289886563 395.483655140687 227 0.00093716124287715 8.9792967001633 388.75865197493 1334.0402886836
24	1896541 7512 2101 43857 19.157218708739 398.124100143442 175 0.0030838470345357 14.577784375094 384.36506644851 1855.2118041636

