file 30424207 1608115938                                        
version 2
run General-0-20201216-11:50:06-14020
attr configname General
attr datetime 20201216-11:50:06
attr experiment General
attr inifile ../simulations/aerocom.ini
attr iterationvars ""
attr iterationvarsf ""
attr measurement ""
attr network Aerocom
attr processid 14020
attr repetition 0
attr replication #0
attr resultdir results
attr runnumber 0
attr seedset 0
param **.mean 2s
param **.size "100 byte"
param **.aircraft[*].serving 1
param **.dataLink[*].dimPoolMax 100
param **.dataLink[*].X 2
param **.dataLink[*].k 2.0s
param **.nDL 5
param **.setCapacityDistribution "\"exponential\""
param **.aircraft[*].k 2.0s
param **.aircraft[*].m 10s
param **.dataLink[*].dimPoolMin 1
param **.aircraft[*].linkSelector.DLMaxCapacity 0
param **.aircraft[*].linkSelector.t 2
param **.aircraft[*].linkSelector.trasmitting false
param **.aircraft[*].distribution "\"exponential\""
param **.aircraft[*].linkSelector.operationMode 0

vector 0 Aerocom.dataLink[0] queueLength:vector ETV
attr "" ""
attr source computeQueueLength
vector 1 Aerocom.dataLink[0] waitingTime:vector ETV
attr "" ""
attr source computeWaitingTime
vector 2 Aerocom.dataLink[0] responseTime:vector ETV
attr "" ""
attr source computeResponseTime
vector 3 Aerocom.dataLink[2] queueLength:vector ETV
attr "" ""
attr source computeQueueLength
vector 4 Aerocom.dataLink[2] waitingTime:vector ETV
attr "" ""
attr source computeWaitingTime
vector 5 Aerocom.dataLink[2] responseTime:vector ETV
attr "" ""
attr source computeResponseTime
vector 6 Aerocom.dataLink[1] queueLength:vector ETV
attr "" ""
attr source computeQueueLength
vector 7 Aerocom.dataLink[1] waitingTime:vector ETV
attr "" ""
attr source computeWaitingTime
vector 8 Aerocom.dataLink[1] responseTime:vector ETV
attr "" ""
attr source computeResponseTime
vector 9 Aerocom.dataLink[4] queueLength:vector ETV
attr "" ""
attr source computeQueueLength
vector 10 Aerocom.dataLink[4] waitingTime:vector ETV
attr "" ""
attr source computeWaitingTime
vector 11 Aerocom.dataLink[4] responseTime:vector ETV
attr "" ""
attr source computeResponseTime
vector 12 Aerocom.dataLink[3] queueLength:vector ETV
attr "" ""
attr source computeQueueLength
vector 13 Aerocom.dataLink[3] waitingTime:vector ETV
attr "" ""
attr source computeWaitingTime
vector 14 Aerocom.dataLink[3] responseTime:vector ETV
attr "" ""
attr source computeResponseTime
0	2431 1095646 14 1005729 2 65552.054308438479 32768 0 2649 48361173 85308298867
1	1098077 1460786 14 1005729 2 65552.054308438479 32768 0 4952.6187163392 90854446.765248 302983851900.1
2	2558863 1460787 14 1005729 2 65552.054308438479 32768 2 4954.6187163392 90919982.765248 303347400759.16
3	4019650 1065569 117 1020471 10.021930564286 66514.241830222812 32768 0 794 11216598 5202821612
4	5085219 1461013 117 1020471 10.021930564286 66514.241830222812 32768 -1e-012 1588.4810817652 22134828.842136 20343140935.883
5	6546232 1461089 117 1020471 10.021930564286 66514.241830222812 32768 1.999999999999 1590.4810817652 22200364.842136 20431811323.251
12	8007321 1100170 2999 1022924 220.127260572493 66674.153421972072 32768 0 1126 14401676 8710783724
13	9107491 1492534 2999 1022924 220.127260572493 66674.153421972072 32768 -8e-012 2252.3968238635 28785422.164014 34868690602.611
14	10600025 1492630 2999 1022924 220.127260572493 66674.153421972072 32768 1.999999999992 2254.3968238635 28850958.164014 34983963363.268
6	12092655 1066600 242 1027228 20.04094685815 66946.119388083456 32768 0 640 7912129 2589406363
7	13159255 1462996 242 1027228 20.04094685815 66946.119388083456 32768 -4e-012 1153.5200624631 15550706.208147 9934050824.302
8	14622251 1463165 242 1027228 20.04094685815 66946.119388083456 32768 1.999999999996 1155.5200624631 15616242.208147 9996384721.1345
9	16085416 1052717 367 1084777 31.130657407231 70634.345907726975 32768 0 589 4838003 1283221645
10	17138133 1492221 367 1084777 31.130657407231 70634.345907726975 32768 -3e-012 999.10849636675 9495443.5461081 4882370382.1579
11	18630354 1492990 367 1084777 31.130657407231 70634.345907726975 32768 1.999999999997 1001.1084963668 9560979.5461081 4920483228.3424
0	20123344 602805 1005756 1539267 65554.054308438479 99998.054308438479 17223 1469 2263 32150834 60856554302
1	20726149 790286 1005756 1539267 65554.054308438479 99998.054308438479 17223 2966.7033920524 5298.8226309871 67678731.511275 271170317490.15
2	21516435 790286 1005756 1539267 65554.054308438479 99998.054308438479 17223 2968.7033920524 5300.8226309871 67713177.511275 271441101308.2
3	22306721 544208 1020508 1539273 66516.241830222812 99998.303232368764 16172 0 554 2861013 709633135
4	22850929 741507 1020508 1539273 66516.241830222812 99998.303232368764 16172 -8e-012 1308.5717951438 6048773.5052717 3354955372.124
5	23592436 741713 1020508 1539273 66516.241830222812 99998.303232368764 16172 1.999999999992 1310.5717951438 6081117.5052717 3379215154.1451
6	24334149 555123 1027265 1539269 66948.119388083456 99998.099597900051 16405 0 833 7510667 4193275919
7	24889272 752111 1027265 1539269 66948.119388083456 99998.099597900051 16405 -7e-012 1666.1261916466 15336081.059254 17256404970.148
8	25641383 752198 1027265 1539269 66948.119388083456 99998.099597900051 16405 1.999999999993 1668.1261916466 15368891.059254 17317814914.385
9	26393581 508673 1084815 1539275 70636.345907726975 99998.345907726975 14682 364 2514 20461626 34163037382
10	26902254 688341 1084815 1539275 70636.345907726975 99998.345907726975 14682 728.32001874941 4168.6914555014 35796030.858774 103787686294.55
11	27590595 688337 1084815 1539275 70636.345907726975 99998.345907726975 14682 730.32001874941 4170.6914555014 35825394.858774 103930929145.99
12	28278932 583170 1022943 1539271 66676.153421972072 99998.153421972072 16662 162 770 7761871 3915706951
13	28862102 781053 1022943 1539271 66676.153421972072 99998.153421972072 16662 325.52577545895 1541.0505337277 15264933.550756 15225688978.883
14	29643155 781050 1022943 1539271 66676.153421972072 99998.153421972072 16662 327.52577545895 1543.0505337277 15298257.550756 15286815361.086

