file 27790443 1608306665                                        
version 2
run General-0-20201218-16:50:57-15368
attr configname General
attr datetime 20201218-16:50:57
attr experiment General
attr inifile ../simulations/aerocom.ini
attr iterationvars ""
attr iterationvarsf ""
attr measurement ""
attr network Aerocom
attr processid 15368
attr repetition 0
attr replication #0
attr resultdir results
attr runnumber 0
attr seedset 0
param **.mean 2s
param **.size "1500 byte"
param **.aircraft[*].serving 1
param **.dataLink[*].dimPoolMax 800
param **.dataLink[*].dimPoolMin 500
param **.dataLink[*].X 2
param **.dataLink[*].k 2.0s
param **.nDL 5
param **.setCapacityDistribution "\"lognormal\""
param **.aircraft[*].k 2.0s
param **.aircraft[*].m 10s
param **.aircraft[*].linkSelector.DLMaxCapacity 0
param **.aircraft[*].linkSelector.t 2
param **.aircraft[*].linkSelector.trasmitting false
param **.aircraft[*].distribution "\"exponential\""
param **.aircraft[*].linkSelector.operationMode 0

vector 0 Aerocom.dataLink[2] queueLength:vector ETV
attr "" ""
attr source computeQueueLength
vector 1 Aerocom.dataLink[2] responseTime:vector ETV
attr "" ""
attr source computeResponseTime
vector 2 Aerocom.dataLink[2] waitingTime:vector ETV
attr "" ""
attr source computeWaitingTime
vector 3 Aerocom.dataLink[3] responseTime:vector ETV
attr "" ""
attr source computeResponseTime
vector 4 Aerocom.dataLink[3] waitingTime:vector ETV
attr "" ""
attr source computeWaitingTime
vector 5 Aerocom.dataLink[1] responseTime:vector ETV
attr "" ""
attr source computeResponseTime
vector 6 Aerocom.dataLink[1] waitingTime:vector ETV
attr "" ""
attr source computeWaitingTime
vector 7 Aerocom.dataLink[4] responseTime:vector ETV
attr "" ""
attr source computeResponseTime
vector 8 Aerocom.dataLink[4] waitingTime:vector ETV
attr "" ""
attr source computeWaitingTime
vector 9 Aerocom.dataLink[0] queueLength:vector ETV
attr "" ""
attr source computeQueueLength
vector 10 Aerocom.dataLink[0] waitingTime:vector ETV
attr "" ""
attr source computeWaitingTime
vector 11 Aerocom.dataLink[0] responseTime:vector ETV
attr "" ""
attr source computeResponseTime
vector 12 Aerocom.dataLink[3] queueLength:vector ETV
attr "" ""
attr source computeQueueLength
vector 13 Aerocom.dataLink[1] queueLength:vector ETV
attr "" ""
attr source computeQueueLength
vector 14 Aerocom.dataLink[4] queueLength:vector ETV
attr "" ""
attr source computeQueueLength
9	2432 1068367 135781 982139 10010.459870222083 72006.659511989231 32768 0 1015 13967208 9175067412
10	1070799 1501203 135781 999517 10010.459870222083 73322.058863631615 32768 -3e-012 1887.330823254 25687133.516826 31036743408.17
11	2572002 1501789 135797 999536 10011.459870222083 73324.058863631615 32768 1.999999999998 1891.330823254 25807825.516826 31226375083.91
13	4073791 1095614 136621 1019711 10070.085605010195 74803.108405101536 32768 0 514 5065847 1285692225
5	5169405 1468798 135667 1021178 10000.867290221312 74915.379092949175 32768 1.999999999996 978.63389423989 9589865.1103195 4566840920.897
6	6638203 1467885 135667 1021178 10000.867290221312 74915.379092949175 32768 -5e-012 974.63389423989 9468261.5827754 4495867503.7835
7	8106088 1468559 135669 1044948 10001.349913538717 76660.135755283085 32768 1.999999999992 610.16674726501 5936935.0219472 1659618964.8548
8	9574647 1467286 135669 1044948 10001.349913538717 76660.135755283085 32768 -8e-012 606.16674726501 5815426.6637253 1615719159.0644
14	11041933 1090320 137115 1049658 10110.136772501809 77007.636291443413 32768 0 325 3073711 449844945
12	12132253 1090332 135920 1049876 10020.200444691547 77022.78910556623 32768 0 554 3440641 672339815
3	13222585 1470375 135659 1050274 10000.438521500558 77055.476471093322 32768 1.999999999994 1042.3054512448 6499318.5825636 2359681699.2336
4	14692960 1469120 135659 1050274 10000.438521500558 77055.476471093322 32768 -7e-012 1038.3054512448 6378564.6228548 2312078159.5498
0	16162080 1055055 135650 1060465 10000.01641941074 77805.894354830286 32768 0 505 3108814 594329552
1	17217135 1468968 135654 1063146 10000.213087391767 78002.272123899283 32768 1.999999999994 960.96283802331 5898671.4394393 2087396919.2592
2	18686103 1467432 135654 1063146 10000.213087391767 78002.272123899283 32768 -1e-011 956.96283802331 5777458.2631642 2044070418.6424
0	20153535 364303 1060468 1363969 77806.026237361185 99999.148688388589 10961 0 308 1007345 140815331
1	20517838 500992 1063172 1363962 78004.272123899283 99998.803118167025 10935 1.999999999995 550.57309305421 1922939.1483904 503935780.19564
2	21018830 500535 1063172 1363962 78004.272123899283 99998.803118167025 10935 -7e-012 548.51345517981 1882176.5027746 489739414.28007
3	21519365 541394 1050291 1363957 77057.476471093322 99998.165359474328 11807 1.999999999998 1588.4808276884 6088128.9292121 5063314485.9816
4	22060759 541152 1050291 1363957 77057.476471093322 99998.165359474328 11807 -8e-012 1584.4808276884 6044707.6554802 5018511554.6019
5	22601911 557256 1021199 1363970 74917.379092949175 99999.322604836637 12160 1.999999999993 567.57081728133 2084829.1960764 555225618.89959
6	23159167 556673 1021199 1363970 74917.379092949175 99999.322604836637 12160 -7e-012 563.57081728133 2039364.0817405 539750240.67119
7	23715840 530151 1044969 1363972 76662.135755283085 99999.545376708352 11563 1.999999999994 545.27045642257 1998676.9583101 547638017.20907
8	24245991 529648 1044969 1363972 76662.135755283085 99999.545376708352 11563 -8e-012 541.27045642257 1956025.6556933 533076884.15308
9	24775639 476988 982142 1363403 72006.689056726286 99959.760651097031 14127 0 1226 8217523 7153555447
10	25252627 655990 999536 1363952 73324.058863631615 99998.011335389837 13998 -8e-012 2235.4388084088 15216178.78045 24583936346.474
11	25908617 656156 999555 1363952 73326.058863631615 99998.011335389837 13997 2.000000000001 2239.4388084088 15267872.693706 24696998649.842
12	26564773 416599 1049879 1363677 77023.028049846223 99979.748452319468 12036 0 837 3338452 1480774220
13	26981372 413229 1019718 1363234 74803.57204030057 99949.836382091229 12078 0 292 1074234 151642950
14	27394601 395840 1049667 1363829 77008.257850165677 99989.883484701648 11567 0 294 1092042 166592760

