file 3261592 1608577348                                         
version 2
run General-0-20201221-17:44:26-19408
attr configname General
attr datetime 20201221-17:44:26
attr experiment General
attr inifile omnetpp.ini
attr iterationvars ""
attr iterationvarsf ""
attr measurement ""
attr network Aerocom
attr processid 19408
attr repetition 0
attr replication #0
attr resultdir results
attr runnumber 0
attr seedset 0
param **.t 0.75s
param **.k 0.75s
param **.dataLink[*].s "1500 byte"
param **.dataLink[*].X 2
param **.nDL 5
param **.dataLink[*].dimPoolMax 400
param **.dataLink[*].dimPoolMin 100
param **.setCapacityDistribution "\"exponential\""
param **.aircraft[*].distribution "\"exponential\""
param **.aircraft[*].m 5s
param **.aircraft[*].linkSelector.DLMaxCapacity 0
param **.aircraft[*].linkSelector.trasmitting false
param **.aircraft[*].linkSelector.operationMode 0

vector 0 Aerocom.aircraft[0].dataLink[0] queueLength:vector ETV
attr "" ""
attr source computeQueueLength
0	8881 83507 49 665475 0.75 9989.128968154677 2683 0 2177 2919154 4234372680
vector 1 Aerocom.aircraft[0].dataLink[0] waitingTime:vector ETV
attr "" ""
attr source computeWaitingTime
1	92388 21462 49 665470 0.75 9989.06328240561 505 0 7981.084445495 1985404.6652344 10283296441.835
vector 2 Aerocom.aircraft[1].dataLink[0] queueLength:vector ETV
attr "" ""
attr source computeQueueLength
2	113850 82480 50 665407 0.75 9987.907882192805 2654 0 2127 2824624 4010804412
vector 3 Aerocom.aircraft[1].dataLink[0] waitingTime:vector ETV
attr "" ""
attr source computeWaitingTime
3	196330 22345 50 665407 0.75 9987.907882192805 527 0 8146.3613224411 2138209.1798994 11755220898.455
vector 4 Aerocom.aircraft[2].dataLink[0] queueLength:vector ETV
attr "" ""
attr source computeQueueLength
4	218675 87154 51 664813 0.75 9979.291674429592 2798 0 2264 3165384 4781533908
vector 5 Aerocom.aircraft[2].dataLink[0] waitingTime:vector ETV
attr "" ""
attr source computeWaitingTime
5	305829 22645 51 664795 0.75 9979.042979274382 533 0 8041.2888057058 2136815.779753 11286079813.998
vector 6 Aerocom.aircraft[3].dataLink[4] queueLength:vector ETV
attr "" ""
attr source computeQueueLength
6	328474 80327 52 666242 0.75 9999.994975494992 2584 0 2084 2698418 3768905758
vector 7 Aerocom.aircraft[3].dataLink[4] waitingTime:vector ETV
attr "" ""
attr source computeWaitingTime
7	408801 21173 52 666200 0.75 9999.228705128467 499 0 7895.4111542557 2041516.0937335 10916312555.969
vector 8 Aerocom.aircraft[4].dataLink[1] queueLength:vector ETV
attr "" ""
attr source computeQueueLength
8	429974 79955 53 666216 0.75 9999.62788855428 2576 0 2063 2659741 3657392715
vector 9 Aerocom.aircraft[4].dataLink[1] waitingTime:vector ETV
attr "" ""
attr source computeWaitingTime
9	509929 21753 53 666193 0.75 9999.065001484126 512 0 8127.0932130697 2052033.8290619 11114961406.307
vector 10 Aerocom.aircraft[2].dataLink[0] responseTime:vector ETV
attr "" ""
attr source computeResponseTime
10	531682 23181 283 665125 4.75 9984.042979274382 533 8 8063.2888057058 2142465.779753 11331907908.262
vector 11 Aerocom.aircraft[0].dataLink[0] responseTime:vector ETV
attr "" ""
attr source computeResponseTime
11	554863 21970 360 665999 5.75 9996.06328240561 505 10 7995.084445495 1990814.6652344 10326109180.059
vector 12 Aerocom.aircraft[1].dataLink[0] responseTime:vector ETV
attr "" ""
attr source computeResponseTime
12	576833 22877 361 665674 5.75 9991.907882192805 527 10 8154.3613224411 2143817.1798994 11800608369.833
vector 13 Aerocom.aircraft[3].dataLink[4] responseTime:vector ETV
attr "" ""
attr source computeResponseTime
13	599710 21634 362 666200 5.75 9999.228705128467 498 10 7899.8844509168 2038982.6825792 10897160103.306
vector 14 Aerocom.aircraft[0].dataLink[1] queueLength:vector ETV
attr "" ""
attr source computeQueueLength
14	621344 84151 378 665900 6.007953791689 9994.856490530653 2624 0 2083 2730334 3790407416
vector 15 Aerocom.aircraft[0].dataLink[1] waitingTime:vector ETV
attr "" ""
attr source computeWaitingTime
15	705495 23454 378 665871 6.007953791689 9994.340057940465 540 0 8185.8763800782 2067323.9717859 11091549703.836
vector 16 Aerocom.aircraft[2].dataLink[1] queueLength:vector ETV
attr "" ""
attr source computeQueueLength
16	728949 88261 445 665049 7.177336758913 9982.461726044842 2745 0 2227 3068832 4567052846
vector 17 Aerocom.aircraft[2].dataLink[1] waitingTime:vector ETV
attr "" ""
attr source computeWaitingTime
17	817210 22550 445 665132 7.177336758913 9984.171566420553 518 0 7928.1851617151 2144033.0167629 11531306542.773
vector 18 Aerocom.aircraft[4].dataLink[1] responseTime:vector ETV
attr "" ""
attr source computeResponseTime
18	839760 22227 532 666193 8.75 9999.065001484126 511 16 8135.0932130697 2049345.941547 11092303385.549
vector 19 Aerocom.aircraft[0].dataLink[1] responseTime:vector ETV
attr "" ""
attr source computeResponseTime
19	861987 23415 631 665871 10.007953791689 9994.340057940465 539 8 8191.1380987799 2064922.0954058 11069038053.374
vector 20 Aerocom.aircraft[3].dataLink[0] queueLength:vector ETV
attr "" ""
attr source computeQueueLength
20	885402 91658 639 661864 10.124420267624 9933.516731803641 2853 0 2317 3293850 5079827326
vector 21 Aerocom.aircraft[3].dataLink[0] waitingTime:vector ETV
attr "" ""
attr source computeWaitingTime
21	977060 23246 639 661713 10.124420267624 9931.454677666537 535 0 8167.2864012537 2063215.4306547 10845565153.519
vector 22 Aerocom.aircraft[0].dataLink[2] queueLength:vector ETV
attr "" ""
attr source computeQueueLength
22	1000306 83848 656 665093 10.421324490419 9983.383920223001 2616 0 2101 2735655 3818976867
vector 23 Aerocom.aircraft[0].dataLink[2] waitingTime:vector ETV
attr "" ""
attr source computeWaitingTime
23	1084154 22334 656 664994 10.421324490419 9981.728081872075 514 0 7879.1863430533 2113056.5913492 11177928903.52
vector 24 Aerocom.aircraft[4].dataLink[2] queueLength:vector ETV
attr "" ""
attr source computeQueueLength
24	1106488 80412 681 665484 10.961280870959 9989.298427565444 2507 0 2011 2533591 3406415723
vector 25 Aerocom.aircraft[4].dataLink[2] waitingTime:vector ETV
attr "" ""
attr source computeWaitingTime
25	1186900 21532 681 665303 10.961280870959 9986.342016286867 495 0 7928.9002076595 2061793.1179809 11098052937.761
vector 26 Aerocom.aircraft[1].dataLink[1] queueLength:vector ETV
attr "" ""
attr source computeQueueLength
26	1208432 96945 692 662876 11.108282321405 9949.599090237794 3019 0 2452 3693064 6024645456
vector 27 Aerocom.aircraft[1].dataLink[1] waitingTime:vector ETV
attr "" ""
attr source computeWaitingTime
27	1305377 24582 692 662698 11.108282321405 9946.458681544605 566 0 8269.0180752468 2322891.3629998 12715552542.305
vector 28 Aerocom.aircraft[2].dataLink[4] queueLength:vector ETV
attr "" ""
attr source computeQueueLength
28	1329959 82617 825 665542 13.346006757515 9989.990261238152 2576 0 2085 2703783 3776988231
vector 29 Aerocom.aircraft[2].dataLink[4] waitingTime:vector ETV
attr "" ""
attr source computeWaitingTime
29	1412576 21315 825 665532 13.346006757515 9989.926886046614 490 0 8151.1053343281 2027412.2356353 11171680112.89
vector 30 Aerocom.aircraft[0].dataLink[2] responseTime:vector ETV
attr "" ""
attr source computeResponseTime
30	1433891 22336 894 665398 14.421324490419 9987.728081872075 514 8 7887.1863430533 2118594.5913492 11223032034.292
vector 31 Aerocom.aircraft[3].dataLink[0] responseTime:vector ETV
attr "" ""
attr source computeResponseTime
31	1456227 23250 956 662001 15.124420267624 9935.454677666537 535 10 8175.2864012537 2068933.4306547 10889623995.665
vector 32 Aerocom.aircraft[4].dataLink[2] responseTime:vector ETV
attr "" ""
attr source computeResponseTime
32	1479477 21535 1010 665601 15.961280870959 9990.342016286867 495 10 7936.9002076595 2067053.1179809 11141816775.672
vector 33 Aerocom.aircraft[1].dataLink[1] responseTime:vector ETV
attr "" ""
attr source computeResponseTime
33	1501012 24587 1137 662978 18.108282321405 9951.458681544605 566 14 8279.0180752468 2328931.3629998 12764791059.135
vector 34 Aerocom.aircraft[2].dataLink[1] responseTime:vector ETV
attr "" ""
attr source computeResponseTime
34	1525599 22553 1142 665418 18.177336758913 9988.171566420553 518 21.243366222028 7936.1851617151 2149691.0167629 11577419628.766
vector 35 Aerocom.aircraft[2].dataLink[4] responseTime:vector ETV
attr "" ""
attr source computeResponseTime
35	1548152 21318 1155 666233 18.346006757515 9999.926886046614 490 10 8169.2735865755 2032646.2356353 11214681086.872
vector 36 Aerocom.aircraft[2].dataLink[3] queueLength:vector ETV
attr "" ""
attr source computeQueueLength
36	1569470 83488 1305 666231 20.071085078481 9999.89752381258 2606 0 2113 2745481 3865857077
vector 37 Aerocom.aircraft[2].dataLink[3] waitingTime:vector ETV
attr "" ""
attr source computeWaitingTime
37	1652958 21351 1305 666220 20.071085078481 9999.667726916079 492 0 8378.7792441047 1956099.9931504 10733785420.217
vector 38 Aerocom.aircraft[2].dataLink[3] responseTime:vector ETV
attr "" ""
attr source computeResponseTime
38	1674309 21310 1512 666220 24.071085078481 9999.667726916079 491 8 8384.3362150095 1953193.2139063 10707718228.063
vector 39 Aerocom.aircraft[3].dataLink[2] queueLength:vector ETV
attr "" ""
attr source computeQueueLength
39	1695619 78834 1632 665503 25.656334025066 9989.552009473302 2462 0 1963 2430578 3190614996
vector 40 Aerocom.aircraft[3].dataLink[2] waitingTime:vector ETV
attr "" ""
attr source computeWaitingTime
40	1774453 21661 1632 665422 25.656334025066 9988.246088956741 498 0 8218.3307047954 1960920.6303197 10521845362.979
vector 41 Aerocom.aircraft[0].dataLink[4] queueLength:vector ETV
attr "" ""
attr source computeQueueLength
41	1796114 82934 1638 664494 25.731875011244 9974.865257950314 2585 0 2078 2680950 3716921252
vector 42 Aerocom.aircraft[0].dataLink[4] waitingTime:vector ETV
attr "" ""
attr source computeWaitingTime
42	1879048 22010 1638 664234 25.731875011244 9970.157373512967 506 0 7938.1927508596 2025319.033307 10778497452.756
vector 43 Aerocom.aircraft[4].dataLink[3] queueLength:vector ETV
attr "" ""
attr source computeQueueLength
43	1901058 89098 1730 665879 27.065205073269 9994.495711070127 2778 0 2232 3098755 4600752407
vector 44 Aerocom.aircraft[4].dataLink[3] waitingTime:vector ETV
attr "" ""
attr source computeWaitingTime
44	1990156 23678 1730 665849 27.065205073269 9994.068771024346 545 0 8299.2649449646 2151510.630949 11596263620.024
vector 45 Aerocom.aircraft[3].dataLink[2] responseTime:vector ETV
attr "" ""
attr source computeResponseTime
45	2013834 21663 1892 665786 29.656334025066 9993.246088956741 498 8 8228.3307047954 1966308.6303197 10563962422.872
vector 46 Aerocom.aircraft[0].dataLink[4] responseTime:vector ETV
attr "" ""
attr source computeResponseTime
46	2035497 22011 1899 664541 29.731875011244 9975.157373512967 506 8 7948.1927508596 2031007.033307 10824074156.036
vector 47 Aerocom.aircraft[0].dataLink[3] queueLength:vector ETV
attr "" ""
attr source computeQueueLength
47	2057508 89830 1949 666130 30.209999461981 9998.024198672788 2793 0 2246 3112204 4648394154
vector 48 Aerocom.aircraft[0].dataLink[3] waitingTime:vector ETV
attr "" ""
attr source computeWaitingTime
48	2147338 23734 1949 666068 30.209999461981 9997.098523039101 546 0 7898.5307764355 2220469.6806307 12080425395.912
vector 49 Aerocom.aircraft[1].dataLink[3] queueLength:vector ETV
attr "" ""
attr source computeQueueLength
49	2171072 81565 2003 665885 31.29065477195 9994.654511914249 2543 0 2052 2600243 3550419005
vector 50 Aerocom.aircraft[1].dataLink[3] waitingTime:vector ETV
attr "" ""
attr source computeWaitingTime
50	2252637 21296 2003 665789 31.29065477195 9993.261575158601 490 0 7896.5916355317 1958788.4195913 10411409868.199
vector 51 Aerocom.aircraft[4].dataLink[3] responseTime:vector ETV
attr "" ""
attr source computeResponseTime
51	2273933 23637 2051 665849 32.065205073269 9994.068771024346 544 10 8303.6981858468 2149065.366004 11574479350.612
vector 52 Aerocom.aircraft[0].dataLink[3] responseTime:vector ETV
attr "" ""
attr source computeResponseTime
52	2297570 23692 2187 665504 34.209999461981 9989.555271839993 545 8 7908.5307764355 2218479.3966857 12066448419.163
vector 53 Aerocom.aircraft[1].dataLink[3] responseTime:vector ETV
attr "" ""
attr source computeResponseTime
53	2321262 21300 2273 666145 35.29065477195 9998.261575158601 490 8 7904.5916355317 1964188.4195913 10454648861.454
vector 54 Aerocom.aircraft[2].dataLink[2] queueLength:vector ETV
attr "" ""
attr source computeQueueLength
54	2342562 84812 2284 663869 35.480384034351 9964.743122879611 2648 0 2118 2805888 3965301632
vector 55 Aerocom.aircraft[2].dataLink[2] waitingTime:vector ETV
attr "" ""
attr source computeWaitingTime
55	2427374 22951 2284 663633 35.480384034351 9961.082308640666 529 0 8107.2668354949 2151044.1687789 11961156398.251
vector 56 Aerocom.aircraft[2].dataLink[2] responseTime:vector ETV
attr "" ""
attr source computeResponseTime
56	2450325 22953 2486 663952 38.480384034351 9966.082308640666 529 6 8117.2668354949 2156732.1687789 12007457680.781
vector 57 Aerocom.aircraft[1].dataLink[4] queueLength:vector ETV
attr "" ""
attr source computeQueueLength
57	2473278 81977 2621 664441 40.275976900742 9973.678383168703 2555 0 2049 2613767 3573325769
vector 58 Aerocom.aircraft[1].dataLink[4] waitingTime:vector ETV
attr "" ""
attr source computeWaitingTime
58	2555255 21958 2621 664292 40.275976900742 9971.16610619816 505 0 7875.9925674823 2028167.314985 10842006506.535
vector 59 Aerocom.aircraft[1].dataLink[4] responseTime:vector ETV
attr "" ""
attr source computeResponseTime
59	2577213 21960 2957 664544 45.275976900742 9975.16610619816 505 10 7887.9925674823 2033555.314985 10884653638.327
vector 60 Aerocom.aircraft[4].dataLink[0] queueLength:vector ETV
attr "" ""
attr source computeQueueLength
60	2599173 84950 2996 661151 46.047681477682 9923.015144274953 2647 0 2144 2822142 4010466284
vector 61 Aerocom.aircraft[4].dataLink[0] waitingTime:vector ETV
attr "" ""
attr source computeWaitingTime
61	2684123 21870 2996 661235 46.047681477682 9924.407279629284 503 0 8136.3251972787 2084484.6400723 11458781852.688
vector 62 Aerocom.aircraft[4].dataLink[0] responseTime:vector ETV
attr "" ""
attr source computeResponseTime
62	2705993 21872 3397 661574 52.047681477682 9929.407279629284 503 12 8146.3251972787 2090054.6400723 11505672569.365
vector 63 Aerocom.aircraft[4].dataLink[4] queueLength:vector ETV
attr "" ""
attr source computeQueueLength
63	2727865 88568 4053 665184 61.566578934863 9984.949844791382 2755 0 2206 3026769 4458946267
vector 64 Aerocom.aircraft[4].dataLink[4] waitingTime:vector ETV
attr "" ""
attr source computeWaitingTime
64	2816433 23826 4053 664912 61.566578934863 9980.26896210651 548 0 7771.738444016 2099313.979505 10660669783.573
vector 65 Aerocom.aircraft[4].dataLink[4] responseTime:vector ETV
attr "" ""
attr source computeResponseTime
65	2840259 23828 4215 665640 64.566578934863 9991.26896210651 548 6 7793.738444016 2105265.979505 10706174813.855
vector 66 Aerocom.aircraft[1].dataLink[2] queueLength:vector ETV
attr "" ""
attr source computeQueueLength
66	2864087 83917 4963 666237 75.32384784291 9999.936765308148 2615 0 2095 2745629 3837111981
vector 67 Aerocom.aircraft[1].dataLink[2] waitingTime:vector ETV
attr "" ""
attr source computeWaitingTime
67	2948004 22568 4963 666190 75.32384784291 9999.023524799951 519 0 8157.2186037199 2024200.1859982 10617118972.453
vector 68 Aerocom.aircraft[1].dataLink[2] responseTime:vector ETV
attr "" ""
attr source computeResponseTime
68	2970572 22526 5155 666190 78.32384784291 9999.023524799951 518 6 8161.6992902014 2021550.9673945 10593545552.559
vector 69 Aerocom.aircraft[3].dataLink[3] queueLength:vector ETV
attr "" ""
attr source computeQueueLength
69	2993098 90155 6570 665865 100.264891927622 9994.224169422752 2800 0 2252 3160566 4756665946
vector 70 Aerocom.aircraft[3].dataLink[3] waitingTime:vector ETV
attr "" ""
attr source computeWaitingTime
70	3083253 23841 6570 665732 100.264891927622 9992.638818701247 547 0 7668.4329784425 2153526.3264377 11062660250.481
vector 71 Aerocom.aircraft[3].dataLink[3] responseTime:vector ETV
attr "" ""
attr source computeResponseTime
71	3107094 23844 6774 666089 103.264891927622 9997.638818701247 547 6 7678.4329784425 2159328.3264377 11107944391.099
vector 72 Aerocom.aircraft[3].dataLink[1] queueLength:vector ETV
attr "" ""
attr source computeQueueLength
72	3130938 85116 9373 665142 140.276681581084 9984.306332717951 2653 0 2129 2831033 4013289993
vector 73 Aerocom.aircraft[3].dataLink[1] waitingTime:vector ETV
attr "" ""
attr source computeWaitingTime
73	3216054 22767 9373 665142 140.276681581084 9984.306332717951 524 0 8137.5244797161 2283804.5316493 13068527989.78
vector 74 Aerocom.aircraft[3].dataLink[1] responseTime:vector ETV
attr "" ""
attr source computeResponseTime
74	3238821 22771 9612 665374 144.276681581084 9987.306332717951 524 8 8143.5244797161 2289508.5316493 13117369327.408
