file 10525757 1608577349                                        
version 2
run Lognormal-selection-capacity-lognormal-interarrival-time-2409-20201221-19:17:16-19380
attr configname Lognormal-selection-capacity-lognormal-interarrival-time
attr datetime 20201221-19:17:16
attr experiment Lognormal-selection-capacity-lognormal-interarrival-time
attr inifile aerocom.ini
attr iterationvars "$0=1.5s, $1=2s, $2=2"
attr iterationvarsf 1.5s,2s,2-
attr measurement "$0=1.5s, $1=2s, $2=2"
attr network Aerocom
attr processid 19380
attr repetition 9
attr replication #9
attr resultdir results
attr runnumber 2409
attr seedset 9
param **.t 1.5s
param **.k 2s
param **.s "1500 byte"
param **.dataLink[*].X 2
param **.dataLink[*].dimPoolMax 400
param **.dataLink[*].dimPoolMin 100
param **.nDL 5
param **.setCapacityDistribution "\"lognormal\""
param **.aircraft[*].distribution "\"lognormal\""
param **.aircraft[*].m 10s
param **.aircraft[*].linkSelector.DLMaxCapacity 0
param **.aircraft[*].linkSelector.trasmitting false
param **.aircraft[*].linkSelector.operationMode 0

vector 0 Aerocom.aircraft[0].dataLink[2] queueLength:vector ETV
attr "" ""
attr source computeQueueLength
0	9063 105169 96903 1446625 10006.781957952574 149999.8388082993 3438 0 0 0 0
vector 1 Aerocom.aircraft[0].dataLink[2] waitingTime:vector ETV
attr "" ""
attr source computeWaitingTime
1	114232 122552 96903 1446625 10006.781957952574 149999.8388082993 3438 -2.4e-11 7.610943901067 48.996990222838 223.80196359441
vector 2 Aerocom.aircraft[0].dataLink[2] responseTime:vector ETV
attr "" ""
attr source computeResponseTime
2	236784 145050 96903 1446625 10006.781957952574 149999.8388082993 3438 2.999999999977 18.610943901067 14857.996990223 68533.768856038
vector 3 Aerocom.aircraft[1].dataLink[1] queueLength:vector ETV
attr "" ""
attr source computeQueueLength
3	381834 104203 96904 1443359 10006.781957952574 149659.942227748474 3412 0 1 1 1
vector 4 Aerocom.aircraft[1].dataLink[1] waitingTime:vector ETV
attr "" ""
attr source computeWaitingTime
4	486037 121400 96904 1443359 10006.781957952574 149659.942227748474 3412 -2.4e-11 7.389056098925 33.498495113739 159.92710378601
vector 5 Aerocom.aircraft[1].dataLink[1] responseTime:vector ETV
attr "" ""
attr source computeResponseTime
5	607437 143464 96904 1443359 10006.781957952574 149659.942227748474 3412 2.999999999979 13.999999999998 14598.498495114 66140.684147553
vector 6 Aerocom.aircraft[2].dataLink[0] queueLength:vector ETV
attr "" ""
attr source computeQueueLength
6	750901 114853 96905 1446627 10006.781957952574 149999.8388082993 3767 0 0 0 0
vector 7 Aerocom.aircraft[2].dataLink[0] waitingTime:vector ETV
attr "" ""
attr source computeWaitingTime
7	865754 133705 96905 1446627 10006.781957952574 149999.8388082993 3767 -2.4e-11 7.61094390107 58.440765827734 272.4506368221
vector 8 Aerocom.aircraft[2].dataLink[0] responseTime:vector ETV
attr "" ""
attr source computeResponseTime
8	999459 158307 96905 1446627 10006.781957952574 149999.8388082993 3767 2.99999999998 19.61094390107 16350.440765828 75320.511919375
vector 9 Aerocom.aircraft[3].dataLink[4] queueLength:vector ETV
attr "" ""
attr source computeQueueLength
9	1157766 109989 96906 1382858 10006.781957952574 143416.189824151779 3655 0 0 0 0
vector 10 Aerocom.aircraft[3].dataLink[4] waitingTime:vector ETV
attr "" ""
attr source computeWaitingTime
10	1267755 131587 96906 1382858 10006.781957952574 143416.189824151779 3655 -2.3e-11 4.610943901072 24.942270717517 87.642001389093
vector 11 Aerocom.aircraft[3].dataLink[4] responseTime:vector ETV
attr "" ""
attr source computeResponseTime
11	1399342 155598 96906 1382858 10006.781957952574 143416.189824151779 3655 2.999999999991 13.610943901072 15572.942270717 69728.396035372
vector 12 Aerocom.aircraft[4].dataLink[1] queueLength:vector ETV
attr "" ""
attr source computeQueueLength
12	1554940 134102 96907 1444975 10006.781957952574 149829.890518023887 4253 0 0 0 0
vector 13 Aerocom.aircraft[4].dataLink[1] waitingTime:vector ETV
attr "" ""
attr source computeWaitingTime
13	1689042 155638 96907 1444975 10006.781957952574 149829.890518023887 4253 -2.4e-11 5.610943901067 34.218878026632 147.46394938625
vector 14 Aerocom.aircraft[4].dataLink[1] responseTime:vector ETV
attr "" ""
attr source computeResponseTime
14	1844680 183830 96907 1444975 10006.781957952574 149829.890518023887 4253 2.999999999977 14.610943901067 17894.218878027 79386.649719864
vector 15 Aerocom.aircraft[3].dataLink[3] queueLength:vector ETV
attr "" ""
attr source computeQueueLength
15	2028510 102467 96993 1444974 10014.171014051505 149829.890518023887 3241 0 0 0 0
vector 16 Aerocom.aircraft[3].dataLink[3] waitingTime:vector ETV
attr "" ""
attr source computeWaitingTime
16	2130977 118546 96993 1444974 10014.171014051505 149829.890518023887 3241 -2.4e-11 6.610943901079 19.665663410492 99.423775644856
vector 17 Aerocom.aircraft[3].dataLink[3] responseTime:vector ETV
attr "" ""
attr source computeResponseTime
17	2249523 139523 96993 1444974 10014.171014051505 149829.890518023887 3241 2.999999999979 13.000000000002 13781.66566341 61703.302297546
vector 18 Aerocom.aircraft[2].dataLink[3] queueLength:vector ETV
attr "" ""
attr source computeQueueLength
18	2389046 125922 97197 1442092 10036.338182348298 149526.939217967716 3995 0 1 1 1
vector 19 Aerocom.aircraft[2].dataLink[3] waitingTime:vector ETV
attr "" ""
attr source computeWaitingTime
19	2514968 146303 97197 1442092 10036.338182348298 149526.939217967716 3995 -2.4e-11 7.832831703221 66.662653631024 342.38805894834
vector 20 Aerocom.aircraft[2].dataLink[3] responseTime:vector ETV
attr "" ""
attr source computeResponseTime
20	2661271 172580 97197 1442092 10036.338182348298 149526.939217967716 3995 2.999999999987 16.832831703221 17288.662653631 79840.32786338
vector 21 Aerocom.aircraft[2].dataLink[1] queueLength:vector ETV
attr "" ""
attr source computeQueueLength
21	2833851 105479 97283 1446293 10043.727238447229 149962.893527804645 3337 0 0 0 0
vector 22 Aerocom.aircraft[2].dataLink[1] waitingTime:vector ETV
attr "" ""
attr source computeWaitingTime
22	2939330 122314 97283 1446293 10043.727238447229 149962.893527804645 3337 -2.4e-11 8.610943901062 35.331326817007 172.62867326799
vector 23 Aerocom.aircraft[2].dataLink[1] responseTime:vector ETV
attr "" ""
attr source computeResponseTime
23	3061644 143999 97283 1446293 10043.727238447229 149962.893527804645 3337 2.999999999977 15.610943901062 14524.331326817 67923.379697474
vector 24 Aerocom.aircraft[0].dataLink[4] queueLength:vector ETV
attr "" ""
attr source computeQueueLength
24	3205643 132946 97341 1445251 10051.11629454616 149859.446742419611 4190 0 1 1 1
vector 25 Aerocom.aircraft[0].dataLink[4] waitingTime:vector ETV
attr "" ""
attr source computeWaitingTime
25	3338589 154380 97341 1445251 10051.11629454616 149859.446742419611 4190 -2.4e-11 7.389056098935 36.218878027307 170.39514701527
vector 26 Aerocom.aircraft[0].dataLink[4] responseTime:vector ETV
attr "" ""
attr source computeResponseTime
26	3492969 181818 97341 1445251 10051.11629454616 149859.446742419611 4190 2.999999999976 15.389056098935 17611.218878027 78718.574897936
vector 27 Aerocom.aircraft[3].dataLink[0] queueLength:vector ETV
attr "" ""
attr source computeQueueLength
27	3674787 135592 97488 1442967 10065.894406744022 149615.607891154888 4274 0 1 1 1
vector 28 Aerocom.aircraft[3].dataLink[0] waitingTime:vector ETV
attr "" ""
attr source computeWaitingTime
28	3810379 157539 97488 1442967 10065.894406744022 149615.607891154888 4274 -2.4e-11 10.221887802135 53.875387312923 273.84586268486
vector 29 Aerocom.aircraft[3].dataLink[0] responseTime:vector ETV
attr "" ""
attr source computeResponseTime
29	3967918 185323 97488 1442967 10065.894406744022 149615.607891154888 4274 2.999999999981 15.610943901079 18328.875387313 82477.502585475
vector 30 Aerocom.aircraft[0].dataLink[1] queueLength:vector ETV
attr "" ""
attr source computeQueueLength
30	4153241 87803 97926 1430469 10110.228743337608 148329.912129940894 2778 0 0 0 0
vector 31 Aerocom.aircraft[0].dataLink[1] waitingTime:vector ETV
attr "" ""
attr source computeWaitingTime
31	4241044 101846 97926 1430469 10110.228743337608 148329.912129940894 2778 -2.3e-11 9.221887802131 56.996990223371 321.03244895352
vector 32 Aerocom.aircraft[0].dataLink[1] responseTime:vector ETV
attr "" ""
attr source computeResponseTime
32	4342890 120098 97926 1430469 10110.228743337608 148329.912129940894 2778 2.999999999986 19.221887802131 12236.996990223 58197.434087664
vector 33 Aerocom.aircraft[2].dataLink[4] queueLength:vector ETV
attr "" ""
attr source computeQueueLength
33	4462988 112465 98831 1444198 10206.286472623711 149748.610900935646 3565 0 0 0 0
vector 34 Aerocom.aircraft[2].dataLink[4] waitingTime:vector ETV
attr "" ""
attr source computeWaitingTime
34	4575453 130600 98831 1444198 10206.286472623711 149748.610900935646 3565 -2.3e-11 5.610943901071 48.440765828112 197.77099301765
vector 35 Aerocom.aircraft[2].dataLink[4] responseTime:vector ETV
attr "" ""
attr source computeResponseTime
35	4706053 154038 98831 1444198 10206.286472623711 149748.610900935646 3565 2.999999999985 14.221887802137 15322.440765828 70587.503958544
vector 36 Aerocom.aircraft[4].dataLink[2] queueLength:vector ETV
attr "" ""
attr source computeQueueLength
36	4860091 102342 98833 1446629 10206.286472623711 149999.8388082993 3232 0 0 0 0
vector 37 Aerocom.aircraft[4].dataLink[2] waitingTime:vector ETV
attr "" ""
attr source computeWaitingTime
37	4962433 118755 98833 1446629 10206.286472623711 149999.8388082993 3232 -2.3e-11 6.610943901074 32.942270717561 164.74843061923
vector 38 Aerocom.aircraft[4].dataLink[2] responseTime:vector ETV
attr "" ""
attr source computeResponseTime
38	5081188 140005 98833 1446629 10206.286472623711 149999.8388082993 3232 2.999999999977 15.610943901072 14015.942270718 64606.393025591
vector 39 Aerocom.aircraft[4].dataLink[4] queueLength:vector ETV
attr "" ""
attr source computeQueueLength
39	5221193 101408 99121 1444649 10235.842697019435 149792.945237529232 3232 0 1 1 1
vector 40 Aerocom.aircraft[4].dataLink[4] waitingTime:vector ETV
attr "" ""
attr source computeWaitingTime
40	5322601 117205 99121 1444649 10235.842697019435 149792.945237529232 3232 -2.3e-11 7.389056098927 14.832831706809 82.725215943094
vector 41 Aerocom.aircraft[4].dataLink[4] responseTime:vector ETV
attr "" ""
attr source computeResponseTime
41	5439806 138242 99121 1444649 10235.842697019435 149792.945237529232 3232 2.999999999985 13.000000000009 13769.832831707 61338.053533006
vector 42 Aerocom.aircraft[3].dataLink[2] queueLength:vector ETV
attr "" ""
attr source computeQueueLength
42	5578048 116261 99207 1446628 10243.231753118366 149999.8388082993 3661 0 0 0 0
vector 43 Aerocom.aircraft[3].dataLink[2] waitingTime:vector ETV
attr "" ""
attr source computeWaitingTime
43	5694309 134871 99207 1446628 10243.231753118366 149999.8388082993 3661 -2.4e-11 7.832831703208 46.829821927242 209.3168990732
vector 44 Aerocom.aircraft[3].dataLink[2] responseTime:vector ETV
attr "" ""
attr source computeResponseTime
44	5829180 158987 99207 1446628 10243.231753118366 149999.8388082993 3661 2.999999999979 15.832831703208 15501.829821927 68935.387210974
vector 45 Aerocom.aircraft[3].dataLink[1] queueLength:vector ETV
attr "" ""
attr source computeQueueLength
45	5988167 130272 99270 1446115 10250.620809217297 149948.115415606783 4116 0 0 0 0
vector 46 Aerocom.aircraft[3].dataLink[1] waitingTime:vector ETV
attr "" ""
attr source computeWaitingTime
46	6118439 151456 99270 1446115 10250.620809217297 149948.115415606783 4116 -2.4e-11 7.610943901074 33.720382917317 170.06514031302
vector 47 Aerocom.aircraft[3].dataLink[1] responseTime:vector ETV
attr "" ""
attr source computeResponseTime
47	6269895 178687 99270 1446115 10250.620809217297 149948.115415606783 4116 2.999999999976 20.610943901055 17400.720382917 77896.372388927
vector 48 Aerocom.aircraft[4].dataLink[3] queueLength:vector ETV
attr "" ""
attr source computeQueueLength
48	6448582 119803 99501 1445913 10272.78797751409 149925.94824730999 3772 0 0 0 0
vector 49 Aerocom.aircraft[4].dataLink[3] waitingTime:vector ETV
attr "" ""
attr source computeWaitingTime
49	6568385 139277 99501 1445913 10272.78797751409 149925.94824730999 3772 -2.4e-11 10.221887802135 29.553214620448 167.42441236545
vector 50 Aerocom.aircraft[4].dataLink[3] responseTime:vector ETV
attr "" ""
attr source computeResponseTime
50	6707662 163846 99501 1445913 10272.78797751409 149925.94824730999 3772 2.999999999976 22.221887802135 15767.55321462 69808.616202403
vector 51 Aerocom.aircraft[1].dataLink[4] queueLength:vector ETV
attr "" ""
attr source computeQueueLength
51	6871508 82649 100335 1432431 10361.456650701262 148529.416644612031 2632 0 1 1 1
vector 52 Aerocom.aircraft[1].dataLink[4] waitingTime:vector ETV
attr "" ""
attr source computeWaitingTime
52	6954157 95716 100335 1432431 10361.456650701262 148529.416644612031 2632 -2.4e-11 7.389056098929 29.164158518587 129.06383575888
vector 53 Aerocom.aircraft[1].dataLink[4] responseTime:vector ETV
attr "" ""
attr source computeResponseTime
53	7049873 112738 100335 1432431 10361.456650701262 148529.416644612031 2632 2.999999999988 16.389056098929 11646.164158519 54672.033737975
vector 54 Aerocom.aircraft[1].dataLink[3] queueLength:vector ETV
attr "" ""
attr source computeQueueLength
54	7162611 122400 100477 1435931 10376.234762899124 148898.869449558581 3855 0 1 1 1
vector 55 Aerocom.aircraft[1].dataLink[3] waitingTime:vector ETV
attr "" ""
attr source computeWaitingTime
55	7285011 142074 100477 1435931 10376.234762899124 148898.869449558581 3855 -2.4e-11 8.610943901071 34.7751024223 183.64198583248
vector 56 Aerocom.aircraft[1].dataLink[3] responseTime:vector ETV
attr "" ""
attr source computeResponseTime
56	7427085 167295 100477 1435931 10376.234762899124 148898.869449558581 3855 2.99999999998 17.610943901071 16104.775102422 71014.055663672
vector 57 Aerocom.aircraft[2].dataLink[2] queueLength:vector ETV
attr "" ""
attr source computeQueueLength
57	7594380 135750 100907 1444473 10420.56909949271 149778.16712533137 4283 0 0 0 0
vector 58 Aerocom.aircraft[2].dataLink[2] waitingTime:vector ETV
attr "" ""
attr source computeWaitingTime
58	7730130 157463 100907 1444473 10420.56909949271 149778.16712533137 4283 -2.4e-11 8.610943901072 56.607934125821 323.673813622
vector 59 Aerocom.aircraft[2].dataLink[2] responseTime:vector ETV
attr "" ""
attr source computeResponseTime
59	7887593 185590 100907 1444473 10420.56909949271 149778.16712533137 4283 2.999999999976 22.610943901072 18258.607934126 82520.184891353
vector 60 Aerocom.aircraft[0].dataLink[3] queueLength:vector ETV
attr "" ""
attr source computeQueueLength
60	8073183 142086 101193 1438679 10450.125323888434 149179.653581317959 4534 0 0 0 0
vector 61 Aerocom.aircraft[0].dataLink[3] waitingTime:vector ETV
attr "" ""
attr source computeWaitingTime
61	8215269 164558 101193 1438679 10450.125323888434 149179.653581317959 4534 -2.3e-11 3.221887802133 9.887551213347 25.081478214629
vector 62 Aerocom.aircraft[0].dataLink[3] responseTime:vector ETV
attr "" ""
attr source computeResponseTime
62	8379827 194174 101193 1438679 10450.125323888434 149179.653581317959 4534 2.999999999988 13.999999999997 19319.887551213 86720.06642935
vector 63 Aerocom.aircraft[4].dataLink[0] queueLength:vector ETV
attr "" ""
attr source computeQueueLength
63	8574001 140581 102547 1443446 10590.517389768123 149667.331283847405 4458 0 0 0 0
vector 64 Aerocom.aircraft[4].dataLink[0] waitingTime:vector ETV
attr "" ""
attr source computeWaitingTime
64	8714582 163110 102547 1443446 10590.517389768123 149667.331283847405 4458 -2.4e-11 8.443775604277 57.717373136868 233.5224334174
vector 65 Aerocom.aircraft[4].dataLink[0] responseTime:vector ETV
attr "" ""
attr source computeResponseTime
65	8877692 192202 102547 1443446 10590.517389768123 149667.331283847405 4458 2.999999999977 14.443775604277 18681.717373137 82480.574686643
vector 66 Aerocom.aircraft[1].dataLink[0] queueLength:vector ETV
attr "" ""
attr source computeQueueLength
66	9069894 173329 102681 1446421 10605.295501965985 149977.671640002507 5482 0 0 0 0
vector 67 Aerocom.aircraft[1].dataLink[0] waitingTime:vector ETV
attr "" ""
attr source computeWaitingTime
67	9243223 201181 102681 1446421 10605.295501965985 149977.671640002507 5482 -2.4e-11 5.610943901063 41.440765830972 162.68219068695
vector 68 Aerocom.aircraft[1].dataLink[0] responseTime:vector ETV
attr "" ""
attr source computeResponseTime
68	9444404 237643 102681 1446421 10605.295501965985 149977.671640002507 5482 2.999999999979 14.000000000007 21896.440765831 92861.421175792
vector 69 Aerocom.aircraft[0].dataLink[0] queueLength:vector ETV
attr "" ""
attr source computeQueueLength
69	9682047 126794 105089 1440548 10841.745297131777 149364.379983791234 4007 0 0 0 0
vector 70 Aerocom.aircraft[0].dataLink[0] waitingTime:vector ETV
attr "" ""
attr source computeWaitingTime
70	9808841 147246 105089 1440548 10841.745297131777 149364.379983791234 4007 -2.4e-11 7.221887802139 39.996990224662 179.91805888715
vector 71 Aerocom.aircraft[0].dataLink[0] responseTime:vector ETV
attr "" ""
attr source computeResponseTime
71	9956087 173626 105089 1440548 10841.745297131777 149364.379983791234 4007 2.999999999984 14.000000000006 17144.996990225 78003.781531894
vector 72 Aerocom.aircraft[1].dataLink[2] queueLength:vector ETV
attr "" ""
attr source computeQueueLength
72	10129713 112243 114857 1446626 11854.045982685324 149999.8388082993 3566 0 0 0 0
vector 73 Aerocom.aircraft[1].dataLink[2] waitingTime:vector ETV
attr "" ""
attr source computeWaitingTime
73	10241956 130217 114857 1446626 11854.045982685324 149999.8388082993 3566 -2.4e-11 6.610943901072 39.440765828065 192.10101527605
vector 74 Aerocom.aircraft[1].dataLink[2] responseTime:vector ETV
attr "" ""
attr source computeResponseTime
74	10372173 153584 114857 1446626 11854.045982685324 149999.8388082993 3566 2.999999999978 18.610943901072 15166.440765828 68065.952449153
