file 29321467 1608571030                                        
version 2
run Lognormal-selection-capacity-lognormal-interarrival-time-0-20201221-18:16:20-9140
attr configname Lognormal-selection-capacity-lognormal-interarrival-time
attr datetime 20201221-18:16:20
attr experiment Lognormal-selection-capacity-lognormal-interarrival-time
attr inifile aerocom.ini
attr iterationvars "$0=0.5s, $1=0.5s, $2=0.5"
attr iterationvarsf 0.5s,0.5s,0.5-
attr measurement "$0=0.5s, $1=0.5s, $2=0.5"
attr network Aerocom
attr processid 9140
attr repetition 0
attr replication #0
attr resultdir results
attr runnumber 0
attr seedset 0
param **.t 0.5s
param **.k 0.5s
param **.s "1500 byte"
param **.dataLink[*].X 0.5
param **.dataLink[*].dimPoolMax 400
param **.dataLink[*].dimPoolMin 100
param **.nDL 5
param **.setCapacityDistribution "\"lognormal\""
param **.aircraft[*].distribution "\"lognormal\""
param **.aircraft[*].m 10s
param **.aircraft[*].linkSelector.DLMaxCapacity 0
param **.aircraft[*].linkSelector.trasmitting false
param **.aircraft[*].linkSelector.operationMode 0

vector 0 Aerocom.aircraft[2].dataLink[1] responseTime:vector ETV
attr "" ""
attr source computeResponseTime
vector 1 Aerocom.aircraft[4].dataLink[0] responseTime:vector ETV
attr "" ""
attr source computeResponseTime
vector 2 Aerocom.aircraft[0].dataLink[3] queueLength:vector ETV
attr "" ""
attr source computeQueueLength
vector 3 Aerocom.aircraft[1].dataLink[0] queueLength:vector ETV
attr "" ""
attr source computeQueueLength
vector 4 Aerocom.aircraft[2].dataLink[1] queueLength:vector ETV
attr "" ""
attr source computeQueueLength
vector 5 Aerocom.aircraft[2].dataLink[1] waitingTime:vector ETV
attr "" ""
attr source computeWaitingTime
vector 6 Aerocom.aircraft[3].dataLink[3] queueLength:vector ETV
attr "" ""
attr source computeQueueLength
vector 7 Aerocom.aircraft[4].dataLink[1] queueLength:vector ETV
attr "" ""
attr source computeQueueLength
vector 8 Aerocom.aircraft[4].dataLink[1] waitingTime:vector ETV
attr "" ""
attr source computeWaitingTime
vector 9 Aerocom.aircraft[1].dataLink[0] responseTime:vector ETV
attr "" ""
attr source computeResponseTime
vector 10 Aerocom.aircraft[3].dataLink[3] responseTime:vector ETV
attr "" ""
attr source computeResponseTime
vector 11 Aerocom.aircraft[1].dataLink[0] waitingTime:vector ETV
attr "" ""
attr source computeWaitingTime
vector 12 Aerocom.aircraft[3].dataLink[3] waitingTime:vector ETV
attr "" ""
attr source computeWaitingTime
vector 13 Aerocom.aircraft[0].dataLink[3] responseTime:vector ETV
attr "" ""
attr source computeResponseTime
vector 14 Aerocom.aircraft[0].dataLink[3] waitingTime:vector ETV
attr "" ""
attr source computeWaitingTime
vector 15 Aerocom.aircraft[4].dataLink[1] responseTime:vector ETV
attr "" ""
attr source computeResponseTime
vector 16 Aerocom.aircraft[1].dataLink[2] queueLength:vector ETV
attr "" ""
attr source computeQueueLength
vector 17 Aerocom.aircraft[1].dataLink[2] waitingTime:vector ETV
attr "" ""
attr source computeWaitingTime
vector 18 Aerocom.aircraft[2].dataLink[3] queueLength:vector ETV
attr "" ""
attr source computeQueueLength
vector 19 Aerocom.aircraft[2].dataLink[3] waitingTime:vector ETV
attr "" ""
attr source computeWaitingTime
vector 20 Aerocom.aircraft[4].dataLink[3] queueLength:vector ETV
attr "" ""
attr source computeQueueLength
vector 21 Aerocom.aircraft[4].dataLink[3] waitingTime:vector ETV
attr "" ""
attr source computeWaitingTime
vector 22 Aerocom.aircraft[1].dataLink[2] responseTime:vector ETV
attr "" ""
attr source computeResponseTime
vector 23 Aerocom.aircraft[4].dataLink[3] responseTime:vector ETV
attr "" ""
attr source computeResponseTime
vector 24 Aerocom.aircraft[2].dataLink[3] responseTime:vector ETV
attr "" ""
attr source computeResponseTime
vector 25 Aerocom.aircraft[4].dataLink[4] queueLength:vector ETV
attr "" ""
attr source computeQueueLength
vector 26 Aerocom.aircraft[4].dataLink[4] waitingTime:vector ETV
attr "" ""
attr source computeWaitingTime
vector 27 Aerocom.aircraft[4].dataLink[4] responseTime:vector ETV
attr "" ""
attr source computeResponseTime
vector 28 Aerocom.aircraft[0].dataLink[1] queueLength:vector ETV
attr "" ""
attr source computeQueueLength
vector 29 Aerocom.aircraft[0].dataLink[1] waitingTime:vector ETV
attr "" ""
attr source computeWaitingTime
vector 30 Aerocom.aircraft[3].dataLink[4] queueLength:vector ETV
attr "" ""
attr source computeQueueLength
vector 31 Aerocom.aircraft[3].dataLink[4] waitingTime:vector ETV
attr "" ""
attr source computeWaitingTime
vector 32 Aerocom.aircraft[0].dataLink[1] responseTime:vector ETV
attr "" ""
attr source computeResponseTime
vector 33 Aerocom.aircraft[3].dataLink[4] responseTime:vector ETV
attr "" ""
attr source computeResponseTime
vector 34 Aerocom.aircraft[4].dataLink[0] queueLength:vector ETV
attr "" ""
attr source computeQueueLength
vector 35 Aerocom.aircraft[4].dataLink[0] waitingTime:vector ETV
attr "" ""
attr source computeWaitingTime
vector 36 Aerocom.aircraft[3].dataLink[0] queueLength:vector ETV
attr "" ""
attr source computeQueueLength
vector 37 Aerocom.aircraft[3].dataLink[0] waitingTime:vector ETV
attr "" ""
attr source computeWaitingTime
vector 38 Aerocom.aircraft[3].dataLink[0] responseTime:vector ETV
attr "" ""
attr source computeResponseTime
vector 39 Aerocom.aircraft[2].dataLink[4] queueLength:vector ETV
attr "" ""
attr source computeQueueLength
vector 40 Aerocom.aircraft[2].dataLink[4] waitingTime:vector ETV
attr "" ""
attr source computeWaitingTime
vector 41 Aerocom.aircraft[2].dataLink[4] responseTime:vector ETV
attr "" ""
attr source computeResponseTime
vector 42 Aerocom.aircraft[2].dataLink[0] queueLength:vector ETV
attr "" ""
attr source computeQueueLength
vector 43 Aerocom.aircraft[2].dataLink[0] waitingTime:vector ETV
attr "" ""
attr source computeWaitingTime
vector 44 Aerocom.aircraft[2].dataLink[0] responseTime:vector ETV
attr "" ""
attr source computeResponseTime
vector 45 Aerocom.aircraft[0].dataLink[4] queueLength:vector ETV
attr "" ""
attr source computeQueueLength
vector 46 Aerocom.aircraft[0].dataLink[4] waitingTime:vector ETV
attr "" ""
attr source computeWaitingTime
vector 47 Aerocom.aircraft[0].dataLink[4] responseTime:vector ETV
attr "" ""
attr source computeResponseTime
vector 48 Aerocom.aircraft[4].dataLink[2] queueLength:vector ETV
attr "" ""
attr source computeQueueLength
vector 49 Aerocom.aircraft[4].dataLink[2] waitingTime:vector ETV
attr "" ""
attr source computeWaitingTime
vector 50 Aerocom.aircraft[4].dataLink[2] responseTime:vector ETV
attr "" ""
attr source computeResponseTime
vector 51 Aerocom.aircraft[2].dataLink[2] queueLength:vector ETV
attr "" ""
attr source computeQueueLength
vector 52 Aerocom.aircraft[2].dataLink[2] waitingTime:vector ETV
attr "" ""
attr source computeWaitingTime
vector 53 Aerocom.aircraft[2].dataLink[2] responseTime:vector ETV
attr "" ""
attr source computeResponseTime
vector 54 Aerocom.aircraft[3].dataLink[1] queueLength:vector ETV
attr "" ""
attr source computeQueueLength
vector 55 Aerocom.aircraft[3].dataLink[1] waitingTime:vector ETV
attr "" ""
attr source computeWaitingTime
vector 56 Aerocom.aircraft[3].dataLink[1] responseTime:vector ETV
attr "" ""
attr source computeResponseTime
vector 57 Aerocom.aircraft[3].dataLink[2] queueLength:vector ETV
attr "" ""
attr source computeQueueLength
vector 58 Aerocom.aircraft[3].dataLink[2] waitingTime:vector ETV
attr "" ""
attr source computeWaitingTime
vector 59 Aerocom.aircraft[3].dataLink[2] responseTime:vector ETV
attr "" ""
attr source computeResponseTime
vector 60 Aerocom.aircraft[0].dataLink[0] queueLength:vector ETV
attr "" ""
attr source computeQueueLength
vector 61 Aerocom.aircraft[0].dataLink[0] waitingTime:vector ETV
attr "" ""
attr source computeWaitingTime
vector 62 Aerocom.aircraft[0].dataLink[0] responseTime:vector ETV
attr "" ""
attr source computeResponseTime
vector 63 Aerocom.aircraft[0].dataLink[2] queueLength:vector ETV
attr "" ""
attr source computeQueueLength
vector 64 Aerocom.aircraft[0].dataLink[2] waitingTime:vector ETV
attr "" ""
attr source computeWaitingTime
vector 65 Aerocom.aircraft[0].dataLink[2] responseTime:vector ETV
attr "" ""
attr source computeResponseTime
vector 66 Aerocom.aircraft[1].dataLink[1] queueLength:vector ETV
attr "" ""
attr source computeQueueLength
vector 67 Aerocom.aircraft[1].dataLink[1] waitingTime:vector ETV
attr "" ""
attr source computeWaitingTime
vector 68 Aerocom.aircraft[1].dataLink[1] responseTime:vector ETV
attr "" ""
attr source computeResponseTime
vector 69 Aerocom.aircraft[1].dataLink[4] queueLength:vector ETV
attr "" ""
attr source computeQueueLength
vector 70 Aerocom.aircraft[1].dataLink[4] waitingTime:vector ETV
attr "" ""
attr source computeWaitingTime
vector 71 Aerocom.aircraft[1].dataLink[4] responseTime:vector ETV
attr "" ""
attr source computeResponseTime
vector 72 Aerocom.aircraft[1].dataLink[3] queueLength:vector ETV
attr "" ""
attr source computeQueueLength
vector 73 Aerocom.aircraft[1].dataLink[3] waitingTime:vector ETV
attr "" ""
attr source computeWaitingTime
vector 74 Aerocom.aircraft[1].dataLink[3] responseTime:vector ETV
attr "" ""
attr source computeResponseTime
0	9326 208644 190140 2027475 10000.0483429834 106672.8738866658 4804 6092.1327676123 69961.59479453 175846316.74173 8076270020069.3
1	217970 184453 190166 2013952 10001.3996217127 105970.1673466183 4247 5221.2566579534 66523.064781309 161365644.83284 7695781145579.8
2	402423 325884 190178 2027895 10001.6432280662 106697.4970333505 10030 936 6944 39459453 185075591279
3	728307 365526 190179 2025660 10001.6432280662 106578.7891018601 11271 532 7371 44821001 221851571981
4	1093833 400674 190180 2027376 10001.6432280662 106669.4687717486 12320 997 8513 58967790 341131483060
5	1494507 208601 190180 2027361 10001.6432280662 106668.8738866658 4803 6087.0789314244 69953.59479453 175799132.60897 8073245552601.5
6	1703108 396773 190181 2027898 10001.6432280662 106697.4970333505 12205 1088 8482 58169522 332914981510
7	2099881 364983 190182 2012739 10001.6432280662 105909.4082659559 11206 919 7667 48070275 248727584943
8	2464864 193682 190182 2012688 10001.6432280662 105906.1646596024 4457 5120.9282667942 63972.034024431 178290034.25246 8673059678014.3
9	2658546 192399 190184 2025764 10002.1021791713 106583.5454955066 4433 6842.6522245101 69159.423929346 163440211.69222 7926053646490.3
10	2850945 213536 190187 2027906 10003.0483429834 106698.9021482677 4811 4943.3253206637 65152.626126628 178757261.0133 8109099459466.4
11	3064481 196787 190201 2025665 10003.2919493369 106579.5454955066 4432 6836.6522245101 69151.423929346 163394257.97003 7923187379119.2
12	3261268 213537 190203 2027906 10003.2919493369 106698.9021482677 4811 4937.9202057465 65142.626126628 178775990.0705 8110214802090.8
13	3474805 178577 190207 2027863 10003.750900442 106695.5508695384 4021 6218.7330267269 75862.368222366 165162898.65656 8966751648152.2
14	3653382 178580 190220 2027863 10004.9406706076 106695.5508695384 4021 6210.7330267269 75854.368222366 165197307.65656 8969540777508
15	3831962 198139 190226 2012817 10005.6432280662 105911.1646596024 4457 5130.9282667942 63986.034024431 178327874.25246 8676090491728.5
16	4030101 402805 190358 2025054 10011.5355556904 106549.1121189875 12048 1529 8942 63581357 389673073491
17	4432906 205406 190358 2025041 10011.5355556904 106548.868512634 4634 4736.7762107211 70891.473591205 182055339.17718 8398129062972.4
18	4638312 402282 190359 2027897 10011.5355556904 106697.4970333505 12033 710 8033 52504480 283088601860
19	5040594 208938 190359 2027903 10011.5355556904 106698.5508695384 4710 5507.4316015966 68252.114443168 160600490.1497 6961328375121.4
20	5249532 410634 190361 2023535 10011.5355556904 106469.9734979939 12258 556 7971 52247939 278769743045
21	5660166 215230 190361 2023489 10011.5355556904 106467.3786129111 4842 6090.3763739658 59841.987241327 159857369.34114 6267280650687.5
22	5875396 205407 190409 2025165 10015.5355556904 106552.868512634 4634 4744.7762107211 70899.473591205 182095553.17718 8401266773915
23	6080803 215231 190411 2023589 10015.5355556904 106471.3786129111 4842 6098.3763739658 59849.987241327 159898803.34114 6270002846459.3
24	6296034 208892 190436 2027903 10017.5355556904 106698.5508695384 4709 5515.4316015966 68260.114443168 160573281.09447 6959485476868.5
25	6504926 383970 190543 2027556 10021.4278833146 106679.3610993728 11484 851 7807 49683740 261394372658
26	6888896 200742 190543 2027557 10021.4278833146 106679.76621429 4528 6779.5418651184 69061.636587082 159769685.89706 7078355758071.8
27	7089638 200743 190599 2027713 10025.4278833146 106687.76621429 4528 6787.5418651184 69069.636587082 159808775.89706 7081125931174
28	7290381 257439 190727 2023299 10031.3202109388 106458.432449099 7733 701 5354 23375783 84460062263
29	7547820 136211 190727 2023262 10031.3202109388 106456.1888427455 3079 6080.4840463416 74066.559479844 106427556.4253 4885488133406.9
30	7684031 387829 190730 2027377 10031.3202109388 106669.4687717486 11580 617 7641 47891437 245550874231
31	8071860 202423 190730 2027315 10031.3202109388 106665.2251653951 4555 6621.2646231312 62980.206376928 156502667.66553 6478186225931.6
32	8274283 136211 190763 2023413 10034.3202109388 106462.1888427455 3079 6086.4840463416 74078.559479844 106454180.4253 4887348371165.3
33	8410494 202423 190780 2027409 10035.3202109388 106670.2251653951 4555 6627.2646231312 62990.206376928 156542505.66553 6480919422748.8
34	8612917 362516 190923 2013916 10041.212538563 105968.7622317011 10815 846 7414 44660839 223536327249
35	8975433 188655 190923 2013873 10041.212538563 105966.1673466183 4246 5213.2566579534 66515.064781309 161323623.62733 7692962805563.6
36	9164088 350072 191296 2026807 10060.9971938114 106639.791788876 10478 382 6772 37466145 169578079199
37	9514160 181468 191296 2026809 10060.9971938114 106639.8456250639 4088 2519.2461016296 63826.649110068 137921867.61755 5951382266441
38	9695628 181468 191378 2026929 10065.9971938114 106644.8456250639 4088 2529.2461016296 63832.649110068 137957611.61755 5953793753940.5
39	9877096 380257 191664 2027554 10080.7818490598 106679.3610993728 11388 350 7347 43735408 214562686094
40	10257353 194822 191664 2027534 10080.7818490598 106678.1174930193 4390 6649.2928847331 65759.652996787 147297192.76006 6626345286574.5
41	10452175 194822 191731 2027649 10085.7818490598 106683.1174930193 4390 6657.2928847331 65769.652996787 147335790.76006 6628942215475.8
42	10646997 429718 191853 2012112 10090.674176684 105879.7312830833 12827 922 8682 61582776 360535247712
43	11076715 224917 191853 2012046 10090.674176684 105875.4876767298 5066 4769.7506361351 64216.747329953 179453532.04445 7751996017584.9
44	11301632 224919 191915 2012197 10094.674176684 105882.4876767298 5066 4777.7506361351 64230.747329953 179496958.04445 7755077079597.9
45	11526551 335300 193193 2021045 10161.5691913241 106339.7245176086 10028 671 6699 37017863 166456453297
46	11861851 177420 193193 2021010 10161.5691913241 106336.4809112551 3999 5331.9645894438 64704.120104809 150747096.52363 6968460413081.8
47	12039271 177422 193244 2021127 10165.5691913241 106342.4809112551 3999 5339.9645894438 64716.120104809 150781056.52363 6970997373536.1
48	12216693 430244 193568 2027899 10181.3538465725 106697.4970333505 12887 505 8250 56432318 311878593988
49	12646937 228006 193568 2027901 10181.3538465725 106698.1995908091 5142 7694.5821703569 65219.872419997 155848756.51093 6140616356568.9
50	12874943 227960 193630 2027901 10186.3538465725 106698.1995908091 5141 7704.5821703569 65227.872419997 155827150.70041 6139028843295.6
51	13102903 338241 193912 2026633 10201.1385018209 106629.8994612518 10082 685 6807 37570755 171685603887
52	13441144 176101 193912 2026595 10201.1385018209 106627.304576169 3959 6449.7976109784 57923.578239691 145114776.27801 6056274826714.4
53	13617245 176102 193984 2026686 10207.1385018209 106631.304576169 3959 6461.7976109784 57931.578239691 145149122.27801 6058810286315.6
54	13793347 404672 194092 2027740 10211.0308294451 106689.253426997 12077 1038 8431 57219839 326434191023
55	14198019 207863 194092 2027676 10211.0308294451 106685.0098206435 4683 7044.9859897011 68920.54911526 177127142.3314 8110495197950.4
56	14405882 207863 194160 2027772 10216.0308294451 106690.0098206435 4683 7054.9859897011 68930.54911526 177168170.3314 8113590595655.3
57	14613745 411829 194650 2024465 10240.7078123177 106519.4351361149 12310 542 8048 53019889 285971060691
58	15025574 213336 194650 2024418 10240.7078123177 106516.1915297614 4803 6066.3481123639 64328.21165509 163451471.5834 7058878914682.6
59	15238910 213337 194723 2024543 10245.7078123177 106521.1915297614 4803 6074.3481123639 64338.21165509 163493265.5834 7061708748133.8
60	15452247 341639 196308 2027374 10331.3874822062 106669.4687717486 10223 473 6564 35764925 156533408571
61	15793886 183351 196308 2027314 10331.3874822062 106665.2251653951 4131 7720.9617106881 67728.874915273 147827451.03212 7204953203777.9
62	15977237 183351 196364 2027456 10335.3874822062 106672.2251653951 4131 7728.9617106881 67736.874915273 147861985.03212 7207460697740.9
63	16160588 698838 198935 2023531 10471.5287902157 106469.9734979939 20636 935 13325 146298633 1301850726937
64	16859426 366729 198935 2023445 10471.5287902157 106464.0811703697 8245 5780.4167750742 52235.489855776 224816768.03203 6774116690751.8
65	17226155 366730 199008 2023586 10477.5287902157 106471.0811703697 8245 5792.4167750742 52249.489855776 224883982.03203 6777808829409.8
66	17592885 380126 209338 2027896 11030.445300983 106697.4970333505 11383 445 7317 44530688 218912437512
67	17973011 200021 209338 2027882 11030.445300983 106696.5508695384 4510 5626.139533087 64872.235838233 152522678.17753 6468814297435.4
68	18173032 199975 209423 2027882 11034.445300983 106696.5508695384 4509 5634.139533087 64880.235838233 152497460.58634 6467292072769.7
69	18373007 396351 251749 2025461 13280.9498354885 106568.8967742359 11856 606 7798 50014160 262233644376
70	18769358 206921 251749 2025422 13280.9498354885 106566.6531678824 4663 9328.5187858085 68401.553193719 152644748.7481 6548810608844.8
71	18976279 206921 251836 2025538 13287.9498354885 106570.6531678824 4663 9338.1136708913 68409.553193719 152684946.7481 6551429646588.9
72	19183200 406659 288492 2025857 15221.4947711024 106588.6814294843 12092 535 7904 51333584 272518615704
73	19589859 210511 288492 2025840 15221.4947711024 106588.4378231308 4722 11608.646466999 53771.39552261 165951190.05396 6580501207306.5
74	19800370 210511 288531 2025993 15224.4947711024 106594.4378231308 4722 11618.646466999 53779.39552261 165991670.05396 6583330441860.2
0	20010881 89962 2029220 2846691 106764.1484416371 149773.4479027638 2009 69964.892237072 93776.183779626 164114383.00598 13537391348943
1	20100843 81585 2041463 2849656 107405.5010159394 149931.0225872924 1822 67945.911237923 93993.166266088 141222398.65331 11023585070306
2	20182428 190138 2027918 2848649 106699.1457546212 149879.1558342542 5595 6945 10318 48275301 421825838967
3	20372566 147039 2034140 2847886 107020.6464024077 149839.5865237574 4339 7371 9990 37649325 329182893323
4	20519605 176817 2029138 2846596 106760.1484416371 149768.6915091173 5139 8514 11643 51745284 525231306286
5	20696422 89962 2029138 2846563 106760.1484416371 149766.4479027638 2009 69956.892237072 93762.183779626 164096897.00598 13534529352901
6	20786384 192427 2027921 2850929 106699.1457546212 149999.5124870153 5587 8482 11838 56813290 582978821498
7	20978811 231496 2031604 2850537 106890.3974220224 149979.7278317669 6746 7668 11712 65406756 643414231448
8	21210307 120932 2031604 2850514 106890.3974220224 149978.7816679548 2701 59428.914596028 79638.23737481 200988984.94262 15031438095538
9	21331239 76959 2034166 2848021 107023.6464024077 149845.3429174039 1719 69590.335066081 91861.559433238 141676527.30279 11746794816096
10	21408198 102122 2028027 2850861 106702.9021482677 149995.2688806618 2230 65150.382520274 96115.260311644 181869346.84541 15014692204617
11	21510320 78678 2034140 2847872 107020.6464024077 149839.3429174039 1719 69582.335066081 91853.559433238 141661489.30279 11744315824558
12	21588998 102122 2028050 2850861 106704.0919184333 149995.2688806618 2230 65145.923569169 96109.611590374 181881530.07448 15016627334698
13	21691120 101747 2027925 2848791 106699.5508695384 149885.9122279007 2223 74052.072267137 89997.260790994 182409367.65784 15019677141682
14	21792867 101701 2027925 2848655 106699.5508695384 149879.9122279007 2222 74044.072267137 89989.260790994 182314929.40396 15010863000489
15	21894568 123633 2031697 2850611 106895.3974220224 149982.7816679548 2701 59434.914596028 79648.23737481 201011282.94262 15034751561592
16	22018201 212496 2028744 2842588 106740.3637863887 149559.3039077384 5971 8943 12568 64176678 696392604352
17	22230697 107363 2028744 2842540 106740.3637863887 149556.0603013849 2345 69670.01473597 99520.167178181 188745887.95856 15382613460644
18	22338060 249238 2027920 2848651 106699.1457546212 149879.1558342542 7036 8033 12325 71527119 737888552661
19	22587298 125599 2028022 2848656 106702.4431971626 149879.9122279007 2744 67855.475174388 87667.509963119 207751909.77136 15803617533515
20	22712897 154438 2030309 2850732 106821.151128653 149989.6201593911 4397 7972 10630 40919514 383400187924
21	22867335 79538 2030309 2850708 106821.151128653 149988.3765530376 1738 59947.505402652 90831.757360322 128782110.8343 9650494524264.8
22	22946873 107363 2028823 2842706 106744.3637863887 149565.0603013849 2345 69680.01473597 99538.167178181 188765997.95856 15385857770344
23	23054236 79538 2030365 2850834 106825.151128653 149993.3765530376 1738 59955.505402652 90841.757360322 128797334.8343 9652750431514.1
24	23133774 125645 2028002 2848792 106701.5508695384 149885.9122279007 2745 67863.475174388 87679.509963119 207843934.8266 15811879882384
25	23259419 167900 2027996 2837996 106700.7944758919 149318.5906022162 4779 7807 10678 44196078 412004963680
26	23427319 87304 2027996 2837978 106700.7944758919 149318.3469958627 1907 68496.82774869 97416.34500058 154053700.18091 12654620469614
27	23514623 87304 2028052 2838099 106704.7944758919 149322.3469958627 1907 68504.82774869 97424.34500058 154069636.18091 12657189239839
28	23601927 153109 2030682 2850926 106840.9357839014 149999.5124870153 4388 5355 8035 29359809 199112693939
29	23755036 78078 2030682 2850914 106840.9357839014 149999.2688806618 1707 72871.831443669 103457.96229388 146943935.50309 12811201226571
30	23833114 156730 2033135 2850731 106971.1847642867 149989.6201593911 4476 7642 10352 40265902 364937917222
31	23989844 80815 2033135 2850687 106971.1847642867 149987.3765530376 1765 63284.517254549 89714.573060058 134090613.11469 10296022740613
32	24070659 78032 2030737 2850914 106844.9357839014 149999.2688806618 1706 72877.831443669 103465.96229388 146855917.45462 12803173654498
33	24148691 80815 2033208 2850833 106976.1847642867 149993.3765530376 1765 63294.517254549 89726.573060058 134106025.11469 10298359628479
34	24229506 156862 2041405 2849585 107401.5010159394 149928.6174723752 4492 7415 10084 39308734 346617868788
35	24386368 83407 2041405 2849542 107401.5010159394 149926.0225872924 1822 67937.911237923 93977.166266088 141207098.65331 11021206983407
36	24469775 182847 2028746 2846597 106740.3637863887 149768.6915091173 5241 6772 9950 43812660 370646874332
37	24652622 94391 2028746 2846527 106740.3637863887 149763.7453453052 2062 62878.931821957 83295.047317035 145911380.13312 10390577967765
38	24747013 94391 2028803 2846670 106743.3637863887 149771.7453453052 2062 62886.931821957 83306.101153223 145929176.13312 10393097801722
39	24841404 161256 2030123 2850928 106811.2588010288 149999.5124870153 4614 7348 10172 40403700 356872217382
40	25002660 81885 2030123 2850907 106811.2588010288 149998.5663232032 1789 65796.924864742 95050.483813314 140110221.50765 11068245836427
41	25084545 81839 2030174 2850907 106815.2588010288 149998.5663232032 1788 65804.924864742 95060.483813314 140030996.15977 11061691964699
42	25166384 163209 2028745 2850338 106740.3637863887 149969.8355041427 4609 8683 11513 46442150 471034604608
43	25329593 81353 2028745 2850286 106740.3637863887 149966.5918977892 1778 65079.974718341 94569.057202269 144314133.35765 11840543330234
44	25410946 81353 2028824 2850408 106744.3637863887 149971.5918977892 1778 65087.974718341 94579.057202269 144330275.35765 11843168361454
45	25492299 218290 2040560 2848082 107360.2829841719 149849.4788513816 6234 6700 10495 53543698 467421929336
46	25710589 111562 2040560 2848016 107360.2829841719 149845.2352450281 2438 65317.146974968 80547.331516236 179999134.43181 13342240381911
47	25822151 111562 2040634 2848159 107364.2829841719 149851.2352450281 2438 65325.146974968 80555.331516236 180019926.43181 13345313867679
48	25933713 207085 2027922 2850930 106699.1457546212 149999.5124870153 5850 8250 11788 58666922 594429292678
49	26140798 105792 2028192 2850882 106710.6868035161 149996.2688806618 2311 65048.649014198 94097.522918849 181849966.07697 14467922156624
50	26246590 105792 2028008 2850882 106702.1995908091 149996.2688806618 2311 65045.810522762 94104.17164012 181840728.36458 14466412944810
51	26352382 169776 2029747 2850535 106791.4741457804 149979.7278317669 4866 6808 9790 40304227 337425032943
52	26522158 86180 2029747 2850519 106791.4741457804 149979.4842254134 1883 57959.147550188 84415.934174757 137718618.18071 10166595111466
53	26608338 86180 2029799 2850632 106795.4741457804 149983.4842254134 1883 57967.147550188 84423.934174757 137735204.18071 10169022650034
54	26694518 178391 2037003 2845844 107170.6800380414 149729.1221986205 5042 8432 11516 50302453 505856105315
55	26872909 89596 2037003 2845827 107170.6800380414 149728.878592267 1957 69338.621760559 95365.092133476 160398515.32636 13264881335045
56	26962505 89596 2037073 2845942 107175.6800380414 149732.878592267 1957 69344.621760559 95373.092133476 160415657.32636 13267691518601
57	27052101 209147 2028191 2849584 106710.6868035161 149928.6174723752 5918 8049 11606 58184190 578287852764
58	27261248 108074 2028191 2849589 106710.6868035161 149929.6713085631 2361 64515.517158679 91231.991514184 182307566.22959 14207400561243
59	27369322 108074 2028278 2849723 106716.6868035161 149935.6713085631 2361 64523.517158679 91237.991514184 182327348.22959 14210454923918
60	27477396 185034 2031237 2848451 106870.612766774 149869.26350663 5303 6565 9811 43452110 360669196826
61	27662430 94154 2031237 2848417 106870.612766774 149867.3173428179 2056 67478.86416721 86053.358002916 158665261.37454 12296296655591
62	27756584 94154 2031328 2848535 106875.612766774 149872.3173428179 2056 67488.86416721 86063.358002916 158683365.37454 12299092004680
63	27850738 170245 2028188 2846594 106710.6868035161 149768.6915091173 4744 13326 16236 70143020 1040461756440
64	28020983 83882 2028188 2846565 106710.6868035161 149766.7453453052 1833 52480.446767652 91498.786917496 135508340.39674 10237897657369
65	28104865 83882 2028272 2846709 106715.6868035161 149773.7453453052 1833 52490.446767652 91512.786917496 135524538.39674 10240288906824
66	28188747 210403 2027919 2850927 106699.1457546212 149999.5124870153 5986 7318 10931 54624213 504972088427
67	28399150 108541 2027993 2850887 106700.7944758919 149996.9176019325 2372 64154.744642937 89951.637644309 180332347.78796 13824524311263
68	28507691 108541 2027979 2850887 106700.5508695384 149996.9176019325 2372 64160.744642937 89957.28636558 180327041.74151 13823661998388
69	28616232 199561 2029746 2849582 106791.4741457804 149928.6174723752 5662 7799 11258 53889435 518485113877
70	28815793 100858 2029746 2849587 106791.4741457804 149929.3738660217 2203 68624.725450346 91026.657748994 178168192.9492 14467722585725
71	28916651 100858 2029798 2849721 106795.4741457804 149935.3738660217 2203 68632.725450346 91038.657748994 178187368.9492 14470827128429
72	29017509 151112 2034325 2850337 107030.5387300319 149969.8355041427 4306 7905 10540 39678785 368110350831
73	29168621 76422 2034325 2850291 107030.5387300319 149967.5918977892 1670 51863.82501241 82699.615331958 114373590.21359 7975987576814
74	29245043 76422 2034385 2850431 107034.5387300319 149973.5918977892 1670 51871.82501241 82707.615331958 114388508.21359 7978032539334.9

