file 10810218 1608574644                                        
version 2
run Lognormal-selection-capacity-lognormal-interarrival-time-2409-20201221-19:17:16-19380
attr configname Lognormal-selection-capacity-lognormal-interarrival-time
attr datetime 20201221-19:17:16
attr experiment Lognormal-selection-capacity-lognormal-interarrival-time
attr inifile aerocom.ini
attr iterationvars "$0=1.5s, $1=2s, $2=2"
attr iterationvarsf 1.5s,2s,2-
attr measurement "$0=1.5s, $1=2s, $2=2"
attr network Aerocom
attr processid 19380
attr repetition 9
attr replication #9
attr resultdir results
attr runnumber 2409
attr seedset 9
param **.t 1.5s
param **.k 2s
param **.s "1500 byte"
param **.dataLink[*].X 2
param **.dataLink[*].dimPoolMax 400
param **.dataLink[*].dimPoolMin 100
param **.nDL 5
param **.setCapacityDistribution "\"lognormal\""
param **.aircraft[*].distribution "\"lognormal\""
param **.aircraft[*].m 10s
param **.aircraft[*].linkSelector.DLMaxCapacity 0
param **.aircraft[*].linkSelector.trasmitting false
param **.aircraft[*].linkSelector.operationMode 0

vector 0 Aerocom.aircraft[0].dataLink[2] queueLength:vector ETV
attr "" ""
attr source computeQueueLength
vector 1 Aerocom.aircraft[0].dataLink[2] waitingTime:vector ETV
attr "" ""
attr source computeWaitingTime
vector 2 Aerocom.aircraft[0].dataLink[2] responseTime:vector ETV
attr "" ""
attr source computeResponseTime
vector 3 Aerocom.aircraft[1].dataLink[1] queueLength:vector ETV
attr "" ""
attr source computeQueueLength
vector 4 Aerocom.aircraft[1].dataLink[1] waitingTime:vector ETV
attr "" ""
attr source computeWaitingTime
vector 5 Aerocom.aircraft[1].dataLink[1] responseTime:vector ETV
attr "" ""
attr source computeResponseTime
vector 6 Aerocom.aircraft[2].dataLink[0] queueLength:vector ETV
attr "" ""
attr source computeQueueLength
vector 7 Aerocom.aircraft[2].dataLink[0] waitingTime:vector ETV
attr "" ""
attr source computeWaitingTime
vector 8 Aerocom.aircraft[2].dataLink[0] responseTime:vector ETV
attr "" ""
attr source computeResponseTime
vector 9 Aerocom.aircraft[3].dataLink[4] queueLength:vector ETV
attr "" ""
attr source computeQueueLength
vector 10 Aerocom.aircraft[3].dataLink[4] waitingTime:vector ETV
attr "" ""
attr source computeWaitingTime
vector 11 Aerocom.aircraft[3].dataLink[4] responseTime:vector ETV
attr "" ""
attr source computeResponseTime
vector 12 Aerocom.aircraft[4].dataLink[1] queueLength:vector ETV
attr "" ""
attr source computeQueueLength
vector 13 Aerocom.aircraft[4].dataLink[1] waitingTime:vector ETV
attr "" ""
attr source computeWaitingTime
vector 14 Aerocom.aircraft[4].dataLink[1] responseTime:vector ETV
attr "" ""
attr source computeResponseTime
vector 15 Aerocom.aircraft[3].dataLink[3] queueLength:vector ETV
attr "" ""
attr source computeQueueLength
vector 16 Aerocom.aircraft[3].dataLink[3] waitingTime:vector ETV
attr "" ""
attr source computeWaitingTime
vector 17 Aerocom.aircraft[3].dataLink[3] responseTime:vector ETV
attr "" ""
attr source computeResponseTime
vector 18 Aerocom.aircraft[2].dataLink[3] queueLength:vector ETV
attr "" ""
attr source computeQueueLength
vector 19 Aerocom.aircraft[2].dataLink[3] waitingTime:vector ETV
attr "" ""
attr source computeWaitingTime
vector 20 Aerocom.aircraft[2].dataLink[3] responseTime:vector ETV
attr "" ""
attr source computeResponseTime
vector 21 Aerocom.aircraft[2].dataLink[1] queueLength:vector ETV
attr "" ""
attr source computeQueueLength
vector 22 Aerocom.aircraft[2].dataLink[1] waitingTime:vector ETV
attr "" ""
attr source computeWaitingTime
vector 23 Aerocom.aircraft[2].dataLink[1] responseTime:vector ETV
attr "" ""
attr source computeResponseTime
vector 24 Aerocom.aircraft[0].dataLink[4] queueLength:vector ETV
attr "" ""
attr source computeQueueLength
vector 25 Aerocom.aircraft[0].dataLink[4] waitingTime:vector ETV
attr "" ""
attr source computeWaitingTime
vector 26 Aerocom.aircraft[0].dataLink[4] responseTime:vector ETV
attr "" ""
attr source computeResponseTime
vector 27 Aerocom.aircraft[3].dataLink[0] queueLength:vector ETV
attr "" ""
attr source computeQueueLength
vector 28 Aerocom.aircraft[3].dataLink[0] waitingTime:vector ETV
attr "" ""
attr source computeWaitingTime
vector 29 Aerocom.aircraft[3].dataLink[0] responseTime:vector ETV
attr "" ""
attr source computeResponseTime
vector 30 Aerocom.aircraft[0].dataLink[1] queueLength:vector ETV
attr "" ""
attr source computeQueueLength
vector 31 Aerocom.aircraft[0].dataLink[1] waitingTime:vector ETV
attr "" ""
attr source computeWaitingTime
vector 32 Aerocom.aircraft[0].dataLink[1] responseTime:vector ETV
attr "" ""
attr source computeResponseTime
vector 33 Aerocom.aircraft[2].dataLink[4] queueLength:vector ETV
attr "" ""
attr source computeQueueLength
vector 34 Aerocom.aircraft[2].dataLink[4] waitingTime:vector ETV
attr "" ""
attr source computeWaitingTime
vector 35 Aerocom.aircraft[2].dataLink[4] responseTime:vector ETV
attr "" ""
attr source computeResponseTime
vector 36 Aerocom.aircraft[4].dataLink[2] queueLength:vector ETV
attr "" ""
attr source computeQueueLength
vector 37 Aerocom.aircraft[4].dataLink[2] waitingTime:vector ETV
attr "" ""
attr source computeWaitingTime
vector 38 Aerocom.aircraft[4].dataLink[2] responseTime:vector ETV
attr "" ""
attr source computeResponseTime
vector 39 Aerocom.aircraft[4].dataLink[4] queueLength:vector ETV
attr "" ""
attr source computeQueueLength
vector 40 Aerocom.aircraft[4].dataLink[4] waitingTime:vector ETV
attr "" ""
attr source computeWaitingTime
vector 41 Aerocom.aircraft[4].dataLink[4] responseTime:vector ETV
attr "" ""
attr source computeResponseTime
vector 42 Aerocom.aircraft[3].dataLink[2] queueLength:vector ETV
attr "" ""
attr source computeQueueLength
vector 43 Aerocom.aircraft[3].dataLink[2] waitingTime:vector ETV
attr "" ""
attr source computeWaitingTime
vector 44 Aerocom.aircraft[3].dataLink[2] responseTime:vector ETV
attr "" ""
attr source computeResponseTime
vector 45 Aerocom.aircraft[3].dataLink[1] queueLength:vector ETV
attr "" ""
attr source computeQueueLength
vector 46 Aerocom.aircraft[3].dataLink[1] waitingTime:vector ETV
attr "" ""
attr source computeWaitingTime
vector 47 Aerocom.aircraft[3].dataLink[1] responseTime:vector ETV
attr "" ""
attr source computeResponseTime
vector 48 Aerocom.aircraft[4].dataLink[3] queueLength:vector ETV
attr "" ""
attr source computeQueueLength
vector 49 Aerocom.aircraft[4].dataLink[3] waitingTime:vector ETV
attr "" ""
attr source computeWaitingTime
vector 50 Aerocom.aircraft[4].dataLink[3] responseTime:vector ETV
attr "" ""
attr source computeResponseTime
vector 51 Aerocom.aircraft[1].dataLink[4] queueLength:vector ETV
attr "" ""
attr source computeQueueLength
vector 52 Aerocom.aircraft[1].dataLink[4] waitingTime:vector ETV
attr "" ""
attr source computeWaitingTime
vector 53 Aerocom.aircraft[1].dataLink[4] responseTime:vector ETV
attr "" ""
attr source computeResponseTime
vector 54 Aerocom.aircraft[1].dataLink[3] queueLength:vector ETV
attr "" ""
attr source computeQueueLength
vector 55 Aerocom.aircraft[1].dataLink[3] waitingTime:vector ETV
attr "" ""
attr source computeWaitingTime
vector 56 Aerocom.aircraft[1].dataLink[3] responseTime:vector ETV
attr "" ""
attr source computeResponseTime
vector 57 Aerocom.aircraft[2].dataLink[2] queueLength:vector ETV
attr "" ""
attr source computeQueueLength
vector 58 Aerocom.aircraft[2].dataLink[2] waitingTime:vector ETV
attr "" ""
attr source computeWaitingTime
vector 59 Aerocom.aircraft[2].dataLink[2] responseTime:vector ETV
attr "" ""
attr source computeResponseTime
vector 60 Aerocom.aircraft[0].dataLink[3] queueLength:vector ETV
attr "" ""
attr source computeQueueLength
vector 61 Aerocom.aircraft[0].dataLink[3] waitingTime:vector ETV
attr "" ""
attr source computeWaitingTime
vector 62 Aerocom.aircraft[0].dataLink[3] responseTime:vector ETV
attr "" ""
attr source computeResponseTime
vector 63 Aerocom.aircraft[4].dataLink[0] queueLength:vector ETV
attr "" ""
attr source computeQueueLength
vector 64 Aerocom.aircraft[4].dataLink[0] waitingTime:vector ETV
attr "" ""
attr source computeWaitingTime
vector 65 Aerocom.aircraft[4].dataLink[0] responseTime:vector ETV
attr "" ""
attr source computeResponseTime
vector 66 Aerocom.aircraft[1].dataLink[0] queueLength:vector ETV
attr "" ""
attr source computeQueueLength
vector 67 Aerocom.aircraft[1].dataLink[0] waitingTime:vector ETV
attr "" ""
attr source computeWaitingTime
vector 68 Aerocom.aircraft[1].dataLink[0] responseTime:vector ETV
attr "" ""
attr source computeResponseTime
vector 69 Aerocom.aircraft[0].dataLink[0] queueLength:vector ETV
attr "" ""
attr source computeQueueLength
vector 70 Aerocom.aircraft[0].dataLink[0] waitingTime:vector ETV
attr "" ""
attr source computeWaitingTime
vector 71 Aerocom.aircraft[0].dataLink[0] responseTime:vector ETV
attr "" ""
attr source computeResponseTime
vector 72 Aerocom.aircraft[1].dataLink[2] queueLength:vector ETV
attr "" ""
attr source computeQueueLength
vector 73 Aerocom.aircraft[1].dataLink[2] waitingTime:vector ETV
attr "" ""
attr source computeWaitingTime
vector 74 Aerocom.aircraft[1].dataLink[2] responseTime:vector ETV
attr "" ""
attr source computeResponseTime
0	9318 108607 96903 1446625 10006.781957952574 149999.8388082993 3438 0 0 0 0
1	117925 125990 96903 1446625 10006.781957952574 149999.8388082993 3438 -2.4e-011 7.610943901067 48.996990222838 223.80196359441
2	243915 148488 96903 1446625 10006.781957952574 149999.8388082993 3438 2.999999999977 18.610943901067 14857.996990223 68533.768856038
3	392403 107615 96904 1443359 10006.781957952574 149659.942227748474 3412 0 1 1 1
4	500018 124812 96904 1443359 10006.781957952574 149659.942227748474 3412 -2.4e-011 7.389056098925 33.498495113739 159.92710378601
5	624830 146876 96904 1443359 10006.781957952574 149659.942227748474 3412 2.999999999979 13.999999999998 14598.498495114 66140.684147553
6	771706 118620 96905 1446627 10006.781957952574 149999.8388082993 3767 0 0 0 0
7	890326 137472 96905 1446627 10006.781957952574 149999.8388082993 3767 -2.4e-011 7.61094390107 58.440765827734 272.4506368221
8	1027798 162074 96905 1446627 10006.781957952574 149999.8388082993 3767 2.99999999998 19.61094390107 16350.440765828 75320.511919375
9	1189872 113644 96906 1382858 10006.781957952574 143416.189824151779 3655 0 0 0 0
10	1303516 135242 96906 1382858 10006.781957952574 143416.189824151779 3655 -2.3e-011 4.610943901072 24.942270717517 87.642001389093
11	1438758 159253 96906 1382858 10006.781957952574 143416.189824151779 3655 2.999999999991 13.610943901072 15572.942270717 69728.396035372
12	1598011 138355 96907 1444975 10006.781957952574 149829.890518023887 4253 0 0 0 0
13	1736366 159891 96907 1444975 10006.781957952574 149829.890518023887 4253 -2.4e-011 5.610943901067 34.218878026632 147.46394938625
14	1896257 188083 96907 1444975 10006.781957952574 149829.890518023887 4253 2.999999999977 14.610943901067 17894.218878027 79386.649719864
15	2084340 105708 96993 1444974 10014.171014051505 149829.890518023887 3241 0 0 0 0
16	2190048 121787 96993 1444974 10014.171014051505 149829.890518023887 3241 -2.4e-011 6.610943901079 19.665663410492 99.423775644856
17	2311835 142764 96993 1444974 10014.171014051505 149829.890518023887 3241 2.999999999979 13.000000000002 13781.66566341 61703.302297546
18	2454599 129917 97197 1442092 10036.338182348298 149526.939217967716 3995 0 1 1 1
19	2584516 150298 97197 1442092 10036.338182348298 149526.939217967716 3995 -2.4e-011 7.832831703221 66.662653631024 342.38805894834
20	2734814 176575 97197 1442092 10036.338182348298 149526.939217967716 3995 2.999999999987 16.832831703221 17288.662653631 79840.32786338
21	2911389 108816 97283 1446293 10043.727238447229 149962.893527804645 3337 0 0 0 0
22	3020205 125651 97283 1446293 10043.727238447229 149962.893527804645 3337 -2.4e-011 8.610943901062 35.331326817007 172.62867326799
23	3145856 147336 97283 1446293 10043.727238447229 149962.893527804645 3337 2.999999999977 15.610943901062 14524.331326817 67923.379697474
24	3293192 137136 97341 1445251 10051.11629454616 149859.446742419611 4190 0 1 1 1
25	3430328 158570 97341 1445251 10051.11629454616 149859.446742419611 4190 -2.4e-011 7.389056098935 36.218878027307 170.39514701527
26	3588898 186008 97341 1445251 10051.11629454616 149859.446742419611 4190 2.999999999976 15.389056098935 17611.218878027 78718.574897936
27	3774906 139866 97488 1442967 10065.894406744022 149615.607891154888 4274 0 1 1 1
28	3914772 161813 97488 1442967 10065.894406744022 149615.607891154888 4274 -2.4e-011 10.221887802135 53.875387312923 273.84586268486
29	4076585 189597 97488 1442967 10065.894406744022 149615.607891154888 4274 2.999999999981 15.610943901079 18328.875387313 82477.502585475
30	4266182 90581 97926 1430469 10110.228743337608 148329.912129940894 2778 0 0 0 0
31	4356763 104624 97926 1430469 10110.228743337608 148329.912129940894 2778 -2.3e-011 9.221887802131 56.996990223371 321.03244895352
32	4461387 122876 97926 1430469 10110.228743337608 148329.912129940894 2778 2.999999999986 19.221887802131 12236.996990223 58197.434087664
33	4584263 116030 98831 1444198 10206.286472623711 149748.610900935646 3565 0 0 0 0
34	4700293 134165 98831 1444198 10206.286472623711 149748.610900935646 3565 -2.3e-011 5.610943901071 48.440765828112 197.77099301765
35	4834458 157603 98831 1444198 10206.286472623711 149748.610900935646 3565 2.999999999985 14.221887802137 15322.440765828 70587.503958544
36	4992061 105574 98833 1446629 10206.286472623711 149999.8388082993 3232 0 0 0 0
37	5097635 121987 98833 1446629 10206.286472623711 149999.8388082993 3232 -2.3e-011 6.610943901074 32.942270717561 164.74843061923
38	5219622 143237 98833 1446629 10206.286472623711 149999.8388082993 3232 2.999999999977 15.610943901072 14015.942270718 64606.393025591
39	5362859 104640 99121 1444649 10235.842697019435 149792.945237529232 3232 0 1 1 1
40	5467499 120437 99121 1444649 10235.842697019435 149792.945237529232 3232 -2.3e-011 7.389056098927 14.832831706809 82.725215943094
41	5587936 141474 99121 1444649 10235.842697019435 149792.945237529232 3232 2.999999999985 13.000000000009 13769.832831707 61338.053533006
42	5729410 119922 99207 1446628 10243.231753118366 149999.8388082993 3661 0 0 0 0
43	5849332 138532 99207 1446628 10243.231753118366 149999.8388082993 3661 -2.4e-011 7.832831703208 46.829821927242 209.3168990732
44	5987864 162648 99207 1446628 10243.231753118366 149999.8388082993 3661 2.999999999979 15.832831703208 15501.829821927 68935.387210974
45	6150512 134388 99270 1446115 10250.620809217297 149948.115415606783 4116 0 0 0 0
46	6284900 155572 99270 1446115 10250.620809217297 149948.115415606783 4116 -2.4e-011 7.610943901074 33.720382917317 170.06514031302
47	6440472 182803 99270 1446115 10250.620809217297 149948.115415606783 4116 2.999999999976 20.610943901055 17400.720382917 77896.372388927
48	6623275 123575 99501 1445913 10272.78797751409 149925.94824730999 3772 0 0 0 0
49	6746850 143049 99501 1445913 10272.78797751409 149925.94824730999 3772 -2.4e-011 10.221887802135 29.553214620448 167.42441236545
50	6889899 167618 99501 1445913 10272.78797751409 149925.94824730999 3772 2.999999999976 22.221887802135 15767.55321462 69808.616202403
51	7057517 85281 100335 1432431 10361.456650701262 148529.416644612031 2632 0 1 1 1
52	7142798 98348 100335 1432431 10361.456650701262 148529.416644612031 2632 -2.4e-011 7.389056098929 29.164158518587 129.06383575888
53	7241146 115370 100335 1432431 10361.456650701262 148529.416644612031 2632 2.999999999988 16.389056098929 11646.164158519 54672.033737975
54	7356516 126255 100477 1435931 10376.234762899124 148898.869449558581 3855 0 1 1 1
55	7482771 145929 100477 1435931 10376.234762899124 148898.869449558581 3855 -2.4e-011 8.610943901071 34.7751024223 183.64198583248
56	7628700 171150 100477 1435931 10376.234762899124 148898.869449558581 3855 2.99999999998 17.610943901071 16104.775102422 71014.055663672
57	7799850 140033 100907 1444473 10420.56909949271 149778.16712533137 4283 0 0 0 0
58	7939883 161746 100907 1444473 10420.56909949271 149778.16712533137 4283 -2.4e-011 8.610943901072 56.607934125821 323.673813622
59	8101629 189873 100907 1444473 10420.56909949271 149778.16712533137 4283 2.999999999976 22.610943901072 18258.607934126 82520.184891353
60	8291502 146620 101193 1438679 10450.125323888434 149179.653581317959 4534 0 0 0 0
61	8438122 169092 101193 1438679 10450.125323888434 149179.653581317959 4534 -2.3e-011 3.221887802133 9.887551213347 25.081478214629
62	8607214 198708 101193 1438679 10450.125323888434 149179.653581317959 4534 2.999999999988 13.999999999997 19319.887551213 86720.06642935
63	8805922 145039 102547 1443446 10590.517389768123 149667.331283847405 4458 0 0 0 0
64	8950961 167568 102547 1443446 10590.517389768123 149667.331283847405 4458 -2.4e-011 8.443775604277 57.717373136868 233.5224334174
65	9118529 196660 102547 1443446 10590.517389768123 149667.331283847405 4458 2.999999999977 14.443775604277 18681.717373137 82480.574686643
66	9315189 178811 102681 1446421 10605.295501965985 149977.671640002507 5482 0 0 0 0
67	9494000 206663 102681 1446421 10605.295501965985 149977.671640002507 5482 -2.4e-011 5.610943901063 41.440765830972 162.68219068695
68	9700663 243125 102681 1446421 10605.295501965985 149977.671640002507 5482 2.999999999979 14.000000000007 21896.440765831 92861.421175792
69	9943788 130801 105089 1440548 10841.745297131777 149364.379983791234 4007 0 0 0 0
70	10074589 151253 105089 1440548 10841.745297131777 149364.379983791234 4007 -2.4e-011 7.221887802139 39.996990224662 179.91805888715
71	10225842 177633 105089 1440548 10841.745297131777 149364.379983791234 4007 2.999999999984 14.000000000006 17144.996990225 78003.781531894
72	10403475 115809 114857 1446626 11854.045982685324 149999.8388082993 3566 0 0 0 0
73	10519284 133783 114857 1446626 11854.045982685324 149999.8388082993 3566 -2.4e-011 6.610943901072 39.440765828065 192.10101527605
74	10653067 157149 114857 1446626 11854.045982685324 149999.8388082993 3566 2.999999999978 18.610943901072 15166.440765828 68065.952449153

