file 28562359 1608577349                                        
version 2
run Lognormal-selection-capacity-lognormal-interarrival-time-0-20201221-18:16:20-9140
attr configname Lognormal-selection-capacity-lognormal-interarrival-time
attr datetime 20201221-18:16:20
attr experiment Lognormal-selection-capacity-lognormal-interarrival-time
attr inifile aerocom.ini
attr iterationvars "$0=0.5s, $1=0.5s, $2=0.5"
attr iterationvarsf 0.5s,0.5s,0.5-
attr measurement "$0=0.5s, $1=0.5s, $2=0.5"
attr network Aerocom
attr processid 9140
attr repetition 0
attr replication #0
attr resultdir results
attr runnumber 0
attr seedset 0
param **.t 0.5s
param **.k 0.5s
param **.s "1500 byte"
param **.dataLink[*].X 0.5
param **.dataLink[*].dimPoolMax 400
param **.dataLink[*].dimPoolMin 100
param **.nDL 5
param **.setCapacityDistribution "\"lognormal\""
param **.aircraft[*].distribution "\"lognormal\""
param **.aircraft[*].m 10s
param **.aircraft[*].linkSelector.DLMaxCapacity 0
param **.aircraft[*].linkSelector.trasmitting false
param **.aircraft[*].linkSelector.operationMode 0

vector 0 Aerocom.aircraft[2].dataLink[1] responseTime:vector ETV
attr "" ""
attr source computeResponseTime
0	9071 203840 190140 2027475 10000.0483429834 106672.8738866658 4804 6092.1327676123 69961.59479453 175846316.74173 8076270020069.3
0	19486338 87953 2029220 2846691 106764.1484416371 149773.4479027638 2009 69964.892237072 93776.183779626 164114383.00598 13537391348943
vector 1 Aerocom.aircraft[4].dataLink[0] responseTime:vector ETV
attr "" ""
attr source computeResponseTime
1	212911 180206 190166 2013952 10001.3996217127 105970.1673466183 4247 5221.2566579534 66523.064781309 161365644.83284 7695781145579.9
1	19574291 79763 2041463 2849656 107405.5010159394 149931.0225872924 1822 67945.911237923 93993.166266088 141222398.65331 11023585070306
vector 2 Aerocom.aircraft[0].dataLink[3] queueLength:vector ETV
attr "" ""
attr source computeQueueLength
2	393117 315854 190178 2027895 10001.6432280662 106697.4970333505 10030 936 6944 39459453 185075591279
2	19654054 184543 2027918 2848649 106699.1457546212 149879.1558342542 5595 6945 10318 48275301 421825838967
vector 3 Aerocom.aircraft[1].dataLink[0] queueLength:vector ETV
attr "" ""
attr source computeQueueLength
3	708971 354255 190179 2025660 10001.6432280662 106578.7891018601 11271 532 7371 44821001 221851571981
3	19838597 142700 2034140 2847886 107020.6464024077 149839.5865237574 4339 7371 9990 37649325 329182893323
vector 4 Aerocom.aircraft[2].dataLink[1] queueLength:vector ETV
attr "" ""
attr source computeQueueLength
4	1063226 388354 190180 2027376 10001.6432280662 106669.4687717486 12320 997 8513 58967790 341131483060
4	19981297 171678 2029138 2846596 106760.1484416371 149768.6915091173 5139 8514 11643 51745284 525231306286
vector 5 Aerocom.aircraft[2].dataLink[1] waitingTime:vector ETV
attr "" ""
attr source computeWaitingTime
5	1451580 203798 190180 2027361 10001.6432280662 106668.8738866658 4803 6087.0789314244 69953.59479453 175799132.60897 8073245552601.5
5	20152975 87953 2029138 2846563 106760.1484416371 149766.4479027638 2009 69956.892237072 93762.183779626 164096897.00598 13534529352901
vector 6 Aerocom.aircraft[3].dataLink[3] queueLength:vector ETV
attr "" ""
attr source computeQueueLength
6	1655378 384568 190181 2027898 10001.6432280662 106697.4970333505 12205 1088 8482 58169522 332914981510
6	20240928 186840 2027921 2850929 106699.1457546212 149999.5124870153 5587 8482 11838 56813290 582978821498
vector 7 Aerocom.aircraft[4].dataLink[1] queueLength:vector ETV
attr "" ""
attr source computeQueueLength
7	2039946 353777 190182 2012739 10001.6432280662 105909.4082659559 11206 919 7667 48070275 248727584943
7	20427768 224750 2031604 2850537 106890.3974220224 149979.7278317669 6746 7668 11712 65406756 643414231448
vector 8 Aerocom.aircraft[4].dataLink[1] waitingTime:vector ETV
attr "" ""
attr source computeWaitingTime
8	2393723 189225 190182 2012688 10001.6432280662 105906.1646596024 4457 5120.9282667942 63972.034024431 178290034.25246 8673059678014.3
8	20652518 118231 2031604 2850514 106890.3974220224 149978.7816679548 2701 59428.914596028 79638.23737481 200988984.94262 15031438095538
vector 9 Aerocom.aircraft[1].dataLink[0] responseTime:vector ETV
attr "" ""
attr source computeResponseTime
9	2582948 187966 190184 2025764 10002.1021791713 106583.5454955066 4433 6842.6522245101 69159.423929346 163440211.69222 7926053646490.3
9	20770749 75240 2034166 2848021 107023.6464024077 149845.3429174039 1719 69590.335066081 91861.559433238 141676527.30279 11746794816096
vector 10 Aerocom.aircraft[3].dataLink[3] responseTime:vector ETV
attr "" ""
attr source computeResponseTime
10	2770914 208725 190187 2027906 10003.0483429834 106698.9021482677 4811 4943.3253206637 65152.626126628 178757261.0133 8109099459466.4
10	20845989 99892 2028027 2850861 106702.9021482677 149995.2688806618 2230 65150.382520274 96115.260311644 181869346.84541 15014692204617
vector 11 Aerocom.aircraft[1].dataLink[0] waitingTime:vector ETV
attr "" ""
attr source computeWaitingTime
11	2979639 192355 190201 2025665 10003.2919493369 106579.5454955066 4432 6836.6522245101 69151.423929346 163394257.97003 7923187379119.2
11	20945881 76959 2034140 2847872 107020.6464024077 149839.3429174039 1719 69582.335066081 91853.559433238 141661489.30279 11744315824558
vector 12 Aerocom.aircraft[3].dataLink[3] waitingTime:vector ETV
attr "" ""
attr source computeWaitingTime
12	3171994 208726 190203 2027906 10003.2919493369 106698.9021482677 4811 4937.9202057465 65142.626126628 178775990.0705 8110214802090.8
12	21022840 99892 2028050 2850861 106704.0919184333 149995.2688806618 2230 65145.923569169 96109.611590374 181881530.07448 15016627334698
vector 13 Aerocom.aircraft[0].dataLink[3] responseTime:vector ETV
attr "" ""
attr source computeResponseTime
13	3380720 174556 190207 2027863 10003.750900442 106695.5508695384 4021 6218.7330267269 75862.368222366 165162898.65656 8966751648152.2
13	21122732 99524 2027925 2848791 106699.5508695384 149885.9122279007 2223 74052.072267137 89997.260790994 182409367.65784 15019677141682
vector 14 Aerocom.aircraft[0].dataLink[3] waitingTime:vector ETV
attr "" ""
attr source computeWaitingTime
14	3555276 174559 190220 2027863 10004.9406706076 106695.5508695384 4021 6210.7330267269 75854.368222366 165197307.65656 8969540777508
14	21222256 99479 2027925 2848655 106699.5508695384 149879.9122279007 2222 74044.072267137 89989.260790994 182314929.40396 15010863000489
vector 15 Aerocom.aircraft[4].dataLink[1] responseTime:vector ETV
attr "" ""
attr source computeResponseTime
15	3729835 193682 190226 2012817 10005.6432280662 105911.1646596024 4457 5130.9282667942 63986.034024431 178327874.25246 8676090491728.5
15	21321735 120932 2031697 2850611 106895.3974220224 149982.7816679548 2701 59434.914596028 79648.23737481 201011282.94262 15034751561592
vector 16 Aerocom.aircraft[1].dataLink[2] queueLength:vector ETV
attr "" ""
attr source computeQueueLength
16	3923517 390757 190358 2025054 10011.5355556904 106549.1121189875 12048 1529 8942 63581357 389673073491
16	21442667 206525 2028744 2842588 106740.3637863887 149559.3039077384 5971 8943 12568 64176678 696392604352
vector 17 Aerocom.aircraft[1].dataLink[2] waitingTime:vector ETV
attr "" ""
attr source computeWaitingTime
17	4314274 200772 190358 2025041 10011.5355556904 106548.868512634 4634 4736.7762107211 70891.473591205 182055339.17718 8398129062972.4
17	21649192 105018 2028744 2842540 106740.3637863887 149556.0603013849 2345 69670.01473597 99520.167178181 188745887.95856 15382613460644
vector 18 Aerocom.aircraft[2].dataLink[3] queueLength:vector ETV
attr "" ""
attr source computeQueueLength
18	4515046 390249 190359 2027897 10011.5355556904 106697.4970333505 12033 710 8033 52504480 283088601860
18	21754210 242202 2027920 2848651 106699.1457546212 149879.1558342542 7036 8033 12325 71527119 737888552661
vector 19 Aerocom.aircraft[2].dataLink[3] waitingTime:vector ETV
attr "" ""
attr source computeWaitingTime
19	4905295 204228 190359 2027903 10011.5355556904 106698.5508695384 4710 5507.4316015966 68252.114443168 160600490.1497 6961328375121.4
19	21996412 122855 2028022 2848656 106702.4431971626 149879.9122279007 2744 67855.475174388 87667.509963119 207751909.77136 15803617533515
vector 20 Aerocom.aircraft[4].dataLink[3] queueLength:vector ETV
attr "" ""
attr source computeQueueLength
20	5109523 398376 190361 2023535 10011.5355556904 106469.9734979939 12258 556 7971 52247939 278769743045
20	22119267 150041 2030309 2850732 106821.151128653 149989.6201593911 4397 7972 10630 40919514 383400187924
vector 21 Aerocom.aircraft[4].dataLink[3] waitingTime:vector ETV
attr "" ""
attr source computeWaitingTime
21	5507899 210388 190361 2023489 10011.5355556904 106467.3786129111 4842 6090.3763739658 59841.987241327 159857369.34114 6267280650687.5
21	22269308 77800 2030309 2850708 106821.151128653 149988.3765530376 1738 59947.505402652 90831.757360322 128782110.8343 9650494524264.8
vector 22 Aerocom.aircraft[1].dataLink[2] responseTime:vector ETV
attr "" ""
attr source computeResponseTime
22	5718287 200773 190409 2025165 10015.5355556904 106552.868512634 4634 4744.7762107211 70899.473591205 182095553.17718 8401266773915
22	22347108 105018 2028823 2842706 106744.3637863887 149565.0603013849 2345 69680.01473597 99538.167178181 188765997.95856 15385857770344
vector 23 Aerocom.aircraft[4].dataLink[3] responseTime:vector ETV
attr "" ""
attr source computeResponseTime
23	5919060 210389 190411 2023589 10015.5355556904 106471.3786129111 4842 6098.3763739658 59849.987241327 159898803.34114 6270002846459.3
23	22452126 77800 2030365 2850834 106825.151128653 149993.3765530376 1738 59955.505402652 90841.757360322 128797334.8343 9652750431514.1
vector 24 Aerocom.aircraft[2].dataLink[3] responseTime:vector ETV
attr "" ""
attr source computeResponseTime
24	6129449 204183 190436 2027903 10017.5355556904 106698.5508695384 4709 5515.4316015966 68260.114443168 160573281.09447 6959485476868.5
24	22529926 122900 2028002 2848792 106701.5508695384 149885.9122279007 2745 67863.475174388 87679.509963119 207843934.8266 15811879882384
vector 25 Aerocom.aircraft[4].dataLink[4] queueLength:vector ETV
attr "" ""
attr source computeQueueLength
25	6333632 372486 190543 2027556 10021.4278833146 106679.3610993728 11484 851 7807 49683740 261394372658
25	22652826 163121 2027996 2837996 106700.7944758919 149318.5906022162 4779 7807 10678 44196078 412004963680
vector 26 Aerocom.aircraft[4].dataLink[4] waitingTime:vector ETV
attr "" ""
attr source computeWaitingTime
26	6706118 196214 190543 2027557 10021.4278833146 106679.76621429 4528 6779.5418651184 69061.636587082 159769685.89706 7078355758071.8
26	22815947 85397 2027996 2837978 106700.7944758919 149318.3469958627 1907 68496.82774869 97416.34500058 154053700.18091 12654620469614
vector 27 Aerocom.aircraft[4].dataLink[4] responseTime:vector ETV
attr "" ""
attr source computeResponseTime
27	6902332 196215 190599 2027713 10025.4278833146 106687.76621429 4528 6787.5418651184 69069.636587082 159808775.89706 7081125931174
27	22901344 85397 2028052 2838099 106704.7944758919 149322.3469958627 1907 68504.82774869 97424.34500058 154069636.18091 12657189239839
vector 28 Aerocom.aircraft[0].dataLink[1] queueLength:vector ETV
attr "" ""
attr source computeQueueLength
28	7098547 249706 190727 2023299 10031.3202109388 106458.432449099 7733 701 5354 23375783 84460062263
28	22986741 148721 2030682 2850926 106840.9357839014 149999.5124870153 4388 5355 8035 29359809 199112693939
vector 29 Aerocom.aircraft[0].dataLink[1] waitingTime:vector ETV
attr "" ""
attr source computeWaitingTime
29	7348253 133132 190727 2023262 10031.3202109388 106456.1888427455 3079 6080.4840463416 74066.559479844 106427556.4253 4885488133406.9
29	23135462 76371 2030682 2850914 106840.9357839014 149999.2688806618 1707 72871.831443669 103457.96229388 146943935.50309 12811201226571
vector 30 Aerocom.aircraft[3].dataLink[4] queueLength:vector ETV
attr "" ""
attr source computeQueueLength
30	7481385 376249 190730 2027377 10031.3202109388 106669.4687717486 11580 617 7641 47891437 245550874231
30	23211833 152254 2033135 2850731 106971.1847642867 149989.6201593911 4476 7642 10352 40265902 364937917222
vector 31 Aerocom.aircraft[3].dataLink[4] waitingTime:vector ETV
attr "" ""
attr source computeWaitingTime
31	7857634 197868 190730 2027315 10031.3202109388 106665.2251653951 4555 6621.2646231312 62980.206376928 156502667.66553 6478186225931.6
31	23364087 79050 2033135 2850687 106971.1847642867 149987.3765530376 1765 63284.517254549 89714.573060058 134090613.11469 10296022740613
vector 32 Aerocom.aircraft[0].dataLink[1] responseTime:vector ETV
attr "" ""
attr source computeResponseTime
32	8055502 133132 190763 2023413 10034.3202109388 106462.1888427455 3079 6086.4840463416 74078.559479844 106454180.4253 4887348371165.3
32	23443137 76326 2030737 2850914 106844.9357839014 149999.2688806618 1706 72877.831443669 103465.96229388 146855917.45462 12803173654498
vector 33 Aerocom.aircraft[3].dataLink[4] responseTime:vector ETV
attr "" ""
attr source computeResponseTime
33	8188634 197868 190780 2027409 10035.3202109388 106670.2251653951 4555 6627.2646231312 62990.206376928 156542505.66553 6480919422748.8
33	23519463 79050 2033208 2850833 106976.1847642867 149993.3765530376 1765 63294.517254549 89726.573060058 134106025.11469 10298359628479
vector 34 Aerocom.aircraft[4].dataLink[0] queueLength:vector ETV
attr "" ""
attr source computeQueueLength
34	8386502 351701 190923 2013916 10041.212538563 105968.7622317011 10815 846 7414 44660839 223536327249
34	23598513 152370 2041405 2849585 107401.5010159394 149928.6174723752 4492 7415 10084 39308734 346617868788
vector 35 Aerocom.aircraft[4].dataLink[0] waitingTime:vector ETV
attr "" ""
attr source computeWaitingTime
35	8738203 184409 190923 2013873 10041.212538563 105966.1673466183 4246 5213.2566579534 66515.064781309 161323623.62733 7692962805563.6
35	23750883 81585 2041405 2849542 107401.5010159394 149926.0225872924 1822 67937.911237923 93977.166266088 141207098.65331 11021206983407
vector 36 Aerocom.aircraft[3].dataLink[0] queueLength:vector ETV
attr "" ""
attr source computeQueueLength
36	8922612 339594 191296 2026807 10060.9971938114 106639.791788876 10478 382 6772 37466145 169578079199
36	23832468 177606 2028746 2846597 106740.3637863887 149768.6915091173 5241 6772 9950 43812660 370646874332
vector 37 Aerocom.aircraft[3].dataLink[0] waitingTime:vector ETV
attr "" ""
attr source computeWaitingTime
37	9262206 177380 191296 2026809 10060.9971938114 106639.8456250639 4088 2519.2461016296 63826.649110068 137921867.61755 5951382266441
37	24010074 92329 2028746 2846527 106740.3637863887 149763.7453453052 2062 62878.931821957 83295.047317035 145911380.13312 10390577967765
vector 38 Aerocom.aircraft[3].dataLink[0] responseTime:vector ETV
attr "" ""
attr source computeResponseTime
38	9439586 177380 191378 2026929 10065.9971938114 106644.8456250639 4088 2529.2461016296 63832.649110068 137957611.61755 5953793753940.5
38	24102403 92329 2028803 2846670 106743.3637863887 149771.7453453052 2062 62886.931821957 83306.101153223 145929176.13312 10393097801722
vector 39 Aerocom.aircraft[2].dataLink[4] queueLength:vector ETV
attr "" ""
attr source computeQueueLength
39	9616966 368869 191664 2027554 10080.7818490598 106679.3610993728 11388 350 7347 43735408 214562686094
39	24194732 156642 2030123 2850928 106811.2588010288 149999.5124870153 4614 7348 10172 40403700 356872217382
vector 40 Aerocom.aircraft[2].dataLink[4] waitingTime:vector ETV
attr "" ""
attr source computeWaitingTime
40	9985835 190432 191664 2027534 10080.7818490598 106678.1174930193 4390 6649.2928847331 65759.652996787 147297192.76006 6626345286574.5
40	24351374 80096 2030123 2850907 106811.2588010288 149998.5663232032 1789 65796.924864742 95050.483813314 140110221.50765 11068245836427
vector 41 Aerocom.aircraft[2].dataLink[4] responseTime:vector ETV
attr "" ""
attr source computeResponseTime
41	10176267 190432 191731 2027649 10085.7818490598 106683.1174930193 4390 6657.2928847331 65769.652996787 147335790.76006 6628942215475.8
41	24431470 80051 2030174 2850907 106815.2588010288 149998.5663232032 1788 65804.924864742 95060.483813314 140030996.15977 11061691964699
vector 42 Aerocom.aircraft[2].dataLink[0] queueLength:vector ETV
attr "" ""
attr source computeQueueLength
42	10366699 416891 191853 2012112 10090.674176684 105879.7312830833 12827 922 8682 61582776 360535247712
42	24511521 158600 2028745 2850338 106740.3637863887 149969.8355041427 4609 8683 11513 46442150 471034604608
vector 43 Aerocom.aircraft[2].dataLink[0] waitingTime:vector ETV
attr "" ""
attr source computeWaitingTime
43	10783590 219851 191853 2012046 10090.674176684 105875.4876767298 5066 4769.7506361351 64216.747329953 179453532.04445 7751996017584.9
43	24670121 79575 2028745 2850286 106740.3637863887 149966.5918977892 1778 65079.974718341 94569.057202269 144314133.35765 11840543330234
vector 44 Aerocom.aircraft[2].dataLink[0] responseTime:vector ETV
attr "" ""
attr source computeResponseTime
44	11003441 219853 191915 2012197 10094.674176684 105882.4876767298 5066 4777.7506361351 64230.747329953 179496958.04445 7755077079597.9
44	24749696 79575 2028824 2850408 106744.3637863887 149971.5918977892 1778 65087.974718341 94579.057202269 144330275.35765 11843168361454
vector 45 Aerocom.aircraft[0].dataLink[4] queueLength:vector ETV
attr "" ""
attr source computeQueueLength
45	11223294 325272 193193 2021045 10161.5691913241 106339.7245176086 10028 671 6699 37017863 166456453297
45	24829271 212056 2040560 2848082 107360.2829841719 149849.4788513816 6234 6700 10495 53543698 467421929336
vector 46 Aerocom.aircraft[0].dataLink[4] waitingTime:vector ETV
attr "" ""
attr source computeWaitingTime
46	11548566 173421 193193 2021010 10161.5691913241 106336.4809112551 3999 5331.9645894438 64704.120104809 150747096.52363 6968460413081.8
46	25041327 109124 2040560 2848016 107360.2829841719 149845.2352450281 2438 65317.146974968 80547.331516236 179999134.43181 13342240381911
vector 47 Aerocom.aircraft[0].dataLink[4] responseTime:vector ETV
attr "" ""
attr source computeResponseTime
47	11721987 173423 193244 2021127 10165.5691913241 106342.4809112551 3999 5339.9645894438 64716.120104809 150781056.52363 6970997373536.1
47	25150451 109124 2040634 2848159 107364.2829841719 149851.2352450281 2438 65325.146974968 80555.331516236 180019926.43181 13345313867679
vector 48 Aerocom.aircraft[4].dataLink[2] queueLength:vector ETV
attr "" ""
attr source computeQueueLength
48	11895410 417357 193568 2027899 10181.3538465725 106697.4970333505 12887 505 8250 56432318 311878593988
48	25259575 201235 2027922 2850930 106699.1457546212 149999.5124870153 5850 8250 11788 58666922 594429292678
vector 49 Aerocom.aircraft[4].dataLink[2] waitingTime:vector ETV
attr "" ""
attr source computeWaitingTime
49	12312767 222864 193568 2027901 10181.3538465725 106698.1995908091 5142 7694.5821703569 65219.872419997 155848756.51093 6140616356568.8
49	25460810 103481 2028192 2850882 106710.6868035161 149996.2688806618 2311 65048.649014198 94097.522918849 181849966.07697 14467922156624
vector 50 Aerocom.aircraft[4].dataLink[2] responseTime:vector ETV
attr "" ""
attr source computeResponseTime
50	12535631 222819 193630 2027901 10186.3538465725 106698.1995908091 5141 7704.5821703569 65227.872419997 155827150.70041 6139028843295.6
50	25564291 103481 2028008 2850882 106702.1995908091 149996.2688806618 2311 65045.810522762 94104.17164012 181840728.36458 14466412944810
vector 51 Aerocom.aircraft[2].dataLink[2] queueLength:vector ETV
attr "" ""
attr source computeQueueLength
51	12758450 328159 193912 2026633 10201.1385018209 106629.8994612518 10082 685 6807 37570755 171685603887
51	25667772 164910 2029747 2850535 106791.4741457804 149979.7278317669 4866 6808 9790 40304227 337425032943
vector 52 Aerocom.aircraft[2].dataLink[2] waitingTime:vector ETV
attr "" ""
attr source computeWaitingTime
52	13086609 172142 193912 2026595 10201.1385018209 106627.304576169 3959 6449.7976109784 57923.578239691 145114776.27801 6056274826714.4
52	25832682 84297 2029747 2850519 106791.4741457804 149979.4842254134 1883 57959.147550188 84415.934174757 137718618.18071 10166595111466
vector 53 Aerocom.aircraft[2].dataLink[2] responseTime:vector ETV
attr "" ""
attr source computeResponseTime
53	13258751 172143 193984 2026686 10207.1385018209 106631.304576169 3959 6461.7976109784 57931.578239691 145149122.27801 6058810286315.6
53	25916979 84297 2029799 2850632 106795.4741457804 149983.4842254134 1883 57967.147550188 84423.934174757 137735204.18071 10169022650034
vector 54 Aerocom.aircraft[3].dataLink[1] queueLength:vector ETV
attr "" ""
attr source computeQueueLength
54	13430894 392595 194092 2027740 10211.0308294451 106689.253426997 12077 1038 8431 57219839 326434191023
54	26001276 173349 2037003 2845844 107170.6800380414 149729.1221986205 5042 8432 11516 50302453 505856105315
vector 55 Aerocom.aircraft[3].dataLink[1] waitingTime:vector ETV
attr "" ""
attr source computeWaitingTime
55	13823489 203180 194092 2027676 10211.0308294451 106685.0098206435 4683 7044.9859897011 68920.54911526 177127142.3314 8110495197950.4
55	26174625 87639 2037003 2845827 107170.6800380414 149728.878592267 1957 69338.621760559 95365.092133476 160398515.32636 13264881335045
vector 56 Aerocom.aircraft[3].dataLink[1] responseTime:vector ETV
attr "" ""
attr source computeResponseTime
56	14026669 203180 194160 2027772 10216.0308294451 106690.0098206435 4683 7054.9859897011 68930.54911526 177168170.3314 8113590595655.3
56	26262264 87639 2037073 2845942 107175.6800380414 149732.878592267 1957 69344.621760559 95373.092133476 160415657.32636 13267691518601
vector 57 Aerocom.aircraft[3].dataLink[2] queueLength:vector ETV
attr "" ""
attr source computeQueueLength
57	14229849 399519 194650 2024465 10240.7078123177 106519.4351361149 12310 542 8048 53019889 285971060691
57	26349903 203229 2028191 2849584 106710.6868035161 149928.6174723752 5918 8049 11606 58184190 578287852764
vector 58 Aerocom.aircraft[3].dataLink[2] waitingTime:vector ETV
attr "" ""
attr source computeWaitingTime
58	14629368 208533 194650 2024418 10240.7078123177 106516.1915297614 4803 6066.3481123639 64328.21165509 163451471.5834 7058878914682.6
58	26553132 105713 2028191 2849589 106710.6868035161 149929.6713085631 2361 64515.517158679 91231.991514184 182307566.22959 14207400561243
vector 59 Aerocom.aircraft[3].dataLink[2] responseTime:vector ETV
attr "" ""
attr source computeResponseTime
59	14837901 208534 194723 2024543 10245.7078123177 106521.1915297614 4803 6074.3481123639 64338.21165509 163493265.5834 7061708748133.8
59	26658845 105713 2028278 2849723 106716.6868035161 149935.6713085631 2361 64523.517158679 91237.991514184 182327348.22959 14210454923918
vector 60 Aerocom.aircraft[0].dataLink[0] queueLength:vector ETV
attr "" ""
attr source computeQueueLength
60	15046435 331416 196308 2027374 10331.3874822062 106669.4687717486 10223 473 6564 35764925 156533408571
60	26764558 179731 2031237 2848451 106870.612766774 149869.26350663 5303 6565 9811 43452110 360669196826
vector 61 Aerocom.aircraft[0].dataLink[0] waitingTime:vector ETV
attr "" ""
attr source computeWaitingTime
61	15377851 179220 196308 2027314 10331.3874822062 106665.2251653951 4131 7720.9617106881 67728.874915273 147827451.03212 7204953203777.9
61	26944289 92098 2031237 2848417 106870.612766774 149867.3173428179 2056 67478.86416721 86053.358002916 158665261.37454 12296296655591
vector 62 Aerocom.aircraft[0].dataLink[0] responseTime:vector ETV
attr "" ""
attr source computeResponseTime
62	15557071 179220 196364 2027456 10335.3874822062 106672.2251653951 4131 7728.9617106881 67736.874915273 147861985.03212 7207460697740.9
62	27036387 92098 2031328 2848535 106875.612766774 149872.3173428179 2056 67488.86416721 86063.358002916 158683365.37454 12299092004680
vector 63 Aerocom.aircraft[0].dataLink[2] queueLength:vector ETV
attr "" ""
attr source computeQueueLength
63	15736291 678202 198935 2023531 10471.5287902157 106469.9734979939 20636 935 13325 146298633 1301850726937
63	27128485 165501 2028188 2846594 106710.6868035161 149768.6915091173 4744 13326 16236 70143020 1040461756440
vector 64 Aerocom.aircraft[0].dataLink[2] waitingTime:vector ETV
attr "" ""
attr source computeWaitingTime
64	16414493 358484 198935 2023445 10471.5287902157 106464.0811703697 8245 5780.4167750742 52235.489855776 224816768.03203 6774116690751.8
64	27293986 82049 2028188 2846565 106710.6868035161 149766.7453453052 1833 52480.446767652 91498.786917496 135508340.39674 10237897657369
vector 65 Aerocom.aircraft[0].dataLink[2] responseTime:vector ETV
attr "" ""
attr source computeResponseTime
65	16772977 358485 199008 2023586 10477.5287902157 106471.0811703697 8245 5792.4167750742 52249.489855776 224883982.03203 6777808829409.8
65	27376035 82049 2028272 2846709 106715.6868035161 149773.7453453052 1833 52490.446767652 91512.786917496 135524538.39674 10240288906824
vector 66 Aerocom.aircraft[1].dataLink[1] queueLength:vector ETV
attr "" ""
attr source computeQueueLength
66	17131462 368743 209338 2027896 11030.445300983 106697.4970333505 11383 445 7317 44530688 218912437512
66	27458084 204417 2027919 2850927 106699.1457546212 149999.5124870153 5986 7318 10931 54624213 504972088427
vector 67 Aerocom.aircraft[1].dataLink[1] waitingTime:vector ETV
attr "" ""
attr source computeWaitingTime
67	17500205 195511 209338 2027882 11030.445300983 106696.5508695384 4510 5626.139533087 64872.235838233 152522678.17753 6468814297435.4
67	27662501 106169 2027993 2850887 106700.7944758919 149996.9176019325 2372 64154.744642937 89951.637644309 180332347.78796 13824524311263
vector 68 Aerocom.aircraft[1].dataLink[1] responseTime:vector ETV
attr "" ""
attr source computeResponseTime
68	17695716 195466 209423 2027882 11034.445300983 106696.5508695384 4509 5634.139533087 64880.235838233 152497460.58634 6467292072769.7
68	27768670 106169 2027979 2850887 106700.5508695384 149996.9176019325 2372 64160.744642937 89957.28636558 180327041.74151 13823661998388
vector 69 Aerocom.aircraft[1].dataLink[4] queueLength:vector ETV
attr "" ""
attr source computeQueueLength
69	17891182 384495 251749 2025461 13280.9498354885 106568.8967742359 11856 606 7798 50014160 262233644376
69	27874839 193899 2029746 2849582 106791.4741457804 149928.6174723752 5662 7799 11258 53889435 518485113877
vector 70 Aerocom.aircraft[1].dataLink[4] waitingTime:vector ETV
attr "" ""
attr source computeWaitingTime
70	18275677 202258 251749 2025422 13280.9498354885 106566.6531678824 4663 9328.5187858085 68401.553193719 152644748.7481 6548810608844.8
70	28068738 98655 2029746 2849587 106791.4741457804 149929.3738660217 2203 68624.725450346 91026.657748994 178168192.9492 14467722585725
vector 71 Aerocom.aircraft[1].dataLink[4] responseTime:vector ETV
attr "" ""
attr source computeResponseTime
71	18477935 202258 251836 2025538 13287.9498354885 106570.6531678824 4663 9338.1136708913 68409.553193719 152684946.7481 6551429646588.9
71	28167393 98655 2029798 2849721 106795.4741457804 149935.3738660217 2203 68632.725450346 91038.657748994 178187368.9492 14470827128429
vector 72 Aerocom.aircraft[1].dataLink[3] queueLength:vector ETV
attr "" ""
attr source computeQueueLength
72	18680193 394567 288492 2025857 15221.4947711024 106588.6814294843 12092 535 7904 51333584 272518615704
72	28266048 146806 2034325 2850337 107030.5387300319 149969.8355041427 4306 7905 10540 39678785 368110350831
vector 73 Aerocom.aircraft[1].dataLink[3] waitingTime:vector ETV
attr "" ""
attr source computeWaitingTime
73	19074760 205789 288492 2025840 15221.4947711024 106588.4378231308 4722 11608.646466999 53771.39552261 165951190.05396 6580501207306.5
73	28412854 74752 2034325 2850291 107030.5387300319 149967.5918977892 1670 51863.82501241 82699.615331958 114373590.21359 7975987576814
vector 74 Aerocom.aircraft[1].dataLink[3] responseTime:vector ETV
attr "" ""
attr source computeResponseTime
74	19280549 205789 288531 2025993 15224.4947711024 106594.4378231308 4722 11618.646466999 53779.39552261 165991670.05396 6583330441860.2
74	28487606 74753 2034385 2850431 107034.5387300319 149973.5918977892 1670 51871.82501241 82707.615331958 114388508.21359 7978032539334.9
