file 1428231 1612888988                                         
version 2
run Non-monitoring-1-20210209-17:43:08-31136
attr configname Non-monitoring
attr datetime 20210209-17:43:08
attr experiment Non-monitoring
attr inifile aerocom.ini
attr iterationvars ""
attr iterationvarsf ""
attr measurement ""
attr network Aerocom
attr processid 31136
attr repetition 1
attr replication #1
attr resultdir results
attr runnumber 1
attr seedset 1
param **.t 1s
param **.k 50ms
param **.nA 1
param **.nDL 1
param **.s "70 byte"
param **.X 0s
param **.dimPoolMax 9000
param **.dimPoolMin 9000
param **.tDistribution "\"exponential\""
param **.m 1s
param **.DLMaxCapacity 0
param **.trasmitting false
param **.operationMode 1

vector 0 Aerocom.aircraft[0].packetGenerator arrivalTime:vector ETV
attr "" ""
attr source computeArrivalTime
vector 1 Aerocom.aircraft[0].dataLink[0] queueLength:vector ETV
attr "" ""
attr source computeQueueLength
vector 2 Aerocom.aircraft[0].dataLink[0] waitingTime:vector ETV
attr "" ""
attr source computeWaitingTime
vector 3 Aerocom.aircraft[0].dataLink[0] serviceTime:vector ETV
attr "" ""
attr source computeServiceTime
vector 4 Aerocom.aircraft[0].dataLink[0] responseTime:vector ETV
attr "" ""
attr source computeResponseTime
vector 5 Aerocom.aircraft[0].dataLink[0] tDistribution:vector ETV
attr "" ""
attr source computeTDistribution
0	1345 312792 1101 40251 10.070387184435 399.966895424537 7758 1.3484563e-005 0.53076813277 390.00950041313 38.629752309698
1	314137 212802 1103 40253 10.070387184435 399.966895424537 7758 0 2 96 102
2	526939 227722 1103 40253 10.070387184435 399.966895424537 7758 0 0.018848990575 5.086746474491 0.032071648449171
3	754661 344690 1103 40253 10.070387184435 399.966895424537 7758 0.0077777777777778 0.0077777777777778 60.339999999994 0.46931111111115
4	1099351 313543 1103 40253 10.070387184435 399.966895424537 7758 0.007777777778 0.026626768353 65.426746476223 0.58050992697035
5	1412894 15335 1211 39815 11.210335135261 394.933388056324 365 0.0016435199686904 5.8872733794159 389.61032630047 825.75751328074

