version 2
run Non-monitoring-8-20210209-17:43:12-26720
attr configname Non-monitoring
attr datetime 20210209-17:43:12
attr experiment Non-monitoring
attr inifile aerocom.ini
attr iterationvars ""
attr iterationvarsf ""
attr measurement ""
attr network Aerocom
attr processid 26720
attr repetition 8
attr replication #8
attr resultdir results
attr runnumber 8
attr seedset 8
param **.t 1s
param **.k 50ms
param **.nA 1
param **.nDL 1
param **.s "70 byte"
param **.X 0s
param **.dimPoolMax 9000
param **.dimPoolMin 9000
param **.tDistribution "\"exponential\""
param **.m 1s
param **.DLMaxCapacity 0
param **.trasmitting false
param **.operationMode 1

vector 0 Aerocom.aircraft[0].packetGenerator arrivalTime:vector ETV
attr "" ""
attr source computeArrivalTime
vector 1 Aerocom.aircraft[0].dataLink[0] queueLength:vector ETV
attr "" ""
attr source computeQueueLength
vector 2 Aerocom.aircraft[0].dataLink[0] waitingTime:vector ETV
attr "" ""
attr source computeWaitingTime
vector 3 Aerocom.aircraft[0].dataLink[0] serviceTime:vector ETV
attr "" ""
attr source computeServiceTime
vector 4 Aerocom.aircraft[0].dataLink[0] responseTime:vector ETV
attr "" ""
attr source computeResponseTime
vector 5 Aerocom.aircraft[0].dataLink[0] tDistribution:vector ETV
attr "" ""
attr source computeTDistribution
0	832	10.105600204358	0.021067029571
0	837	10.126667233929	0.143598123344
0	842	10.270265357273	0.042327698836
0	847	10.312593056109	0.004362117152
0	851	10.316955173261	0.009046886973
0	856	10.326002060234	0.010846241302
0	862	10.336848301536	0.049931461936
0	867	10.386779763472	0.016526107557
0	872	10.403305871029	0.003390689402
0	876	10.406696560431	0.010100603886
0	881	10.416797164317	0.122020105459
0	887	10.538817269776	0.111919715978
0	892	10.650736985754	0.004641631387
0	896	10.655378617141	0.055429222811
0	902	10.710807839952	0.011118922308
0	907	10.72192676226	0.009489437605
0	912	10.731416199865	0.031928470076
0	917	10.763344669941	0.092396712852
0	922	10.855741382793	0.029080037791
0	927	10.884821420584	0.043440186494
0	932	10.928261607078	0.072525952126
0	938	11.000787559204	0.008557634672
0	943	11.009345193876	0.000641271599
0	947	11.009986465475	0.00727779753
0	952	11.017264263005	0.057075409812
0	958	11.074339672817	0.043945831763
0	963	11.11828550458	0.016120760263
0	968	11.134406264843	0.008797458865
0	973	11.143203723708	0.046314505873
0	978	11.189518229581	0.022870056357
0	983	11.212388285938	0.039479913324
0	988	11.251868199262	0.167551306894
0	993	11.419419506156	0.011772815296
0	998	11.431192321452	0.065406794531
0	1003	11.496599115983	0.007316229581
0	1007	11.503915345564	0.065105776148
0	1013	11.569021121712	0.073302088682
0	1018	11.642323210394	0.035403880623
0	1024	11.677727091017	0.032178272094
0	1029	11.709905363111	0.006768374313
0	1033	11.716673737424	0.036606166247
0	1039	11.753279903671	0.004398504171
0	1043	11.757678407842	0.144292841212
0	1049	11.901971249054	0.025589977453
0	1054	11.927561226507	0.051574608286
0	1059	11.979135834793	0.212662080769
0	1064	12.191797915562	0.028834951482
0	1069	12.220632867044	0.019570861237
0	1074	12.240203728281	0.031161256759
0	1079	12.27136498504	0.024646901672
0	1084	12.296011886712	0.014306261009
0	1089	12.310318147721	0.024539447081
0	1094	12.334857594802	0.014836771464
0	1099	12.349694366266	0.012334277555
0	1104	12.362028643821	0.001163127872
0	1108	12.363191771693	0.006578265635
0	1111	12.369770037328	0.134711130907
0	1119	12.504481168235	0.021947953312
0	1124	12.526429121547	0.024900324007
0	1129	12.551329445554	0.048085720439
0	1134	12.599415165993	0.052247041789
0	1139	12.651662207782	0.019205016083
0	1144	12.670867223865	0.022060276882
0	1149	12.692927500747	0.050431473869
0	1154	12.743358974616	0.005851438625
0	1158	12.749210413241	0.019966665289
0	1164	12.76917707853	0.029760948952
0	1169	12.798938027482	0.041724130849
0	1174	12.840662158331	0.031642491564
0	1179	12.872304649895	0.136642340645
0	1184	13.00894699054	0.002995243438
0	1188	13.011942233978	0.085238634916
0	1194	13.097180868894	0.084805294928
0	1199	13.181986163822	0.050004113974
0	1204	13.231990277796	0.017078146255
0	1209	13.249068424051	0.070379599701
0	1214	13.319448023752	0.052647256879
0	1220	13.372095280631	0.037906765261
0	1225	13.410002045892	0.008344400236
0	1230	13.418346446128	0.064559129245
0	1235	13.482905575373	0.037567538848
0	1240	13.520473114221	0.016890812986
0	1245	13.537363927207	0.057308549448
0	1250	13.594672476655	0.059853672252
0	1255	13.654526148907	0.062204961655
0	1260	13.716731110562	0.114215118288
0	1265	13.83094622885	0.067859438798
0	1270	13.898805667648	0.213183697541
0	1275	14.111989365189	0.043224583983
0	1280	14.155213949172	0.294263986771
0	1285	14.449477935943	0.023942107395
0	1290	14.473420043338	0.043922964772
0	1295	14.51734300811	0.072419045876
0	1300	14.589762053986	0.117372983328
0	1306	14.707135037314	0.002629772009
0	1310	14.709764809323	0.000979176055
0	1313	14.710743985378	0.121712375264
0	1321	14.832456360642	0.0366391679
0	1326	14.869095528542	0.028727601868
0	1331	14.89782313041	0.015218761271
0	1336	14.913041891681	0.050523405459
0	1341	14.96356529714	0.053650859598
0	1346	15.017216156738	0.086136151506
0	1351	15.103352308244	0.052733776685
0	1356	15.156086084929	0.009691994624
0	1361	15.165778079553	0.036344873738
0	1366	15.202122953291	0.040124837348
0	1371	15.242247790639	0.020547102653
0	1376	15.262794893292	0.039748653645
0	1381	15.302543546937	0.047690989504
0	1386	15.350234536441	0.126491902334
0	1391	15.476726438775	0.089005033033
0	1396	15.565731471808	0.089574044935
0	1402	15.655305516743	0.008703973039
0	1407	15.664009489782	0.053943280903
0	1412	15.717952770685	0.016592334206
0	1417	15.734545104891	0.058510576067
0	1422	15.793055680958	0.010011273905
0	1427	15.803066954863	0.016860829061
0	1432	15.819927783924	0.066608895269
0	1438	15.886536679193	0.116072532869
0	1443	16.002609212062	0.073902045228
0	1448	16.07651125729	0.002840362662
0	1452	16.079351619952	0.059333917908
0	1458	16.13868553786	0.027330942829
0	1463	16.166016480689	0.021722587773
0	1468	16.187739068462	0.07729865018
0	1473	16.265037718642	0.080573298229
0	1479	16.345611016871	0.131059586927
0	1484	16.476670603798	0.01852189736
0	1489	16.495192501158	0.008565563918
0	1494	16.503758065076	0.003525716084
0	1498	16.50728378116	0.040888409603
0	1505	16.548172190763	0.048939643257
0	1510	16.59711183402	0.029998486967
0	1515	16.627110320987	0.008414959539
0	1520	16.635525280526	0.069112200308
0	1525	16.704637480834	0.021017378674
0	1530	16.725654859508	0.091396382572
0	1535	16.81705124208	0.046161999693
0	1540	16.863213241773	0.002332290986
0	1544	16.865545532759	0.101175805691
0	1550	16.96672133845	0.03522487346
0	1555	17.00194621191	0.131178382112
0	1560	17.133124594022	0.04443557878
0	1565	17.177560172802	0.061550892475
0	1570	17.239111065277	0.003187917992
0	1574	17.242298983269	0.127845821675
0	1580	17.370144804944	0.001261906546
0	1584	17.37140671149	0.153928491625
0	1590	17.525335203115	0.04489670479
0	1596	17.570231907905	0.097665666528
0	1601	17.667897574433	0.067234168306
0	1606	17.735131742739	0.163279649531
0	1611	17.89841139227	0.000486556942
0	1615	17.898897949212	0.063824073616
0	1621	17.962722022828	0.201689755892
0	1626	18.16441177872	0.012375137309
0	1631	18.176786916029	0.00234900435
0	1635	18.179135920379	0.004105131189
0	1638	18.183241051568	0.041828375288
0	1646	18.225069426856	0.026029930034
0	1651	18.25109935689	0.005237607053
0	1655	18.256336963943	0.077137847704
0	1662	18.333474811647	0.021565073372
0	1667	18.355039885019	0.047527984511
0	1672	18.40256786953	0.025082018623
0	1677	18.427649888153	0.063927665445
0	1682	18.491577553598	0.024492595053
0	1687	18.516070148651	0.00698426718
0	1691	18.523054415831	0.02576671938
0	1697	18.548821135211	0.217577213869
0	1703	18.76639834908	0.132903144787
0	1710	18.899301493867	0.017595006628
0	1715	18.916896500495	0.14248445143
0	1720	19.059380951925	0.013259059985
0	1725	19.07264001191	0.009937207332
0	1730	19.082577219242	0.008765222505
0	1735	19.091342441747	0.06556177687
0	1740	19.156904218617	0.057730042674
0	1745	19.214634261291	0.057000042164
0	1750	19.271634303455	0.24980489931
0	1755	19.521439202765	0.107664474844
0	1760	19.629103677609	0.002935885526
0	1764	19.632039563135	0.043479311513
0	1770	19.675518874648	0.034932541946
0	1775	19.710451416594	0.059994804572
0	1780	19.770446221166	0.01912491137
0	1785	19.789571132536	0.014469824885
0	1790	19.804040957421	0.073882116344
0	1795	19.877923073765	0.083810557436
0	1800	19.961733631201	0.007896934345
0	1805	19.969630565546	0.041380607387
0	1810	20.011011172933	0.075000192709
0	1815	20.086011365642	0.018572866472
0	1820	20.104584232114	0.022119980905
0	1825	20.126704213019	0.023470952346
0	1830	20.150175165365	0.001558354925
0	1834	20.15173352029	0.08624701265
0	1840	20.23798053294	0.101937355909
0	1846	20.339917888849	0.117888818087
0	1851	20.457806706936	0.076127621199
0	1856	20.533934328135	0.12519756242
0	1861	20.659131890555	0.009199255013
0	1866	20.668331145568	0.013032573593
0	1871	20.681363719161	0.148804211768
0	1876	20.830167930929	0.008107120931
0	1881	20.83827505186	0.152598441863
0	1887	20.990873493723	0.072340448662
0	1892	21.063213942385	0.002955291208
0	1896	21.066169233593	0.020019703613
0	1902	21.086188937206	0.017617417619
0	1907	21.103806354825	0.1274839536
0	1913	21.231290308425	0.052806472204
0	1918	21.284096780629	0.025521112705
0	1923	21.309617893334	0.126572741451
0	1928	21.436190634785	0.009801623781
0	1933	21.445992258566	0.001576695396
0	1937	21.447568953962	0.005159171038
0	1940	21.452728125	0.048661122531
0	1948	21.501389247531	0.00660169745
0	1952	21.507990944981	0.002996131664
0	1957	21.510987076645	0.049531457314
0	1963	21.560518533959	0.072058501024
0	1968	21.632577034983	0.032280595886
0	1973	21.664857630869	0.016901655303
0	1978	21.681759286172	0.060581613668
0	1983	21.74234089984	0.03066627283
0	1988	21.77300717267	0.005393894575
0	1992	21.778401067245	0.123367274095
0	1998	21.90176834134	0.004862847511
0	2002	21.906631188851	0.000656541023
0	2005	21.907287729874	0.064555951593
0	2013	21.971843681467	0.035018794108
0	2018	22.006862475575	0.023192859019
0	2023	22.030055334594	0.003918498059
0	2027	22.033973832653	0.016871243787
0	2033	22.05084507644	0.019849037378
0	2038	22.070694113818	0.105774880486
0	2043	22.176468994304	0.001735355955
0	2047	22.178204350259	0.001760458541
0	2050	22.1799648088	0.004891970573
0	2055	22.184856779373	0.000918646934
0	2058	22.185775426307	0.055761569895
0	2068	22.241536996202	0.019115438061
0	2073	22.260652434263	0.265888308252
0	2078	22.526540742515	0.02351044746
0	2083	22.550051189975	0.078547576762
0	2088	22.628598766737	0.289016419428
0	2093	22.917615186165	0.004631967667
0	2097	22.922247153832	0.08438407313
0	2103	23.006631226962	0.036250318494
0	2108	23.042881545456	0.051291821992
0	2113	23.094173367448	0.114542596556
0	2118	23.208715964004	0.008337611766
0	2123	23.21705357577	0.018073676215
0	2128	23.235127251985	0.066036408107
0	2133	23.301163660092	0.082432944369
0	2139	23.383596604461	0.016941270784
0	2144	23.400537875245	0.02428720524
0	2149	23.424825080485	0.023032999654
0	2154	23.447858080139	0.019195426004
0	2159	23.467053506143	0.000843665347
0	2163	23.46789717149	0.023315499949
0	2169	23.491212671439	0.095861441116
0	2174	23.587074112555	0.04640929494
0	2179	23.633483407495	0.018516310585
0	2184	23.65199971808	0.01847537449
0	2189	23.67047509257	0.041382763222
0	2195	23.711857855792	0.150963018594
0	2200	23.862820874386	0.00476680326
0	2204	23.867587677646	0.023649495595
0	2210	23.891237173241	0.078655680468
0	2215	23.969892853709	0.02899980972
0	2220	23.998892663429	0.001482228896
0	2224	24.000374892325	0.017284848458
0	2230	24.017659740783	0.002866981226
0	2234	24.020526722009	0.043266497153
0	2240	24.063793219162	0.063710793218
0	2245	24.12750401238	0.015193473224
0	2250	24.142697485604	0.001583283288
0	2254	24.144280768892	0.058551061559
0	2260	24.202831830451	0.032947042936
0	2265	24.235778873387	0.052305007014
0	2270	24.288083880401	0.062158148569
0	2275	24.35024202897	0.104137988044
0	2280	24.454380017014	0.032744881473
0	2285	24.487124898487	0.045622809724
0	2290	24.532747708211	0.080726561663
0	2295	24.613474269874	0.102666558461
0	2300	24.716140828335	0.039800444918
0	2305	24.755941273253	0.133223908333
0	2311	24.889165181586	0.046178852938
0	2316	24.935344034524	0.009894917527
0	2321	24.945238952051	0.071205870094
0	2326	25.016444822145	0.022793023748
0	2331	25.039237845893	0.000581469467
0	2335	25.03981931536	0.014235410108
0	2340	25.054054725468	0.132111748378
0	2346	25.186166473846	0.018140598229
0	2351	25.204307072075	0.048183476896
0	2356	25.252490548971	0.009981397682
0	2361	25.262471946653	0.080705445858
0	2366	25.343177392511	0.096939681015
0	2371	25.440117073526	0.000601236412
0	2375	25.440718309938	6.3000864e-005
0	2378	25.440781310802	0.041434094772
0	2386	25.482215405574	0.18833636235
0	2391	25.670551767924	0.011519208846
0	2396	25.68207097677	0.040718851146
0	2401	25.722789827916	0.015786337871
0	2406	25.738576165787	0.016611063811
0	2411	25.755187229598	0.023992500756
0	2416	25.779179730354	0.013579733572
0	2421	25.792759463926	0.353592252464
0	2426	26.14635171639	0.035677499344
0	2431	26.182029215734	0.230891337774
0	2436	26.412920553508	0.045815751996
0	2441	26.458736305504	0.072165299818
0	2446	26.530901605322	0.009106669638
0	2451	26.54000827496	0.003727210756
0	2455	26.543735485716	0.026867667566
0	2461	26.570603153282	0.182536653368
0	2466	26.75313980665	0.010824994982
0	2471	26.763964801632	0.211789731173
0	2476	26.975754532805	0.050672196908
0	2481	27.026426729713	0.013734624498
0	2486	27.040161354211	0.02993132109
0	2491	27.070092675301	0.034759132997
0	2496	27.104851808298	0.020428242827
0	2501	27.125280051125	0.05947679558
0	2506	27.184756846705	0.01683881917
0	2511	27.201595665875	0.015406994073
0	2516	27.217002659948	0.004907722648
0	2520	27.221910382596	0.168252466639
0	2526	27.390162849235	0.006421693156
0	2530	27.396584542391	0.11443193105
0	2536	27.511016473441	0.017784014254
0	2541	27.528800487695	0.037273031815
0	2546	27.56607351951	0.009857464972
0	2551	27.575930984482	0.035415077797
0	2556	27.611346062279	0.023647730387
0	2561	27.634993792666	0.028869045014
0	2566	27.66386283768	0.059480058089
0	2571	27.723342895769	0.00050575449
0	2575	27.723848650259	0.024869240005
0	2581	27.748717890264	0.095579049322
0	2586	27.844296939586	0.026871040778
0	2591	27.871167980364	0.057163926049
0	2596	27.928331906413	0.052903003374
0	2601	27.981234909787	0.155213084002
0	2607	28.136447993789	0.153901298452
0	2613	28.290349292241	0.014146115546
0	2618	28.304495407787	0.182283911417
0	2623	28.486779319204	0.007461721757
0	2627	28.494241040961	0.027909023155
0	2633	28.522150064116	0.056564742507
0	2638	28.578714806623	0.006000276861
0	2642	28.584715083484	0.050461897677
0	2648	28.635176981161	0.135171708293
0	2653	28.770348689454	0.047532889816
0	2658	28.81788157927	0.01152684635
0	2663	28.82940842562	0.129342119477
0	2668	28.958750545097	0.020335752386
0	2673	28.979086297483	0.003082985212
0	2677	28.982169282695	0.175750674995
0	2683	29.15791995769	0.06397143846
0	2688	29.22189139615	0.031301058061
0	2693	29.253192454211	0.181991340567
0	2698	29.435183794778	0.021671879524
0	2703	29.456855674302	0.003357362419
0	2707	29.460213036721	0.128133868958
0	2713	29.588346905679	0.045065545827
0	2718	29.633412451506	0.010907574595
0	2723	29.644320026101	0.008617491875
0	2728	29.652937517976	0.030098443684
0	2733	29.68303596166	0.261736593924
0	2738	29.944772555584	0.002294987164
0	2742	29.947067542748	0.098729320956
0	2748	30.045796863704	0.050754941217
0	2753	30.096551804921	0.022708336863
0	2758	30.119260141784	0.095693851162
0	2763	30.214953992946	0.265523330386
0	2768	30.480477323332	0.086353235656
0	2773	30.566830558988	0.019546272207
0	2778	30.586376831195	0.028696372008
0	2783	30.615073203203	0.02725858472
0	2788	30.642331787923	0.062614951977
0	2793	30.7049467399	0.002474590827
0	2797	30.707421330727	0.006969428284
0	2802	30.714390759011	0.022892935797
0	2809	30.737283694808	0.052684448282
0	2815	30.78996814309	0.009092076983
0	2820	30.799060220073	0.135251256257
0	2825	30.93431147633	0.00872034559
0	2830	30.94303182192	0.034032648521
0	2835	30.977064470441	0.023598343528
0	2840	31.000662813969	0.084513198563
0	2845	31.085176012532	0.012826095847
0	2850	31.098002108379	0.002576791939
0	2854	31.100578900318	0.017304663159
0	2860	31.117883563477	0.002649070505
0	2864	31.120532633982	0.027116314685
0	2870	31.147648948667	0.005010359944
0	2874	31.152659308611	0.081956748849
0	2880	31.23461605746	0.003590926065
0	2884	31.238206983525	0.000552781564
0	2887	31.238759765089	0.035831617984
0	2895	31.274591383073	0.008103036376
0	2900	31.282694419449	0.003720123789
0	2904	31.286414543238	0.191456420735
0	2910	31.477870963973	0.025243304891
0	2915	31.503114268864	0.002090635524
0	2919	31.505204904388	0.002368518177
0	2922	31.507573422565	1.0936495e-005
0	2925	31.50758435906	0.010651925192
0	2930	31.518236284252	0.101363967566
0	2941	31.619600251818	0.059255304501
0	2946	31.678855556319	0.005643226798
0	2950	31.684498783117	0.049849971651
0	2956	31.734348754768	0.108164877772
0	2961	31.84251363254	0.092585692838
0	2966	31.935099325378	0.052874940061
0	2971	31.987974265439	0.005652111546
0	2975	31.993626376985	0.009353319311
0	2980	32.002979696296	0.117014073908
0	2986	32.119993770204	0.000817934389
0	2990	32.120811704593	0.020083476159
0	2996	32.140895180752	0.007788078357
0	3001	32.148683259109	0.13092706383
0	3006	32.279610322939	0.009353249312
0	3011	32.288963572251	0.059031490487
0	3016	32.347995062738	0.111680781994
0	3021	32.459675844732	0.007016482162
0	3025	32.466692326894	0.011158640285
0	3031	32.477850967179	0.034228664323
0	3036	32.512079631502	0.031476749928
0	3041	32.54355638143	0.004986596456
0	3045	32.548542977886	0.008416318561
0	3050	32.556959296447	0.072526551664
0	3056	32.629485848111	0.010605755437
0	3061	32.640091603548	0.00953880955
0	3066	32.649630413098	0.02177844613
0	3071	32.671408859228	0.012312620543
0	3076	32.683721479771	0.006855049799
0	3080	32.69057652957	0.034481275159
0	3086	32.725057804729	0.025771381739
0	3091	32.750829186468	0.002518905085
0	3095	32.753348091553	0.095142163764
0	3101	32.848490255317	0.045259866226
0	3106	32.893750121543	0.016328951219
0	3111	32.910079072762	0.087807396207
0	3116	32.997886468969	0.027660865004
0	3121	33.025547333973	0.044915439255
0	3126	33.070462773228	0.064090649195
0	3131	33.134553422423	0.239903668062
0	3136	33.374457090485	0.053400451839
0	3141	33.427857542324	0.057956816922
0	3146	33.485814359246	0.019230108821
0	3151	33.505044468067	0.011903549553
0	3156	33.51694801762	0.00492231374
0	3160	33.52187033136	0.015449220415
0	3166	33.537319551775	0.001679707819
0	3170	33.538999259594	0.001723274879
0	3173	33.540722534473	0.044739247614
0	3182	33.585461782087	0.004748868577
0	3186	33.590210650664	0.00802965152
0	3191	33.598240302184	0.132609830253
0	3197	33.730850132437	0.015825591724
0	3202	33.746675724161	0.052562886046
0	3207	33.799238610207	0.202209491005
0	3212	34.001448101212	0.017949916076
0	3217	34.019398017288	0.088180610895
0	3222	34.107578628183	0.004251998928
0	3226	34.111830627111	0.22591698708
0	3233	34.337747614191	0.00474092929
0	3237	34.342488543481	0.248552183696
0	3243	34.591040727177	0.086537889295
0	3248	34.677578616472	0.041373619336
0	3253	34.718952235808	0.028905525061
0	3258	34.747857760869	0.011220321347
0	3263	34.759078082216	0.018641564932
0	3268	34.777719647148	0.02777949344
0	3273	34.805499140588	0.236024246031
0	3278	35.041523386619	0.02067801018
0	3283	35.062201396799	0.023460622556
0	3288	35.085662019355	0.120147323398
0	3293	35.205809342753	0.03437031882
0	3298	35.240179661573	0.026264115537
0	3303	35.26644377711	0.00596613829
0	3307	35.2724099154	0.000359693402
0	3310	35.272769608802	0.001692340094
0	3315	35.274461948896	0.039654586438
0	3323	35.314116535334	0.049306710222
0	3328	35.363423245556	0.006262938956
0	3332	35.369686184512	0.020792143655
0	3338	35.390478328167	0.060261113768
0	3343	35.450739441935	0.015676085155
0	3348	35.46641552709	0.000330796811
0	3352	35.466746323901	0.010809571446
0	3358	35.477555895347	0.048109340537
0	3364	35.525665235884	0.034602532755
0	3369	35.560267768639	0.030583441462
0	3374	35.590851210101	0.239977310437
0	3379	35.830828520538	0.009368686838
0	3384	35.840197207376	0.054286360296
0	3389	35.894483567672	0.056856670085
0	3394	35.951340237757	0.115466416186
0	3399	36.066806653943	0.003909850399
0	3403	36.070716504342	0.180583349802
0	3409	36.251299854144	0.024565632544
0	3414	36.275865486688	0.01079537176
0	3419	36.286660858448	0.016112766142
0	3424	36.30277362459	0.000774121525
0	3428	36.303547746115	0.015715785242
0	3434	36.319263531357	0.030016294211
0	3439	36.349279825568	0.139576295071
0	3444	36.488856120639	0.122299223816
0	3450	36.611155344455	0.075374088873
0	3455	36.686529433328	0.098965629506
0	3460	36.785495062834	0.075589900633
0	3465	36.861084963467	0.134399449552
0	3470	36.995484413019	0.005958351809
0	3474	37.001442764828	0.001686524071
0	3477	37.003129288899	0.001404427317
0	3482	37.004533716216	0.124000418461
0	3491	37.128534134677	0.02646496383
0	3496	37.154999098507	0.005632746067
0	3500	37.160631844574	0.100034316308
0	3506	37.260666160882	0.009288477614
0	3511	37.269954638496	0.048013308272
0	3516	37.317967946768	0.150737721538
0	3521	37.468705668306	0.074679892607
0	3526	37.543385560913	0.088040232097
0	3531	37.63142579301	0.024415961058
0	3536	37.655841754068	0.101484779004
0	3541	37.757326533072	0.023058446904
0	3546	37.780384979976	0.124555187538
0	3552	37.904940167514	0.058910411087
0	3557	37.963850578601	0.031857038424
0	3562	37.995707617025	0.002234463796
0	3566	37.997942080821	0.033026928267
0	3572	38.030969009088	0.057911549666
0	3577	38.088880558754	0.001204702536
0	3581	38.09008526129	0.215943725433
0	3587	38.306028986723	0.068250132762
0	3592	38.374279119485	0.003936318191
0	3596	38.378215437676	0.029050701972
0	3602	38.407266139648	0.068018308759
0	3607	38.475284448407	0.048407343184
0	3612	38.523691791591	0.043129139882
0	3617	38.566820931473	0.029496987538
0	3622	38.596317919011	0.016310666016
0	3627	38.612628585027	0.06030411594
0	3632	38.672932700967	0.073302281483
0	3637	38.74623498245	0.334312993602
0	3643	39.080547976052	0.047641992886
0	3648	39.128189968938	0.085645203849
0	3653	39.213835172787	0.143811721196
0	3658	39.357646893983	0.056203404625
0	3663	39.413850298608	0.03598441769
0	3668	39.449834716298	0.020681587558
0	3673	39.470516303856	0.06097155872
0	3678	39.531487862576	0.057184713631
0	3683	39.588672576207	0.06549345581
0	3688	39.654166032017	0.031903952597
0	3693	39.686069984614	0.003958870743
0	3697	39.690028855357	0.004208631682
0	3702	39.694237487039	0.00746550511
0	3707	39.701702992149	0.069305376925
0	3713	39.771008369074	0.033912309048
0	3718	39.804920678122	0.05538725824
0	3723	39.860307936362	0.009737588203
0	3728	39.870045524565	0.001151475865
0	3732	39.87119700043	0.015762485003
0	3738	39.886959485433	0.00332621944
0	3742	39.890285704873	0.017646585727
0	3748	39.9079322906	0.081906205539
0	3753	39.989838496139	0.019104130671
0	3758	40.00894262681	0.047837334381
0	3763	40.056779961191	0.060841240804
0	3768	40.117621201995	0.034865478805
0	3773	40.1524866808	0.000374587004
0	3777	40.152861267804	0.033915377491
0	3783	40.186776645295	0.063829381606
0	3788	40.250606026901	0.013439694318
0	3793	40.264045721219	0.14301585673
0	3798	40.407061577949	0.060299312803
0	3803	40.467360890752	0.021963846867
0	3808	40.489324737619	0.101292466337
0	3813	40.590617203956	0.062454167417
0	3818	40.653071371373	0.054136726174
0	3823	40.707208097547	0.020904660103
0	3828	40.72811275765	0.044681342544
0	3833	40.772794100194	0.212079969026
0	3838	40.98487406922	0.006940407712
0	3842	40.991814476932	0.012631800358
0	3848	41.00444627729	0.069267969689
0	3853	41.073714246979	0.009232437092
0	3858	41.082946684071	0.049722607239
0	3863	41.13266929131	0.031407544865
0	3868	41.164076836175	0.079681077014
0	3873	41.243757913189	0.069316322471
0	3878	41.31307423566	0.022264702401
0	3883	41.335338938061	0.030888629394
0	3888	41.366227567455	0.01307409501
0	3893	41.379301662465	0.036610750185
0	3898	41.41591241265	0.036554169276
0	3903	41.452466581926	0.046808410702
0	3908	41.499274992628	0.001052866652
0	3912	41.50032785928	0.030452120443
0	3918	41.530779979723	0.139880400183
0	3923	41.670660379906	0.084277514958
0	3928	41.754937894864	0.014250748477
0	3933	41.769188643341	0.018281280973
0	3938	41.787469924314	0.006383930062
0	3942	41.793853854376	0.016175835948
0	3948	41.810029690324	0.018081814715
0	3953	41.828111505039	0.022461543477
0	3958	41.850573048516	0.003412793583
0	3962	41.853985842099	0.085305562099
0	3968	41.939291404198	0.007366926745
0	3972	41.946658330943	0.133231433735
0	3978	42.079889764678	0.109596066113
0	3983	42.189485830791	0.056694940779
0	3988	42.24618077157	0.006153708028
0	3992	42.252334479598	0.134441905904
0	3998	42.386776385502	0.100178664001
0	4003	42.486955049503	0.052368423115
0	4008	42.539323472618	0.006911238915
0	4012	42.546234711533	0.035566081534
0	4018	42.581800793067	0.12110183058
0	4023	42.702902623647	0.029051895547
0	4028	42.731954519194	0.022808937235
0	4033	42.754763456429	0.003481581264
0	4037	42.758245037693	0.035781722149
0	4043	42.794026759842	0.080195662808
0	4048	42.87422242265	0.064893759614
0	4053	42.939116182264	0.001395978211
0	4057	42.940512160475	0.002377779624
0	4060	42.942889940099	0.05412284749
0	4068	42.997012787589	0.036987442012
0	4073	43.034000229601	0.052023570168
0	4078	43.086023799769	0.067005059267
0	4083	43.153028859036	0.080230392172
0	4088	43.233259251208	0.034391525833
0	4093	43.267650777041	0.012814588089
0	4098	43.28046536513	0.049022921997
0	4103	43.329488287127	0.008221007123
0	4108	43.33770929425	0.016594964029
0	4113	43.354304258279	0.04229443549
0	4118	43.396598693769	0.095607539992
0	4123	43.492206233761	0.026362502889
0	4128	43.51856873665	0.042486179001
0	4133	43.561054915651	0.111997169887
0	4138	43.673052085538	0.045240170326
0	4143	43.718292255864	0.01040253501
0	4148	43.728694790874	0.069312795471
0	4153	43.798007586345	0.007070413433
0	4157	43.805077999778	0.013041690814
0	4163	43.818119690592	0.019409575431
0	4168	43.837529266023	0.004103400276
0	4172	43.841632666299	0.042167826885
0	4178	43.883800493184	0.030861618579
0	4183	43.914662111763	0.130612586855
0	4188	44.045274698618	0.015152512433
0	4193	44.060427211051	0.005838567717
0	4197	44.066265778768	0.062909510874
0	4203	44.129175289642	0.003770920166
0	4207	44.132946209808	0.018508973092
0	4213	44.1514551829	0.050826906594
0	4218	44.202282089494	0.126059358657
0	4223	44.328341448151	0.024505506813
0	4229	44.352846954964	0.036938838388
0	4234	44.389785793352	0.013096212785
0	4239	44.402882006137	0.032431777824
0	4244	44.435313783961	0.027871367453
0	4249	44.463185151414	0.055278294286
0	4254	44.5184634457	0.000527669981
0	4258	44.518991115681	0.122323742255
0	4264	44.641314857936	0.04103356978
0	4269	44.682348427716	0.03655876151
0	4274	44.718907189226	0.007341371155
0	4278	44.726248560381	0.088778464488
0	4284	44.815027024869	0.011618987728
0	4289	44.826646012597	0.007049920628
0	4293	44.833695933225	0.029114388415
0	4299	44.86281032164	0.000156836096
0	4303	44.862967157736	0.092364916765
0	4309	44.955332074501	0.03234781898
0	4314	44.987679893481	0.006297057633
0	4318	44.993976951114	0.070163727067
0	4325	45.064140678181	0.125722039835
0	4331	45.189862718016	0.039560365756
0	4336	45.229423083772	0.104960316032
0	4341	45.334383399804	0.046588900122
0	4346	45.380972299926	0.163058574642
0	4351	45.544030874568	0.144714522192
0	4356	45.68874539676	0.019980977231
0	4361	45.708726373991	0.100311973357
0	4366	45.809038347348	0.057988012679
0	4371	45.867026360027	0.006662540014
0	4375	45.873688900041	0.021216809505
0	4381	45.894905709546	0.108645807234
0	4386	46.00355151678	0.030335032154
0	4391	46.033886548934	0.064177839533
0	4396	46.098064388467	0.037851456983
0	4401	46.13591584545	0.079665437953
0	4406	46.215581283403	0.010861445653
0	4411	46.226442729056	0.002077866154
0	4415	46.22852059521	0.003602652293
0	4418	46.232123247503	0.014978954771
0	4425	46.247102202274	0.008658871625
0	4430	46.255761073899	0.111861456339
0	4436	46.367622530238	0.031384160451
0	4441	46.399006690689	0.139893414729
0	4447	46.538900105418	0.048302857705
0	4452	46.587202963123	0.041962243207
0	4457	46.62916520633	0.017258463902
0	4462	46.646423670232	0.06672599811
0	4467	46.713149668342	0.005668707199
0	4471	46.718818375541	0.093162702479
0	4477	46.81198107802	0.013939547862
0	4482	46.825920625882	0.07793752597
0	4487	46.903858151852	0.286265768743
0	4492	47.190123920595	0.089233117848
0	4497	47.279357038443	0.012959492905
0	4502	47.292316531348	0.035868497227
0	4507	47.328185028575	0.012877682529
0	4512	47.341062711104	0.027853493752
0	4517	47.368916204856	0.101823068305
0	4522	47.470739273161	0.002772996569
0	4526	47.47351226973	0.027250664642
0	4532	47.500762934372	0.008970711379
0	4537	47.509733645751	0.014383624025
0	4542	47.524117269776	0.027388904945
0	4547	47.551506174721	0.033676687918
0	4552	47.585182862639	0.048940850661
0	4557	47.6341237133	0.091989239652
0	4562	47.726112952952	0.009031046574
0	4567	47.735143999526	0.023042822346
0	4572	47.758186821872	0.180227108076
0	4577	47.938413929948	0.12899575174
0	4582	48.067409681688	0.009204209123
0	4587	48.076613890811	0.26192979008
0	4592	48.338543680891	0.030082103725
0	4597	48.368625784616	0.056829051277
0	4602	48.425454835893	0.032778341996
0	4607	48.458233177889	0.025650159062
0	4612	48.483883336951	0.004078767794
0	4616	48.487962104745	0.024277361227
0	4622	48.512239465972	0.030315246321
0	4627	48.542554712293	0.074949021253
0	4632	48.617503733546	0.000939783656
0	4636	48.618443517202	0.090466017103
0	4642	48.708909534305	0.070062940072
0	4647	48.778972474377	0.000404082057
0	4651	48.779376556434	0.077536611943
0	4657	48.856913168377	0.022005454914
0	4662	48.878918623291	0.002823945319
0	4666	48.88174256861	0.043549732303
0	4672	48.925292300913	0.011920031867
0	4677	48.93721233278	0.051537782027
0	4682	48.988750114807	0.036801425961
0	4687	49.025551540768	0.095821562703
0	4692	49.121373103471	0.009080627407
0	4697	49.130453730878	0.03174533283
0	4702	49.162199063708	0.105044510801
0	4707	49.267243574509	0.030861110069
0	4712	49.298104684578	0.01175215941
0	4717	49.309856843988	0.024528261061
0	4722	49.334385105049	0.019691588014
0	4727	49.354076693063	0.024520020037
0	4732	49.3785967131	0.050244190724
0	4737	49.428840903824	0.031683965062
0	4742	49.460524868886	0.047611934236
0	4747	49.508136803122	0.007634646607
0	4751	49.515771449729	0.120988204918
0	4757	49.636759654647	0.035870809752
0	4762	49.672630464399	0.185934694716
0	4767	49.858565159115	0.121090561666
0	4772	49.979655720781	0.017198458756
0	4777	49.996854179537	0.029321681466
0	4782	50.026175861003	0.139506386833
0	4788	50.165682247836	0.000976557426
0	4792	50.166658805262	0.073128903806
0	4798	50.239787709068	0.010133596056
0	4803	50.249921305124	0.060701966745
0	4808	50.310623271869	0.020156786989
0	4813	50.330780058858	0.007524501687
0	4817	50.338304560545	0.009689640696
0	4823	50.347994201241	0.072899887115
0	4828	50.420894088356	0.013528024845
0	4833	50.434422113201	0.009886535863
0	4838	50.444308649064	0.051203946473
0	4843	50.495512595537	0.028892489679
0	4848	50.524405085216	0.03318695586
0	4853	50.557592041076	0.0547500055
0	4858	50.612342046576	0.089478280234
0	4863	50.70182032681	0.204582696895
0	4869	50.906403023705	0.030125853418
0	4874	50.936528877123	0.01913132718
0	4879	50.955660204303	0.015428447341
0	4884	50.971088651644	0.271749300072
0	4889	51.242837951716	0.019335654649
0	4894	51.262173606365	0.008231649037
0	4899	51.270405255402	0.06105140148
0	4904	51.331456656882	0.008935360662
0	4909	51.340392017544	0.015421453693
0	4914	51.355813471237	0.110042081885
0	4919	51.465855553122	0.076913705055
0	4924	51.542769258177	0.034182189019
0	4929	51.576951447196	0.105619648474
0	4934	51.68257109567	0.081893336259
0	4940	51.764464431929	0.001357296843
0	4944	51.765821728772	0.048755417446
0	4950	51.814577146218	0.001384140635
0	4954	51.815961286853	0.072661375133
0	4960	51.888622661986	0.000518346785
0	4964	51.889141008771	0.097628980091
0	4970	51.986769988862	0.131215875262
0	4975	52.117985864124	0.083750348495
0	4980	52.201736212619	0.0023277944
0	4984	52.204064007019	0.05151710319
0	4990	52.255581110209	0.037778163877
0	4995	52.293359274086	0.047625233029
0	5000	52.340984507115	0.006149606753
0	5004	52.347134113868	0.020831745971
0	5010	52.367965859839	0.018439432033
0	5015	52.386405291872	0.041695702206
0	5020	52.428100994078	0.064359059468
0	5025	52.492460053546	0.013773217139
0	5030	52.506233270685	0.040759707317
0	5036	52.546992978002	0.065495532564
0	5041	52.612488510566	0.016307580162
0	5046	52.628796090728	0.025860507399
0	5051	52.654656598127	0.057455819679
0	5056	52.712112417806	0.036425561171
0	5061	52.748537978977	0.111772542857
0	5066	52.860310521834	0.051895956368
0	5071	52.912206478202	0.027004082911
0	5076	52.939210561113	0.042167478693
0	5081	52.981378039806	0.129542454766
0	5086	53.110920494572	0.083819876746
0	5091	53.194740371318	0.017532628353
0	5096	53.212272999671	0.026607733543
0	5101	53.238880733214	0.006433681706
0	5105	53.24531441492	0.071061995499
0	5111	53.316376410419	0.030248362986
0	5116	53.346624773405	0.009763310495
0	5121	53.3563880839	0.073253694054
0	5126	53.429641777954	0.002812111997
0	5130	53.432453889951	0.139162658806
0	5136	53.571616548757	0.037641915446
0	5141	53.609258464203	0.050456490436
0	5146	53.659714954639	0.003141777457
0	5150	53.662856732096	0.213003740152
0	5157	53.875860472248	0.100560250228
0	5162	53.976420722476	0.011384210289
0	5167	53.987804932765	0.023163799093
0	5172	54.010968731858	0.017102824472
0	5177	54.02807155633	0.008362280504
0	5182	54.036433836834	0.06782977126
0	5187	54.104263608094	0.034283030274
0	5192	54.138546638368	0.006785560383
0	5196	54.145332198751	0.008798409479
0	5202	54.15413060823	0.020268052272
0	5207	54.174398660502	0.003111171796
0	5211	54.177509832298	0.032919897383
0	5217	54.210429729681	0.021574708185
0	5222	54.232004437866	0.073531384953
0	5227	54.305535822819	0.041854344189
0	5232	54.347390167008	0.008910193832
0	5237	54.35630036084	0.031594508448
0	5242	54.387894869288	0.140988736198
0	5247	54.528883605486	0.014506505678
0	5252	54.543390111164	0.084392646275
0	5257	54.627782757439	0.028278279683
0	5262	54.656061037122	0.022455421473
0	5267	54.678516458595	0.012486394896
0	5272	54.691002853491	0.102764454543
0	5277	54.793767308034	0.003831049425
0	5281	54.797598357459	0.011823641654
0	5287	54.809421999113	0.045027008906
0	5292	54.854449008019	0.046472706111
0	5297	54.90092171413	0.028526041619
0	5302	54.929447755749	0.050458202799
0	5307	54.979905958548	0.019995412851
0	5312	54.999901371399	0.124406487768
0	5317	55.124307859167	0.011150260759
0	5322	55.135458119926	0.008090718485
0	5327	55.143548838411	0.00714170408
0	5331	55.150690542491	0.027412228534
0	5337	55.178102771025	0.094913953197
0	5342	55.273016724222	0.059483949709
0	5347	55.332500673931	0.008226724207
0	5352	55.340727398138	0.019728725303
0	5357	55.360456123441	0.116613031868
0	5362	55.477069155309	0.001558509267
0	5366	55.478627664576	0.042819132504
0	5372	55.52144679708	0.054262821307
0	5377	55.575709618387	0.017405456676
0	5382	55.593115075063	0.003586972602
0	5386	55.596702047665	0.069193073
0	5392	55.665895120665	0.012243301991
0	5397	55.678138422656	0.052772226874
0	5403	55.73091064953	0.044339190603
0	5408	55.775249840133	0.057497995591
0	5413	55.832747835724	0.005206888792
0	5417	55.837954724516	0.125140711765
0	5423	55.963095436281	0.097773478022
0	5429	56.060868914303	0.006817540467
0	5433	56.06768645477	0.074126386253
0	5439	56.141812841023	0.117007246043
0	5445	56.258820087066	0.032715107083
0	5450	56.291535194149	0.014895446703
0	5455	56.306430640852	0.003402823385
0	5459	56.309833464237	0.0215794323
0	5465	56.331412896537	0.043507701972
0	5470	56.374920598509	0.016737226336
0	5475	56.391657824845	0.011677716396
0	5480	56.403335541241	0.014494828324
0	5485	56.417830369565	0.02702735666
0	5490	56.444857726225	0.012719341023
0	5495	56.457577067248	0.139647993791
0	5500	56.597225061039	0.03457467
0	5505	56.631799731039	0.012436963003
0	5510	56.644236694042	0.038094022826
0	5515	56.682330716868	0.00107547913
0	5519	56.683406195998	0.011024492995
0	5524	56.694430688993	0.000303829735
0	5527	56.694734518728	0.100062077344
0	5535	56.794796596072	0.05602878753
0	5540	56.850825383602	0.115991325093
0	5545	56.966816708695	0.070041144538
0	5550	57.036857853233	0.023028357463
0	5555	57.059886210696	0.043172762755
0	5560	57.103058973451	0.010248670176
0	5565	57.113307643627	0.018841916931
0	5570	57.132149560558	0.016063524875
0	5575	57.148213085433	0.166579227293
0	5581	57.314792312726	0.039373434417
0	5586	57.354165747143	0.11429115511
0	5591	57.468456902253	0.003150553155
0	5595	57.471607455408	0.066741800327
0	5601	57.538349255735	0.049586102797
0	5606	57.587935358532	0.05538100842
0	5611	57.643316366952	0.002183825839
0	5615	57.645500192791	0.045120202238
0	5621	57.690620395029	0.053799198728
0	5626	57.744419593757	0.02417321087
0	5631	57.768592804627	0.014574837609
0	5636	57.783167642236	0.036715057655
0	5641	57.819882699891	0.00217541853
0	5645	57.822058118421	0.091302616229
0	5651	57.91336073465	0.08253465722
0	5656	57.99589539187	0.006042083369
0	5660	58.001937475239	0.045009153183
0	5666	58.046946628422	0.023519403501
0	5671	58.070466031923	0.079413338425
0	5676	58.149879370348	0.041735072831
0	5681	58.191614443179	0.038029178193
0	5686	58.229643621372	0.022222297029
0	5691	58.251865918401	0.0309968382
0	5696	58.282862756601	0.034358671044
0	5701	58.317221427645	0.015083602915
0	5706	58.33230503056	0.028255407464
0	5711	58.360560438024	0.064979440299
0	5716	58.425539878323	0.036954289402
0	5721	58.462494167725	0.009332940946
0	5726	58.471827108671	0.141526775588
0	5731	58.613353884259	0.008477253897
0	5736	58.621831138156	0.029361016221
0	5741	58.651192154377	0.00294903302
0	5745	58.654141187397	0.129560574585
0	5751	58.783701761982	0.004635470037
0	5755	58.788337232019	0.01546345837
0	5761	58.803800690389	0.064261541263
0	5766	58.868062231652	0.011471249966
0	5771	58.879533481618	0.020448329121
0	5776	58.899981810739	0.026846531179
0	5781	58.926828341918	0.003424054908
0	5785	58.930252396826	0.009140853665
0	5790	58.939393250491	0.016152084896
0	5796	58.955545335387	0.06568432569
0	5801	59.021229661077	0.025448667581
0	5806	59.046678328658	0.017348430217
0	5811	59.064026758875	0.030093073709
0	5816	59.094119832584	0.021208221577
0	5821	59.115328054161	0.063381533406
0	5826	59.178709587567	0.22988321985
0	5831	59.408592807417	0.058407618398
0	5836	59.467000425815	0.030523228343
0	5841	59.497523654158	0.182096058554
0	5847	59.679619712712	0.008912245054
0	5852	59.688531957766	0.002780933794
0	5856	59.69131289156	0.072367084004
0	5862	59.763679975564	0.167270271329
0	5867	59.930950246893	0.111873178754
0	5872	60.042823425647	0.009869843958
0	5877	60.052693269605	0.019624507866
0	5882	60.072317777471	0.072818166452
0	5887	60.145135943923	0.047639125815
0	5892	60.192775069738	0.014831643389
0	5897	60.207606713127	0.019397452334
0	5902	60.227004165461	0.03958758542
0	5907	60.266591750881	0.017256015723
0	5912	60.283847766604	0.046959003683
0	5917	60.330806770287	0.031172069303
0	5922	60.36197883959	0.011510757028
0	5927	60.373489596618	0.115804133126
0	5932	60.489293729744	0.074426534379
0	5937	60.563720264123	0.103475046502
0	5942	60.667195310625	0.043905960988
0	5947	60.711101271613	0.02020654599
0	5952	60.731307817603	0.001867695899
0	5956	60.733175513502	0.014507562266
0	5962	60.747683075768	0.013977654918
0	5967	60.761660730686	0.040316097231
0	5972	60.801976827917	0.041096585771
0	5977	60.843073413688	0.183512615412
0	5982	61.0265860291	0.163567828778
0	5988	61.190153857878	0.023060327579
0	5993	61.213214185457	0.026492155089
0	5998	61.239706340546	0.043742922186
0	6003	61.283449262732	0.008704912858
0	6008	61.29215417559	0.067008599484
0	6013	61.359162775074	0.015029963988
0	6018	61.374192739062	0.080349811971
0	6023	61.454542551033	0.112126878252
0	6028	61.566669429285	0.103121906488
0	6033	61.669791335773	0.023060985911
0	6038	61.692852321684	0.020248630613
0	6043	61.713100952297	0.010563605131
0	6048	61.723664557428	0.024667436585
0	6053	61.748331994013	0.005084894398
0	6057	61.753416888411	0.059006308061
0	6063	61.812423196472	0.028964374293
0	6068	61.841387570765	0.022140820452
0	6073	61.863528391217	0.051843500343
0	6078	61.91537189156	0.003552972021
0	6082	61.918924863581	0.029542879272
0	6088	61.948467742853	0.014856950608
0	6093	61.963324693461	0.049917253655
0	6099	62.013241947116	0.033704924573
0	6104	62.046946871689	0.022405148506
0	6109	62.069352020195	0.027833997921
0	6114	62.097186018116	0.167427568875
0	6119	62.264613586991	0.011017798623
0	6124	62.275631385614	0.127725165702
0	6129	62.403356551316	0.024606469688
0	6134	62.427963021004	0.044343657851
0	6139	62.472306678855	0.065409702679
0	6144	62.537716381534	0.096315382609
0	6149	62.634031764143	0.161686203389
0	6154	62.795717967532	0.123152694269
0	6159	62.918870661801	0.06481499099
0	6164	62.983685652791	0.080342831334
0	6170	63.064028484125	0.011699478397
0	6175	63.075727962522	0.041658231744
0	6180	63.117386194266	0.012129293688
0	6185	63.129515487954	0.010618946335
0	6190	63.140134434289	0.028948780553
0	6195	63.169083214842	0.04671935356
0	6200	63.215802568402	0.018863816857
0	6205	63.234666385259	0.001677004078
0	6209	63.236343389337	0.00377406417
0	6212	63.240117453507	0.044114190425
0	6220	63.284231643932	0.040720252176
0	6225	63.324951896108	0.091035246411
0	6230	63.415987142519	0.002800946495
0	6234	63.418788089014	0.001648985596
0	6237	63.42043707461	0.05337765073
0	6245	63.47381472534	0.092708459458
0	6250	63.566523184798	0.000108023015
0	6254	63.566631207813	0.03234511928
0	6260	63.598976327093	0.050041810086
0	6265	63.649018137179	0.002344694367
0	6269	63.651362831546	0.086679324923
0	6275	63.738042156469	0.046417475693
0	6280	63.784459632162	0.028666689235
0	6285	63.813126321397	0.030865250937
0	6290	63.843991572334	0.025200614592
0	6295	63.869192186926	0.041751575744
0	6300	63.91094376267	0.086098966897
0	6305	63.997042729567	0.042062892071
0	6310	64.039105621638	0.010482805628
0	6315	64.049588427266	0.045116093103
0	6320	64.094704520369	0.045925479008
0	6325	64.140629999377	0.035715850395
0	6330	64.176345849772	0.098791471432
0	6335	64.275137321204	0.002758473803
0	6339	64.277895795007	0.003632560211
0	6342	64.281528355218	0.07045208484
0	6350	64.351980440058	0.077890407781
0	6355	64.429870847839	0.065509329323
0	6360	64.495380177162	0.091788801129
0	6366	64.587168978291	0.030198011949
0	6371	64.61736699024	0.022218638424
0	6376	64.639585628664	0.057273376396
0	6381	64.69685900506	0.026254173883
0	6386	64.723113178943	0.019522618078
0	6391	64.742635797021	0.04922623419
0	6396	64.791862031211	0.034692266517
0	6401	64.826554297728	0.050967667113
0	6406	64.877521964841	0.011091048094
0	6411	64.888613012935	0.002601014781
0	6415	64.891214027716	0.012909993822
0	6420	64.904124021538	0.201433497926
0	6426	65.105557519464	0.011984075696
0	6431	65.11754159516	0.043496520446
0	6436	65.161038115606	0.019696324714
0	6441	65.18073444032	0.185903077429
0	6446	65.366637517749	0.008621489564
0	6451	65.375259007313	0.075127739464
0	6456	65.450386746777	0.006431340918
0	6460	65.456818087695	0.03532979358
0	6466	65.492147881275	0.042822866141
0	6471	65.534970747416	0.107060827523
0	6476	65.642031574939	0.052523501085
0	6481	65.694555076024	0.066748138122
0	6486	65.761303214146	0.021479690832
0	6491	65.782782904978	0.017582606907
0	6496	65.800365511885	0.006083804402
0	6500	65.806449316287	0.118011345615
0	6506	65.924460661902	0.126280262828
0	6511	66.05074092473	0.050069667079
0	6516	66.100810591809	0.008004232448
0	6521	66.108814824257	0.029547178998
0	6526	66.138362003255	0.073806784111
0	6531	66.212168787366	0.021160934419
0	6536	66.233329721785	0.01807056482
0	6541	66.251400286605	0.031257339154
0	6546	66.282657625759	0.013644721971
0	6551	66.29630234773	0.041176120302
0	6556	66.337478468032	0.050020063664
0	6561	66.387498531696	0.034587757953
0	6566	66.422086289649	0.006895958733
0	6570	66.428982248382	0.016268631382
0	6576	66.445250879764	0.038747254307
0	6581	66.483998134071	0.017604567778
0	6586	66.501602701849	0.029607382923
0	6591	66.531210084772	0.052602877565
0	6596	66.583812962337	0.081545140107
0	6601	66.665358102444	0.071163028206
0	6606	66.73652113065	0.091098281873
0	6611	66.827619412523	0.004592951836
0	6615	66.832212364359	0.024073591176
0	6621	66.856285955535	0.018344497938
0	6626	66.874630453473	0.032706972519
0	6631	66.907337425992	0.200591088474
0	6637	67.107928514466	0.055512679173
0	6642	67.163441193639	0.138491422964
0	6647	67.301932616603	0.077020184065
0	6652	67.378952800668	0.035115228742
0	6657	67.41406802941	0.024359591461
0	6662	67.438427620871	0.247463187308
0	6667	67.685890808179	0.145889802206
0	6672	67.831780610385	0.27845910798
0	6677	68.110239718365	0.043512548197
0	6682	68.153752266562	0.037815058922
0	6687	68.191567325484	0.03496881244
0	6692	68.226536137924	0.056998340183
0	6697	68.283534478107	0.082818785373
0	6702	68.36635326348	0.068060326196
0	6708	68.434413589676	0.103919860422
0	6713	68.538333450098	0.033949723485
0	6718	68.572283173583	0.059895382072
0	6723	68.632178555655	0.025439965083
0	6728	68.657618520738	0.092976809703
0	6733	68.750595330441	0.079233481619
0	6738	68.82982881206	0.048128011537
0	6743	68.877956823597	0.160917899858
0	6748	69.038874723455	0.038812947498
0	6753	69.077687670953	0.046269617872
0	6758	69.123957288825	0.020789582203
0	6763	69.144746871028	0.002444955917
0	6767	69.147191826945	0.027056575147
0	6773	69.174248402092	0.005812996327
0	6777	69.180061398419	0.020124903219
0	6783	69.200186301638	0.049824194721
0	6788	69.250010496359	0.012877707034
0	6793	69.262888203393	0.061082120212
0	6798	69.323970323605	0.091616265822
0	6803	69.415586589427	0.152055143264
0	6808	69.567641732691	0.001556017855
0	6812	69.569197750546	0.024732180229
0	6818	69.593929930775	0.019886790065
0	6823	69.61381672084	0.024643801872
0	6828	69.638460522712	0.124121326842
0	6833	69.762581849554	0.006242130236
0	6837	69.76882397979	0.003707458356
0	6842	69.772531438146	0.028184281813
0	6848	69.800715719959	0.039021783415
0	6853	69.839737503374	0.109891893344
0	6858	69.949629396718	0.013513056059
0	6863	69.963142452777	0.087384909599
0	6868	70.050527362376	0.03891964963
0	6873	70.089447012006	0.050472878753
0	6878	70.139919890759	0.010247850357
0	6883	70.150167741116	0.061250922225
0	6888	70.211418663341	0.06284950175
0	6893	70.274268165091	0.028425683278
0	6898	70.302693848369	0.055977828128
0	6903	70.358671676497	0.028919756736
0	6908	70.387591433233	0.072091207133
0	6913	70.459682640366	0.021927138602
0	6918	70.481609778968	0.001253681948
0	6922	70.482863460916	0.05947349282
0	6928	70.542336953736	0.016554270915
0	6933	70.558891224651	0.061103042172
0	6939	70.619994266823	0.028492282911
0	6944	70.648486549734	0.018071674056
0	6949	70.66655822379	0.027539222185
0	6954	70.694097445975	0.027056205796
0	6959	70.721153651771	0.024226670377
0	6964	70.745380322148	0.055460630148
0	6969	70.800840952296	0.040900180649
0	6974	70.841741132945	0.116931827463
0	6979	70.958672960408	0.03544778194
0	6984	70.994120742348	0.045796175518
0	6989	71.039916917866	0.014089923651
0	6994	71.054006841517	0.005396362015
0	6998	71.059403203532	0.046332476274
0	7004	71.105735679806	0.014941942145
0	7009	71.120677621951	0.024257694312
0	7014	71.144935316263	0.054975102532
0	7019	71.199910418795	0.062544043381
0	7024	71.262454462176	0.041292357231
0	7029	71.303746819407	0.010181953558
0	7034	71.313928772965	0.012763703483
0	7039	71.326692476448	0.01811007312
0	7044	71.344802549568	0.078696801557
0	7049	71.423499351125	0.094081334386
0	7054	71.517580685511	0.004625898035
0	7058	71.522206583546	0.066349786856
0	7064	71.588556370402	0.111209333311
0	7069	71.699765703713	0.073547851241
0	7074	71.773313554954	0.14087295953
0	7079	71.914186514484	0.037893191955
0	7084	71.952079706439	0.043555775939
0	7089	71.995635482378	0.049808320998
0	7094	72.045443803376	0.036917301589
0	7099	72.082361104965	0.052150193629
0	7104	72.134511298594	0.070619665101
0	7109	72.205130963695	0.023160355405
0	7115	72.2282913191	0.027869508316
0	7120	72.256160827416	0.038185860994
0	7125	72.29434668841	0.086347067854
0	7130	72.380693756264	0.035184194557
0	7135	72.415877950821	0.088085595302
0	7140	72.503963546123	0.019686047668
0	7145	72.523649593791	0.081887411112
0	7150	72.605537004903	0.137723071763
0	7155	72.743260076666	0.061970923837
0	7160	72.805231000503	0.064488010694
0	7165	72.869719011197	0.000964214912
0	7169	72.870683226109	0.100024813229
0	7175	72.970708039338	0.054848404049
0	7180	73.025556443387	0.043060561946
0	7185	73.068617005333	0.05516591024
0	7190	73.123782915573	0.012738632973
0	7195	73.136521548546	0.002778807964
0	7199	73.13930035651	0.112339844173
0	7206	73.251640200683	0.014688414915
0	7211	73.266328615598	0.123661820072
0	7216	73.38999043567	0.03655464199
0	7221	73.42654507766	0.00813664673
0	7226	73.43468172439	0.039925979831
0	7231	73.474607704221	0.030346835101
0	7236	73.504954539322	0.068896294422
0	7242	73.573850833744	0.007527672035
0	7246	73.581378505779	0.049246653593
0	7252	73.630625159372	0.04180232731
0	7257	73.672427486682	0.010908856203
0	7262	73.683336342885	0.030627860043
0	7267	73.713964202928	0.092589384391
0	7272	73.806553587319	0.00060408911
0	7276	73.807157676429	0.138474407717
0	7283	73.945632084146	0.031646696668
0	7288	73.977278780814	0.024929763975
0	7293	74.002208544789	0.001140640863
0	7297	74.003349185652	0.016605436216
0	7303	74.019954621868	0.0625177362
0	7308	74.082472358068	0.11313265409
0	7313	74.195605012158	0.004800593298
0	7317	74.200405605456	0.030556387099
0	7323	74.230961992555	0.004172892515
0	7327	74.23513488507	0.041570148068
0	7333	74.276705033138	0.079828042839
0	7338	74.356533075977	0.110180165672
0	7343	74.466713241649	0.007100146991
0	7347	74.47381338864	0.008983970388
0	7353	74.482797359028	0.047968122236
0	7358	74.530765481264	0.096120981178
0	7363	74.626886462442	0.00752454882
0	7367	74.634411011262	0.04723374161
0	7373	74.681644752872	0.071120042675
0	7379	74.752764795547	0.087549762454
0	7384	74.840314558001	0.070923762065
0	7389	74.911238320066	0.024749023102
0	7394	74.935987343168	0.00158036425
0	7398	74.937567707418	0.1816724994
0	7404	75.119240206818	0.068105680796
0	7409	75.187345887614	0.106647911438
0	7414	75.293993799052	0.039002998884
0	7419	75.332996797936	0.024591478943
0	7424	75.357588276879	0.075136640796
0	7429	75.432724917675	0.122382162879
0	7434	75.555107080554	0.046520272948
0	7439	75.601627353502	0.008623977261
0	7444	75.610251330763	0.072147966415
0	7449	75.682399297178	0.018111312522
0	7454	75.7005106097	0.000508173898
0	7458	75.701018783598	0.139145839901
0	7464	75.840164623499	0.03275231524
0	7469	75.872916938739	0.043505565679
0	7475	75.916422504418	0.089478246292
0	7480	76.00590075071	0.012234138803
0	7485	76.018134889513	0.116587442312
0	7490	76.134722331825	0.015693534302
0	7495	76.150415866127	0.088252493287
0	7501	76.238668359414	0.05749377981
0	7506	76.296162139224	0.046620294713
0	7511	76.342782433937	0.396285961663
0	7517	76.7390683956	0.036853150742
0	7522	76.775921546342	0.014130862455
0	7527	76.790052408797	0.028365522435
0	7532	76.818417931232	0.036563748596
0	7537	76.854981679828	0.062580401851
0	7542	76.917562081679	0.022883250886
0	7547	76.940445332565	0.017684412117
0	7552	76.958129744682	0.151801397906
0	7557	77.109931142588	0.029993225322
0	7562	77.13992436791	0.017086363295
0	7567	77.157010731205	0.011930508714
0	7572	77.168941239919	0.007659813805
0	7576	77.176601053724	0.097475583136
0	7582	77.27407663686	0.12316968714
0	7587	77.397246324	0.095967691692
0	7592	77.493214015692	0.076509011301
0	7597	77.569723026993	0.013571882952
0	7602	77.583294909945	0.048022623345
0	7607	77.63131753329	0.02777437179
0	7612	77.65909190508	0.018373285907
0	7617	77.677465190987	0.035143349823
0	7622	77.71260854081	0.010776637964
0	7627	77.723385178774	0.004238092999
0	7631	77.727623271773	0.042664293537
0	7637	77.77028756531	0.048186989219
0	7642	77.818474554529	0.012715460482
0	7647	77.831190015011	0.020472289781
0	7652	77.851662304792	0.003930363836
0	7656	77.855592668628	0.051114891387
0	7662	77.906707560015	0.020529431024
0	7667	77.927236991039	0.082803680027
0	7672	78.010040671066	0.018098632353
0	7677	78.028139303419	0.001017336791
0	7681	78.02915664021	0.035484632146
0	7687	78.064641272356	0.035571542645
0	7692	78.100212815001	0.104758421209
0	7697	78.20497123621	0.017910123414
0	7702	78.222881359624	0.072180970977
0	7707	78.295062330601	0.075024894608
0	7712	78.370087225209	0.054059616533
0	7717	78.424146841742	0.002179318678
0	7721	78.42632616042	0.046659284888
0	7727	78.472985445308	0.090752920664
0	7732	78.563738365972	0.006493855915
0	7736	78.570232221887	0.044272800065
0	7742	78.614505021952	0.214486549159
0	7747	78.828991571111	0.039988899145
0	7752	78.868980470256	0.011303942441
0	7757	78.880284412697	0.102998768622
0	7762	78.983283181319	0.0721497036
0	7767	79.055432884919	0.171859530484
0	7772	79.227292415403	0.021608806451
0	7777	79.248901221854	0.033861487207
0	7782	79.282762709061	0.258555127921
0	7787	79.541317836982	0.118338735608
0	7792	79.65965657259	0.07639783286
0	7797	79.73605440545	0.006822507804
0	7801	79.742876913254	0.024903253742
0	7807	79.767780166996	0.029339904147
0	7812	79.797120071143	0.039256133579
0	7817	79.836376204722	0.17603310462
0	7822	80.012409309342	0.020985060656
0	7827	80.033394369998	0.008054888808
0	7832	80.041449258806	0.009629196792
0	7837	80.051078455598	0.006265289582
0	7842	80.05734374518	0.103721905245
0	7848	80.161065650425	0.009905553638
0	7853	80.170971204063	0.02836233654
0	7859	80.199333540603	0.018052523219
0	7864	80.217386063822	0.029854572402
0	7869	80.247240636224	0.083509278703
0	7874	80.330749914927	0.042393514714
0	7880	80.373143429641	0.000144705838
0	7884	80.373288135479	0.03968798739
0	7890	80.412976122869	0.104074238598
0	7895	80.517050361467	0.096387815214
0	7900	80.613438176681	0.003948888492
0	7904	80.617387065173	0.059934151578
0	7910	80.677321216751	0.000136901387
0	7914	80.677458118138	0.021283908318
0	7920	80.698742026456	0.003295230303
0	7924	80.702037256759	0.009458200581
0	7929	80.71149545734	0.017674638245
0	7935	80.729170095585	0.022444576563
0	7940	80.751614672148	0.088913988445
0	7945	80.840528660593	0.195815376717
0	7950	81.03634403731	0.005892937908
0	7954	81.042236975218	0.01030576692
0	7960	81.052542742138	0.007034217528
0	7964	81.059576959666	0.020320781823
0	7970	81.079897741489	0.086892167955
0	7975	81.166789909444	0.058784905195
0	7981	81.225574814639	0.016855601971
0	7986	81.24243041661	0.017906583484
0	7991	81.260337000094	0.038020309376
0	7996	81.29835730947	0.072988586408
0	8001	81.371345895878	0.013683420832
0	8006	81.38502931671	0.063381091151
0	8011	81.448410407861	0.126566417274
0	8017	81.574976825135	0.117771069714
0	8022	81.692747894849	0.01908646481
0	8027	81.711834359659	0.245631236871
0	8032	81.95746559653	0.017150608028
0	8037	81.974616204558	0.061865631254
0	8043	82.036481835812	0.117945696729
0	8048	82.154427532541	0.052966697712
0	8053	82.207394230253	0.039564571061
0	8058	82.246958801314	0.078487875884
0	8063	82.325446677198	0.093695063236
0	8068	82.419141740434	0.019353877627
0	8073	82.438495618061	0.016230582601
0	8078	82.454726200662	0.195708489109
0	8083	82.650434689771	0.031301346774
0	8088	82.681736036545	0.000429841644
0	8092	82.682165878189	0.008002161019
0	8097	82.690168039208	0.038692071636
0	8103	82.728860110844	0.046045582245
0	8108	82.774905693089	0.003254787441
0	8112	82.77816048053	0.050792628527
0	8118	82.828953109057	0.051287016285
0	8123	82.880240125342	0.028238512421
0	8128	82.908478637763	0.075021575652
0	8133	82.983500213415	0.013082766408
0	8138	82.996582979823	0.099057218272
0	8143	83.095640198095	1.4714803e-005
0	8147	83.095654912898	0.029188237654
0	8153	83.124843150552	0.187387150856
0	8158	83.312230301408	0.104888229153
0	8163	83.417118530561	0.072524340601
0	8168	83.489642871162	0.109051863878
0	8173	83.59869473504	0.022014706104
0	8178	83.620709441144	0.107161129498
0	8183	83.727870570642	0.067725669234
0	8188	83.795596239876	0.009129542991
0	8193	83.804725782867	0.070712820639
0	8198	83.875438603506	0.01443373185
0	8203	83.889872335356	0.067078357207
0	8208	83.956950692563	0.054852145023
0	8213	84.011802837586	0.036962369646
0	8218	84.048765207232	0.018312180422
0	8223	84.067077387654	0.027838555239
0	8228	84.094915942893	0.033134488067
0	8233	84.12805043096	0.134304810332
0	8238	84.262355241292	0.028160050326
0	8243	84.290515291618	0.010578756001
0	8248	84.301094047619	0.011766104008
0	8253	84.312860151627	0.022841033182
0	8258	84.335701184809	0.066222821492
0	8263	84.401924006301	0.008175090524
0	8268	84.410099096825	0.017322709226
0	8273	84.427421806051	0.102257107219
0	8278	84.52967891327	0.020731213129
0	8283	84.550410126399	0.011962218634
0	8288	84.562372345033	0.081965847499
0	8293	84.644338192532	0.043556437491
0	8298	84.687894630023	0.075918917145
0	8303	84.763813547168	0.026406783111
0	8309	84.790220330279	0.034093949955
0	8314	84.824314280234	0.067136647048
0	8319	84.891450927282	0.033473590052
0	8324	84.924924517334	0.025791335639
0	8329	84.950715852973	0.079023871552
0	8334	85.029739724525	0.049250268586
0	8339	85.078989993111	0.052873912817
0	8344	85.131863905928	0.023820515017
0	8349	85.155684420945	0.116307313311
0	8354	85.271991734256	0.00478954235
0	8358	85.276781276606	0.040792418171
0	8364	85.317573694777	0.046772873817
0	8369	85.364346568594	0.042961478811
0	8374	85.407308047405	0.071816307816
0	8379	85.479124355221	0.000319518134
0	8383	85.479443873355	0.031889626084
0	8389	85.511333499439	0.094238112748
0	8395	85.605571612187	0.028654181905
0	8400	85.634225794092	0.184163150592
0	8405	85.818388944684	0.091628531594
0	8410	85.910017476278	0.03827125331
0	8415	85.948288729588	0.065618511596
0	8420	86.013907241184	0.00012947837
0	8424	86.014036719554	0.029454348683
0	8430	86.043491068237	0.050875754334
0	8435	86.094366822571	0.085994680124
0	8440	86.180361502695	0.115138366446
0	8445	86.295499869141	0.027003848463
0	8450	86.322503717604	0.07894071278
0	8455	86.401444430384	0.016727986523
0	8460	86.418172416907	0.013340928644
0	8465	86.431513345551	0.077253516006
0	8470	86.508766861557	0.019236588926
0	8475	86.528003450483	0.080524716708
0	8481	86.608528167191	0.103150799741
0	8486	86.711678966932	0.069953420417
0	8491	86.781632387349	0.014351871983
0	8496	86.795984259332	0.024110203317
0	8501	86.820094462649	0.022513775987
0	8506	86.842608238636	0.073514813726
0	8511	86.916123052362	0.017399953706
0	8516	86.933523006068	0.047422941786
0	8521	86.980945947854	0.011252183959
0	8526	86.992198131813	0.203661797561
0	8531	87.195859929374	0.028081322507
0	8536	87.223941251881	0.047772614172
0	8541	87.271713866053	0.054125329695
0	8546	87.325839195748	0.035374322947
0	8551	87.361213518695	0.07646850928
0	8556	87.437682027975	0.024123980144
0	8561	87.461806008119	0.005601541827
0	8565	87.467407549946	0.015911301179
0	8571	87.483318851125	0.135559910732
0	8576	87.618878761857	0.004341512994
0	8580	87.623220274851	0.012984105599
0	8586	87.63620438045	0.016029917751
0	8591	87.652234298201	0.07038452338
0	8596	87.722618821581	0.08753076594
0	8601	87.810149587521	0.019382038348
0	8606	87.829531625869	0.010000560512
0	8611	87.839532186381	0.012324385055
0	8616	87.851856571436	0.121438756586
0	8621	87.973295328022	0.003279375009
0	8625	87.976574703031	0.026798016235
0	8631	88.003372719266	0.071686245523
0	8636	88.075058964789	0.142050309087
0	8641	88.217109273876	0.006555165999
0	8645	88.223664439875	0.045005776812
0	8651	88.268670216687	0.054809412564
0	8656	88.323479629251	0.003091820307
0	8660	88.326571449558	0.000891441797
0	8663	88.327462891355	0.026399224389
0	8671	88.353862115744	0.069058813721
0	8676	88.422920929465	0.031544569436
0	8681	88.454465498901	0.047949747962
0	8686	88.502415246863	0.025190301457
0	8692	88.52760554832	0.119702700343
0	8697	88.647308248663	0.020860393769
0	8702	88.668168642432	0.028082925477
0	8707	88.696251567909	0.022574889513
0	8712	88.718826457422	0.121400676638
0	8717	88.84022713406	0.055414364707
0	8722	88.895641498767	0.072523002163
0	8727	88.96816450093	0.032267512537
0	8732	89.000432013467	0.067333040938
0	8737	89.067765054405	0.00529755742
0	8741	89.073062611825	0.020086995
0	8747	89.093149606825	0.002290470739
0	8751	89.095440077564	0.060166504891
0	8757	89.155606582455	0.033234271193
0	8762	89.188840853648	0.014479826577
0	8767	89.203320680225	0.001386438447
0	8771	89.204707118672	0.154445105727
0	8777	89.359152224399	0.041421985083
0	8782	89.400574209482	0.111842659076
0	8787	89.512416868558	0.082109276023
0	8792	89.594526144581	0.005359413779
0	8796	89.59988555836	0.050610861666
0	8802	89.650496420026	0.024102584177
0	8807	89.674599004203	0.024720211498
0	8812	89.699319215701	0.016644712853
0	8817	89.715963928554	0.002583075812
0	8821	89.718547004366	0.003229135936
0	8824	89.721776140302	0.055253913727
0	8832	89.777030054029	0.236979342779
0	8837	90.014009396808	0.008356306771
0	8842	90.022365703579	0.02922483721
0	8847	90.051590540789	0.042365418847
0	8852	90.093955959636	0.087642789701
0	8858	90.181598749337	0.010965050935
0	8863	90.192563800272	0.044417018239
0	8868	90.236980818511	0.119940952455
0	8874	90.356921770966	0.093307298363
0	8879	90.450229069329	0.063553242979
0	8884	90.513782312308	0.067774824289
0	8889	90.581557136597	0.025510607393
0	8894	90.60706774399	0.055310531671
0	8899	90.662378275661	0.002364575087
0	8903	90.664742850748	0.003756284292
0	8906	90.66849913504	0.010075173348
0	8913	90.678574308388	0.110627241309
0	8919	90.789201549697	0.095443328754
0	8924	90.884644878451	0.022849723755
0	8929	90.907494602206	0.063850978677
0	8934	90.971345580883	0.00418291196
0	8938	90.975528492843	0.076051192326
0	8944	91.051579685169	0.011168800189
0	8949	91.062748485358	0.082167470456
0	8954	91.144915955814	0.122778573102
0	8960	91.267694528916	0.01716371621
0	8965	91.284858245126	0.072887453326
0	8970	91.357745698452	0.057846169123
0	8975	91.415591867575	0.079683399491
0	8980	91.495275267066	0.052785480077
0	8985	91.548060747143	0.023109700632
0	8990	91.571170447775	0.032070269748
0	8995	91.603240717523	0.21953684883
0	9001	91.822777566353	0.005689514265
0	9005	91.828467080618	0.056009695239
0	9011	91.884476775857	0.023101723392
0	9016	91.907578499249	0.016873305079
0	9021	91.924451804328	0.021448323939
0	9026	91.945900128267	0.033500011459
0	9031	91.979400139726	0.279021258317
0	9037	92.258421398043	0.015379011072
0	9042	92.273800409115	0.125548314859
0	9047	92.399348723974	0.10943485279
0	9052	92.508783576764	0.036141826592
0	9057	92.544925403356	0.029878502872
0	9062	92.574803906228	0.005032692146
0	9066	92.579836598374	0.003668049749
0	9071	92.583504648123	0.11274171142
0	9077	92.696246359543	0.004760612805
0	9081	92.701006972348	0.05497717765
0	9087	92.755984149998	0.047246918226
0	9092	92.803231068224	0.02665173109
0	9097	92.829882799314	0.105099172415
0	9102	92.934981971729	0.170579077245
0	9107	93.105561048974	0.004296678473
0	9111	93.109857727447	0.05478211243
0	9117	93.164639839877	0.009684831733
0	9122	93.17432467161	0.016314636951
0	9127	93.190639308561	0.041952868759
0	9132	93.23259217732	0.030766962532
0	9137	93.263359139852	0.087002769141
0	9142	93.350361908993	0.029702129185
0	9147	93.380064038178	0.021797780962
0	9152	93.40186181914	0.007516533328
0	9156	93.409378352468	0.013543786199
0	9162	93.422922138667	0.065709911005
0	9167	93.488632049672	0.057770084128
0	9172	93.5464021338	0.013925015607
0	9177	93.560327149407	0.085651219045
0	9182	93.645978368452	0.086800659283
0	9187	93.732779027735	0.085334698572
0	9192	93.818113726307	0.064801860447
0	9197	93.882915586754	0.055318031958
0	9202	93.938233618712	0.006244607234
0	9206	93.944478225946	0.124474124455
0	9212	94.068952350401	0.036910394956
0	9217	94.105862745357	0.012472814701
0	9222	94.118335560058	0.021541735063
0	9227	94.139877295121	0.006485896327
0	9231	94.146363191448	0.125179420816
0	9237	94.271542612264	0.004132680952
0	9241	94.275675293216	0.266768672074
0	9247	94.54244396529	0.208679830177
0	9252	94.751123795467	0.03368270268
0	9257	94.784806498147	0.056201822007
0	9262	94.841008320154	0.005539498676
0	9266	94.84654781883	0.364634414702
0	9272	95.211182233532	0.061329786466
0	9277	95.272512019998	0.139126917702
0	9282	95.4116389377	0.018076815964
0	9287	95.429715753664	0.010622796392
0	9292	95.440338550056	0.028947162399
0	9297	95.469285712455	0.042399173023
0	9302	95.511684885478	0.002275152704
0	9306	95.513960038182	0.046653301189
0	9312	95.560613339371	0.069183993336
0	9317	95.629797332707	0.04036992842
0	9322	95.670167261127	0.113359771845
0	9328	95.783527032972	0.020666735571
0	9333	95.804193768543	0.109237289193
0	9339	95.913431057736	0.067411988875
0	9344	95.980843046611	0.007018994726
0	9348	95.987862041337	0.014676967095
0	9354	96.002539008432	0.165028112389
0	9359	96.167567120821	0.022819477883
0	9364	96.190386598704	0.061166307535
0	9369	96.251552906239	0.002552706034
0	9373	96.254105612273	0.044481586611
0	9379	96.298587198884	0.01012198577
0	9384	96.308709184654	0.065235056014
0	9389	96.373944240668	0.000572576606
0	9393	96.374516817274	0.036208967999
0	9399	96.410725785273	0.049153031982
0	9404	96.459878817255	0.041985875621
0	9409	96.501864692876	0.061503561539
0	9414	96.563368254415	0.048033024127
0	9419	96.611401278542	0.116096988039
0	9424	96.727498266581	0.020741896946
0	9429	96.748240163527	0.06206333825
0	9434	96.810303501777	0.115132421899
0	9439	96.925435923676	0.009688068094
0	9444	96.93512399177	0.016848203562
0	9449	96.951972195332	0.066861178967
0	9454	97.018833374299	0.028256410947
0	9459	97.047089785246	0.006424425365
0	9463	97.053514210611	0.10330774548
0	9469	97.156821956091	0.016357667995
0	9474	97.173179624086	0.162626051872
0	9479	97.335805675958	0.051447387863
0	9484	97.387253063821	0.072292309284
0	9489	97.459545373105	0.032047634688
0	9494	97.491593007793	0.039987917718
0	9499	97.531580925511	0.03957427061
0	9504	97.571155196121	0.034567495235
0	9509	97.605722691356	0.102703567497
0	9514	97.708426258853	0.008644046307
0	9519	97.71707030516	0.023658578733
0	9524	97.740728883893	0.00057799434
0	9528	97.741306878233	0.016606977124
0	9534	97.757913855357	0.029987103206
0	9539	97.787900958563	0.012670749726
0	9544	97.800571708289	0.036250038827
0	9549	97.836821747116	0.049216078378
0	9554	97.886037825494	0.07359057007
0	9559	97.959628395564	0.097073238649
0	9564	98.056701634213	0.085101229435
0	9569	98.141802863648	0.013329666868
0	9574	98.155132530516	0.038037383121
0	9579	98.193169913637	0.011127858391
0	9584	98.204297772028	0.008514074817
0	9589	98.212811846845	0.046666056696
0	9594	98.259477903541	0.092069979697
0	9599	98.351547883238	0.041991766739
0	9604	98.393539649977	0.024924518535
0	9610	98.418464168512	0.025742249067
0	9615	98.444206417579	0.021818829794
0	9620	98.466025247373	0.044425342159
0	9625	98.510450589532	0.004277463845
0	9629	98.514728053377	0.220447662254
0	9635	98.735175715631	0.017412537401
0	9640	98.752588253032	0.103555624
0	9645	98.856143877032	0.012326173573
0	9650	98.868470050605	0.021235708245
0	9655	98.88970575885	0.111499468837
0	9660	99.001205227687	0.031346821284
0	9665	99.032552048971	0.106350610493
0	9670	99.138902659464	0.17146476836
0	9675	99.310367427824	0.062525676316
0	9680	99.37289310414	0.01140617248
0	9685	99.38429927662	0.030642114791
0	9690	99.414941391411	0.022428367335
0	9695	99.437369758746	0.083151166095
0	9700	99.520520924841	0.007076880174
0	9704	99.527597805015	0.040027228473
0	9710	99.567625033488	0.063627694363
0	9715	99.631252727851	0.024999271021
0	9720	99.656251998872	0.044313564522
0	9725	99.700565563394	0.17699059081
0	9730	99.877556154204	0.018767066082
0	9735	99.896323220286	0.008810106383
0	9740	99.905133326669	0.012985800879
0	9745	99.918119127548	0.004772485011
0	9749	99.922891612559	0.077680577889
0	9755	100.000572190448	0.013130479541
0	9760	100.013702669989	0.03218011553
0	9765	100.045882785519	0.034763024047
0	9770	100.080645809566	0.021881984102
0	9775	100.102527793668	0.004789576007
0	9779	100.107317369675	0.016725814405
0	9785	100.12404318408	0.160664234728
0	9790	100.284707418808	0.052966139222
0	9795	100.33767355803	0.205251346044
0	9800	100.542924904074	0.036649005908
0	9805	100.579573909982	0.155432700637
0	9810	100.735006610619	0.065260920939
0	9815	100.800267531558	0.033342169716
0	9820	100.833609701274	0.01365906226
0	9825	100.847268763534	0.022765136099
0	9830	100.870033899633	0.071753677034
0	9835	100.941787576667	0.137039262543
0	9840	101.07882683921	0.01731241216
0	9846	101.09613925137	0.008513975204
0	9851	101.104653226574	0.049944575956
0	9856	101.15459780253	0.029549896816
0	9861	101.184147699346	0.308988783414
0	9866	101.49313648276	0.030134433594
0	9871	101.523270916354	0.012837779714
0	9876	101.536108696068	0.071576747667
0	9881	101.607685443735	0.003357007145
0	9885	101.61104245088	0.055248111488
0	9891	101.666290562368	0.031687464736
0	9896	101.697978027104	0.084081929037
0	9901	101.782059956141	0.002857865344
0	9905	101.784917821485	0.098885990987
0	9911	101.883803812472	0.094524315539
0	9916	101.978328128011	0.029578766385
0	9921	102.007906894396	0.016967334492
0	9926	102.024874228888	0.024367380014
0	9931	102.049241608902	0.078195505048
0	9936	102.12743711395	0.058111168241
0	9941	102.185548282191	0.031997066826
0	9946	102.217545349017	0.057919316117
0	9951	102.275464665134	0.1790715605
0	9956	102.454536225634	0.092362656035
0	9961	102.546898881669	0.008338376028
0	9966	102.555237257697	0.093475925426
0	9971	102.648713183123	0.008263221178
0	9976	102.656976404301	0.079004832651
0	9981	102.735981236952	0.053718732232
0	9986	102.789699969184	0.011435019385
0	9991	102.801134988569	0.016597847371
0	9996	102.81773283594	0.013612696361
0	10001	102.831345532301	0.047376029557
0	10006	102.878721561858	0.111020798951
0	10011	102.989742360809	0.028025562581
0	10016	103.01776792339	0.019660592633
0	10021	103.037428516023	0.004189288514
0	10025	103.041617804537	0.013114875456
0	10031	103.054732679993	0.001562677479
0	10035	103.056295357472	0.248075010166
0	10041	103.304370367638	0.00374357
0	10045	103.308113937638	0.057816713763
0	10051	103.365930651401	0.038511218677
0	10056	103.404441870078	0.003107917531
0	10060	103.407549787609	0.020061831221
0	10066	103.42761161883	0.139642763523
0	10071	103.567254382353	0.027856573232
0	10076	103.595110955585	0.01667671487
0	10081	103.611787670455	0.00583600168
0	10085	103.617623672135	0.003411610563
0	10090	103.621035282698	0.053764109015
0	10096	103.674799391713	0.050292434838
0	10101	103.725091826551	0.0214709006
0	10106	103.746562727151	0.114720434483
0	10111	103.861283161634	0.015372871231
0	10116	103.876656032865	0.085196817957
0	10121	103.961852850822	0.019661219609
0	10126	103.981514070431	0.009953694522
0	10131	103.991467764953	0.234805958082
0	10136	104.226273723035	0.012227508374
0	10141	104.238501231409	0.009975169878
0	10146	104.248476401287	0.034120742264
0	10151	104.282597143551	0.112819689858
0	10156	104.395416833409	0.169702645323
0	10162	104.565119478732	0.115607512883
0	10167	104.680726991615	0.168430015497
0	10172	104.849157007112	0.017173331935
0	10178	104.866330339047	0.121404139053
0	10184	104.9877344781	0.077405470593
0	10189	105.065139948693	0.014858830109
0	10194	105.079998778802	0.028269126721
0	10199	105.108267905523	0.02348241977
0	10204	105.131750325293	0.013568858972
0	10210	105.145319184265	0.002570622943
0	10214	105.147889807208	0.026128707483
0	10220	105.174018514691	0.004127564792
0	10224	105.178146079483	0.10291793794
0	10230	105.281064017423	0.023628601165
0	10235	105.304692618588	0.018187057124
0	10240	105.322879675712	0.01718942533
0	10245	105.340069101042	0.006523288589
0	10249	105.346592389631	0.020441889298
0	10255	105.367034278929	0.014252551021
0	10260	105.38128682995	0.092229634522
0	10265	105.473516464472	0.023857537012
0	10270	105.497374001484	0.042450394432
0	10275	105.539824395916	0.029383839885
0	10280	105.569208235801	0.031753505382
0	10285	105.600961741183	0.07539395208
0	10290	105.676355693263	0.012708324027
0	10295	105.68906401729	0.064300086301
0	10300	105.753364103591	0.037331454202
0	10305	105.790695557793	0.074458013152
0	10310	105.865153570945	0.076158021729
0	10315	105.941311592674	0.00084731372
0	10319	105.942158906394	0.127113818821
0	10325	106.069272725215	0.006262016028
0	10329	106.075534741243	0.046700483141
0	10335	106.122235224384	0.034620354166
0	10340	106.15685557855	0.023019704675
0	10345	106.179875283225	0.006545705134
0	10349	106.186420988359	0.011331679421
0	10355	106.19775266778	0.005720070355
0	10359	106.203472738135	0.031443774409
0	10365	106.234916512544	0.014707586074
0	10370	106.249624098618	0.012396780892
0	10375	106.26202087951	0.094389178305
0	10380	106.356410057815	0.005277233057
0	10384	106.361687290872	0.15000162007
0	10390	106.511688910942	0.182472235012
0	10395	106.694161145954	0.006000676992
0	10399	106.700161822946	0.077067690884
0	10405	106.77722951383	0.043354264878
0	10410	106.820583778708	0.001042055338
0	10414	106.821625834046	0.040679308407
0	10420	106.862305142453	0.017897292387
0	10425	106.88020243484	0.021751436631
0	10430	106.901953871471	0.025373593325
0	10435	106.927327464796	0.005920127132
0	10439	106.933247591928	0.134614157454
0	10445	107.067861749382	0.015169800661
0	10450	107.083031550043	0.03374223747
0	10455	107.116773787513	0.021968817227
0	10460	107.13874260474	0.020882739386
0	10465	107.159625344126	0.012936755981
0	10470	107.172562100107	0.04040763153
0	10475	107.212969731637	0.018877625456
0	10480	107.231847357093	0.023154094764
0	10485	107.255001451857	0.057154681852
0	10491	107.312156133709	0.017081827324
0	10496	107.329237961033	0.062229501788
0	10501	107.391467462821	0.043323266621
0	10506	107.434790729442	0.077560035013
0	10511	107.512350764455	0.03029278249
0	10516	107.542643546945	0.034756794775
0	10521	107.57740034172	0.137822803923
0	10526	107.715223145643	0.048348444854
0	10531	107.763571590497	0.028816575401
0	10536	107.792388165898	0.000124315921
0	10540	107.792512481819	0.05251033377
0	10546	107.845022815589	0.002001573594
0	10550	107.847024389183	0.043661067325
0	10556	107.890685456508	0.115228366679
0	10561	108.005913823187	0.012029365013
0	10566	108.0179431882	0.191128332313
0	10571	108.209071520513	0.297145340529
0	10576	108.506216861042	0.019128571541
0	10581	108.525345432583	0.239803186455
0	10586	108.765148619038	0.038864912483
0	10591	108.804013531521	0.019538543892
0	10596	108.823552075413	0.102900771944
0	10602	108.926452847357	0.004033220506
0	10606	108.930486067863	0.051191677996
0	10612	108.981677745859	0.038235644674
0	10617	109.019913390533	0.055042946104
0	10622	109.074956336637	0.156295269835
0	10627	109.231251606472	0.051792761283
0	10632	109.283044367755	0.032508154982
0	10637	109.315552522737	0.151924382812
0	10642	109.467476905549	0.084763770808
0	10647	109.552240676357	0.042863962983
0	10652	109.59510463934	0.026238119201
0	10657	109.621342758541	0.020721347317
0	10662	109.642064105858	0.100573254805
0	10667	109.742637360663	0.019232788157
0	10672	109.76187014882	0.026737417801
0	10677	109.788607566621	0.095484675362
0	10682	109.884092241983	0.047023016808
0	10687	109.931115258791	0.110816545288
0	10692	110.041931804079	0.074561918143
0	10697	110.116493722222	0.046020056831
0	10702	110.162513779053	0.010781989045
0	10707	110.173295768098	0.149372084438
0	10712	110.322667852536	0.043637353395
0	10718	110.366305205931	0.193857412313
0	10724	110.560162618244	0.016626935071
0	10729	110.576789553315	0.06150049945
0	10734	110.638290052765	0.007613234131
0	10738	110.645903286896	0.094691821219
0	10745	110.740595108115	0.038233489499
0	10750	110.778828597614	0.070922886371
0	10755	110.849751483985	0.103607762406
0	10760	110.953359246391	0.022956717792
0	10765	110.976315964183	0.028632881988
0	10770	111.004948846171	0.03105517903
0	10775	111.036004025201	0.01668182578
0	10780	111.052685850981	0.015577345178
0	10785	111.068263196159	0.054696999563
0	10790	111.122960195722	0.058890353905
0	10795	111.181850549627	0.0872950296
0	10800	111.269145579227	0.112727673532
0	10805	111.381873252759	0.005507257218
0	10809	111.387380509977	0.049323821414
0	10815	111.436704331391	0.00364773076
0	10819	111.440352062151	0.000500647127
0	10822	111.440852709278	0.138118593208
0	10831	111.578971302486	0.019243451357
0	10836	111.598214753843	0.056126711044
0	10842	111.654341464887	0.005363154914
0	10846	111.659704619801	0.11816809619
0	10852	111.777872715991	0.108394257037
0	10857	111.886266973028	0.018252385702
0	10862	111.90451935873	0.016658431601
0	10867	111.921177790331	0.00754070201
0	10871	111.928718492341	0.013756422299
0	10877	111.94247491464	0.00069260094
0	10881	111.94316751558	0.17538596195
0	10887	112.11855347753	0.061700697814
0	10892	112.180254175344	0.000584113868
0	10896	112.180838289212	0.037668384221
0	10902	112.218506673433	0.001529802884
0	10906	112.220036476317	0.051884394627
0	10912	112.271920870944	0.050729441742
0	10917	112.322650312686	0.00132283561
0	10921	112.323973148296	0.039645434789
0	10927	112.363618583085	0.102002341703
0	10932	112.465620924788	0.042249072314
0	10937	112.507869997102	0.026220646752
0	10942	112.534090643854	0.01631562295
0	10947	112.550406266804	0.030367082669
0	10952	112.580773349473	0.160303784659
0	10957	112.741077134132	0.038974726966
0	10962	112.780051861098	0.056519040791
0	10967	112.836570901889	0.050977893322
0	10972	112.887548795211	0.022046792732
0	10977	112.909595587943	0.04564038609
0	10982	112.955235974033	0.156986021041
0	10987	113.112221995074	0.082361485934
0	10992	113.194583481008	0.029519177158
0	10997	113.224102658166	0.049249935961
0	11002	113.273352594127	0.103003677306
0	11007	113.376356271433	0.00939565139
0	11012	113.385751922823	0.019287592796
0	11017	113.405039515619	0.045350101951
0	11022	113.45038961757	0.034102555281
0	11027	113.484492172851	0.017286200435
0	11032	113.501778373286	0.040204101345
0	11037	113.541982474631	0.015820702828
0	11042	113.557803177459	0.036260760636
0	11047	113.594063938095	0.078379783922
0	11052	113.672443722017	0.024500266146
0	11057	113.696943988163	0.044055041249
0	11062	113.740999029412	0.075035500261
0	11067	113.816034529673	0.120706957779
0	11072	113.936741487452	0.010104708129
0	11077	113.946846195581	0.191485389174
0	11083	114.138331584755	0.015716900646
0	11088	114.154048485401	0.007894346915
0	11093	114.161942832316	0.122598052199
0	11098	114.284540884515	0.056074359288
0	11104	114.340615243803	0.051754034242
0	11109	114.392369278045	0.021472511512
0	11114	114.413841789557	0.035937840146
0	11119	114.449779629703	0.009283904393
0	11124	114.459063534096	0.009574831599
0	11129	114.468638365695	0.007110968153
0	11133	114.475749333848	0.036493221298
0	11139	114.512242555146	0.001074008414
0	11143	114.51331656356	0.011814948623
0	11148	114.525131512183	0.015025910042
0	11154	114.540157422225	0.092394494792
0	11160	114.632551917017	0.115183333609
0	11165	114.747735250626	0.168704709292
0	11170	114.916439959918	0.095690349213
0	11175	115.012130309131	0.139069035748
0	11180	115.151199344879	0.019803895737
0	11185	115.171003240616	0.016023057748
0	11190	115.187026298364	0.047592493678
0	11195	115.234618792042	0.002162926848
0	11199	115.23678171889	0.004109667255
0	11202	115.240891386145	0.005580484558
0	11207	115.246471870703	0.022334819301
0	11215	115.268806690004	0.03082732417
0	11220	115.299634014174	0.037377713961
0	11225	115.337011728135	0.047534939742
0	11230	115.384546667877	0.037180687019
0	11235	115.421727354896	0.075187292182
0	11240	115.496914647078	0.165265773653
0	11245	115.662180420731	0.021788787991
0	11250	115.683969208722	0.050480462975
0	11255	115.734449671697	0.02611617141
0	11260	115.760565843107	0.011556286571
0	11265	115.772122129678	0.007892418521
[...]
4	40015	394.17005818921	0.007777777778
4	40020	394.18698465396	0.007777777778
4	40025	394.253587059994	0.007777777778
4	40032	394.42783622106	0.007777777778
4	40037	394.574139374327	0.007777777778
4	40042	394.581917152105	0.010901058996
4	40047	394.636721296962	0.007777777778
4	40052	394.71794422761	0.007777777778
4	40057	394.73021621972	0.007777777778
4	40062	394.737993997498	0.008321226946
4	40067	394.749954910688	0.007777777778
4	40072	394.814335738849	0.007777777778
4	40077	394.8269054644	0.007777777778
4	40082	394.841090857937	0.007777777778
4	40087	394.8664498579	0.007777777778
4	40092	395.006888694442	0.007777777778
4	40097	395.136651367463	0.007777777778
4	40102	395.228832573045	0.007777777778
4	40107	395.28508328211	0.007777777778
4	40112	395.434217200875	0.007777777778
4	40117	395.463327437935	0.007777777778
4	40122	395.471105215713	0.011041032885
4	40127	395.542728079196	0.007777777778
4	40132	395.5868107373	0.007777777778
4	40137	395.61171362726	0.007777777778
4	40142	395.619491405038	0.014626776729
4	40147	395.683827948133	0.007777777778
4	40152	395.692785903101	0.007777777778
4	40157	395.712144654171	0.007777777778
4	40162	395.812463572845	0.007777777778
4	40167	395.988109349987	0.007777777778
4	40172	396.016581665562	0.007777777778
4	40177	396.02435944334	0.012065447267
4	40182	396.0585147993	0.007777777778
4	40187	396.066292577078	0.014549098754
4	40192	396.085750124845	0.007777777778
4	40197	396.093527902623	0.013641077505
4	40202	396.143041931697	0.007777777778
4	40207	396.180315021877	0.007777777778
4	40212	396.245390263273	0.007777777778
4	40218	396.299701252207	0.007777777778
4	40223	396.307479029985	0.010900828135
4	40228	396.318007599497	0.007777777778
4	40233	396.341322493798	0.007777777778
4	40238	396.349100271576	0.011399162424
4	40243	396.375585421606	0.007777777778
4	40248	396.384019959356	0.007777777778
4	40253	396.39925923074	0.007777777778
4	40259	396.435792127105	0.007777777778
4	40265	396.473335439301	0.007777777778
4	40270	396.615310976243	0.007777777778
4	40276	396.70496293062	0.007777777778
4	40281	396.721984182563	0.007777777778
4	40286	396.766863683347	0.007777777778
4	40291	396.985989251359	0.007777777778
4	40296	397.133332500867	0.007777777778
4	40301	397.205225214547	0.007777777778
4	40306	397.213002992325	0.009276807799
4	40311	397.2573873731	0.007777777778
4	40316	397.283612488893	0.007777777778
4	40321	397.421143110565	0.007777777778
4	40326	397.540054611027	0.007777777778
4	40332	397.771812039842	0.007777777778
4	40337	397.85006993843	0.007777777778
4	40342	397.906408803788	0.007777777778
4	40350	397.914186581566	0.013591177219
4	40352	397.921964359344	0.020817114217
4	40357	398.02077567223	0.007777777778
4	40362	398.042865537318	0.007777777778
4	40367	398.050643315096	0.012070791301
4	40372	398.097763830884	0.007777777778
4	40377	398.111135192599	0.007777777778
4	40382	398.235207237949	0.007777777778
4	40387	398.2506052661	0.007777777778
4	40392	398.283587060145	0.007777777778
4	40397	398.296208254345	0.007777777778
4	40402	398.32524280084	0.007777777778
4	40407	398.333020578618	0.010975634377
4	40412	398.345392680773	0.007777777778
4	40417	398.457959856098	0.007777777778
4	40422	398.50122911391	0.007777777778
4	40427	398.612572710478	0.007777777778
4	40432	398.620350488256	0.010351176378
4	40437	398.661330876514	0.007777777778
4	40442	398.692684658936	0.007777777778
4	40447	398.718188932308	0.007777777778
4	40452	398.733890238247	0.007777777778
4	40457	398.762416056481	0.007777777778
4	40462	398.783762514575	0.007777777778
4	40467	398.926474844644	0.007777777778
4	40474	399.042107929633	0.007777777778
4	40479	399.082387932389	0.007777777778
4	40484	399.091100855201	0.007777777778
4	40489	399.142337204406	0.007777777778
4	40496	399.184628211806	0.007777777778
4	40501	399.278330771221	0.007777777778
4	40506	399.364081145892	0.007777777778
4	40511	399.412272737997	0.007777777778
4	40516	399.462100430895	0.007777777778
4	40521	399.499364430584	0.007777777778
4	40526	399.514452823441	0.007777777778
4	40531	399.536817373988	0.007777777778
4	40536	399.573720230924	0.007777777778
4	40541	399.581882119323	0.007777777778
4	40546	399.698246023767	0.007777777778
4	40551	399.71755517728	0.007777777778
4	40556	399.739700472351	0.007777777778
4	40561	399.763258335008	0.007777777778
4	40566	399.789910625421	0.007777777778
4	40571	399.871673538015	0.007777777778
4	40576	399.879451315793	0.011334432627
4	40581	399.950605529502	0.007777777778
4	40586	399.963918388118	0.007777777778
5	937	10.969592515027	0.68556031429585
5	1023	11.655152829323	1.6865696535361
5	1219	13.341722482859	1.3437014457603
5	1305	14.685423928619	0.94931201776179
5	1401	15.634735946381	0.21685336783023
5	1437	15.851589314211	0.48974276657224
5	1478	16.341332080783	0.19814031329921
5	1504	16.539472394082	1.0060823733268
5	1595	17.545554767409	0.77398043924987
5	1661	18.319535206659	0.23914285894289
5	1702	18.558678065602	0.33235258369363
5	1708	18.891030649296	0.007459494315343
5	1709	18.898490143611	1.4310401756777
5	1845	20.329530319289	0.55133425814025
5	1886	20.880864577429	0.31429020114634
5	1912	21.195154778575	2.1659204881934
5	2138	23.361075266768	0.34745969218045
5	2194	23.708534958948	1.0900508910937
5	2310	24.798585850042	3.2808978813396
5	2606	28.079483731382	0.20253758574328
5	2612	28.282021317125	2.4443137481178
5	2807	30.726335065243	0.036391559475316
5	2814	30.762726624718	0.83973450123928
5	2940	31.602461125957	1.9457116159137
5	3178	33.548172741871	0.66454485786115
5	3232	34.212717599732	1.2578146279238
5	3355	35.470532227656	1.0604624518781
5	3449	36.530994679534	0.53123750696289
5	3490	37.062232186497	0.76922810904928
5	3551	37.831460295546	1.0458847694455
5	3642	38.877345064992	5.4582280532745
5	4227	44.335573118267	0.67395146116401
5	4324	45.009524579431	0.15313073591567
5	4330	45.162655315347	1.265878332384
5	4446	46.428533647731	3.7026391630253
5	4787	50.131172810756	0.66305895284836
5	4868	50.794231763604	0.96642016181833
5	4939	51.760651925422	0.74666089993884
5	5034	52.507312825361	1.2747036351988
5	5156	53.78201646056	1.9207146266382
5	5402	55.702731087198	0.34964765263107
5	5428	56.052378739829	0.18103649532966
5	5444	56.233415235159	0.91662068310975
5	5579	57.150035918269	2.5131919258937
5	5846	59.663227844163	1.3888394670348
5	5987	61.052067311198	0.95662908475128
5	6098	62.008696395949	1.0254533975049
5	6169	63.034149793454	1.4974379252622
5	6365	64.531587718716	2.567846472193
5	6636	67.099434190909	1.2734647313438
5	6706	68.372898922253	2.1957977562196
5	6938	70.568696678473	1.6397029129243
5	7113	72.208399591397	1.0347121634904
5	7205	73.243111754887	0.27638450438408
5	7241	73.519496259271	0.35046910937172
5	7282	73.869965368643	0.86497682427085
5	7378	74.734942192914	1.1475726663606
5	7474	75.882514859275	0.33326609921079
5	7500	76.215780958486	0.32434227196651
5	7516	76.540123230453	3.5150018065541
5	7841	80.055125037007	0.13516696800291
5	7858	80.19029200501	0.14479379144384
5	7878	80.335085796454	0.84377770802716
5	7980	81.178863504481	0.32244693949281
5	8016	81.501310443974	0.5260399317937
5	8042	82.027350375768	2.7473488721601
5	8308	84.774699247928	0.82190176654757
5	8394	85.596601014476	0.98913830249684
5	8480	86.585739316973	1.9265036190797
5	8691	88.512242936053	1.6305036569368
5	8857	90.14274659299	0.10172147332466
5	8872	90.244468066315	1.0000237819186
5	8959	91.244491848234	0.43748667814211
5	9000	91.681978526376	0.45463561539896
5	9036	92.136614141775	3.6352163377053
5	9327	95.77183047948	0.072643638151415
5	9338	95.844474117631	2.5506121983064
5	9608	98.395086315937	2.6867109330482
5	9844	101.081797248985	3.4630670781329
5	10161	104.544864327118	0.30772130469992
5	10176	104.852585631818	0.052300520782963
5	10183	104.904886152601	0.23887409463499
5	10209	105.143760247236	2.1503437401331
5	10490	107.294103987369	1.5788685369429
5	10601	108.872972524312	1.4695659323337
5	10717	110.342538456646	0.069937567385883
5	10723	110.412476024032	0.27393096313817
5	10744	110.68640698717	0.83676050305213
5	10830	111.523167490222	0.10960812940571
5	10841	111.632775619628	2.4920479309204
5	11082	114.124823550548	0.20616024033959
5	11103	114.330983790888	0.22203334789307
5	11159	114.553017138781	1.3972350545025
5	11290	115.950252193284	1.9868540463748
5	11535	117.937106239659	3.0554234127974
5	11897	120.992529652456	1.1378598656603
5	11997	122.130389518116	1.5634231646567
5	12129	123.693812682773	0.064105360723147
5	12130	123.757918043496	0.20654366077512
5	12141	123.964461704271	0.28823323634892
5	12177	124.25269494062	0.717536063743
5	12248	124.970231004363	1.1464314806537
5	12414	126.116662485017	0.084957949337078
5	12420	126.201620434354	0.74112347067649
5	12476	126.94274390503	0.74074157639944
5	12522	127.683485481429	1.2175221775724
5	12643	128.901007659001	0.14370772222791
5	12659	129.044715381229	0.41963202768892
5	12725	129.464347408918	0.22142566213623
5	12761	129.685773071054	2.2283031979043
5	13011	131.914076268958	0.11450812280743
5	13023	132.028584391765	1.0541847240537
5	13139	133.082769115819	1.0016450200981
5	13225	134.084414135917	0.25771029047538
5	13226	134.342124426392	3.0348536366603
5	13557	137.376978063052	1.2523661801764
5	13737	138.629344243228	0.7473073748072
5	13794	139.376651618035	2.2597353887799
5	14045	141.636387006815	0.41070467224353
5	14091	142.047091679059	0.71307918146568
5	14176	142.760170860525	0.70990264347257
5	14285	143.470073503998	1.4862194625278
5	14428	144.956292966526	4.6533032155943
5	14790	149.60959618212	0.14396621529378
5	14815	149.753562397414	1.0031123477972
5	14887	150.756674745211	1.0909911221387
5	14958	151.84766586735	0.45368887634134
5	15023	152.301354743691	0.60200053806151
5	15109	152.903355281753	3.7183121216041
5	15446	156.621667403357	0.48313993515478
5	15507	157.104807338512	1.5253319641
5	15668	158.630139302612	1.0959510549779
5	15769	159.72609035759	0.039567329318719
5	15770	159.765657686909	0.85787906016112
5	15836	160.62353674707	4.2271301276464
5	16247	164.850666874716	0.3494022848512
5	16258	165.200069159567	0.43397617395085
5	16319	165.634045333518	0.25413608487498
5	16360	165.888181418393	0.32552555084001
5	16391	166.213706969233	1.5286810857429
5	16562	167.742388054976	0.37648132988027
5	16588	168.118869384856	0.25057061173826
5	16599	168.369439996594	1.0221339802763
5	16659	169.39157397687	0.41374574545768
5	16676	169.805319722328	0.66728023360964
5	16782	170.472599955938	0.22792467093578
5	16808	170.700524626874	0.31669999320864
5	16844	171.017224620083	0.1706854097533
5	16850	171.187910029836	2.9171055529549
5	17121	174.105015582791	0.33171460509653
5	17142	174.436730187888	0.52726223733323
5	17208	174.963992425221	1.1419191561226
5	17334	176.105911581344	0.31163615258686
5	17365	176.417547733931	0.37084051390822
5	17401	176.788388247839	1.9903570692791
5	17587	178.778745317118	1.8627013141584
5	17778	180.641446631276	0.61865460780067
5	17819	181.260101239077	0.33114528838897
5	17865	181.591246527466	1.2059641565852
5	17971	182.797210684051	1.1132443339577
5	18077	183.910455018009	0.60497067527121
5	18118	184.51542569328	0.28277166792326
5	18124	184.798197361203	1.3676602449955
5	18265	186.165857606199	2.4495317179884
5	18481	188.615389324187	0.063489901977895
5	18496	188.678879226165	0.34301415903806
5	18542	189.021893385203	0.069081576645358
5	18554	189.090974961848	0.86709456872219
5	18655	189.95806953057	0.35153206788034
5	18686	190.30960159845	1.1693292536114
5	18822	191.478930852061	0.94738030544516
5	18898	192.426311157506	3.0854780813945
5	19194	195.5117892389	0.013523543892045
5	19195	195.525312782792	0.61371896818125
5	19271	196.139031750973	0.48169094688893
5	19322	196.620722697862	0.3022285302023
5	19358	196.922951228064	1.1382482524445
5	19484	198.061199480509	0.67354094417645
5	19545	198.734740424685	2.4479024279405
5	19801	201.182642852626	1.1161322534064
5	19957	202.298775106032	0.29709729729254
5	20013	202.595872403325	0.40505855309145
5	20074	203.000930956416	0.10949046944351
5	20090	203.11042142586	0.35115738000481
5	20151	203.461578805865	1.7949060701751
5	20367	205.25648487604	1.1913309471632
5	20518	206.447815823203	0.81087741359949
5	20599	207.258693236802	0.3065279377293
5	20635	207.565221174531	0.0050570753659368
5	20636	207.570278249897	0.19776055702894
5	20647	207.768038806926	0.45362996383497
5	20698	208.221668770761	0.40564655633457
5	20724	208.627315327096	1.4673482996017
5	20850	210.094663626698	0.2947689815525
5	20901	210.38943260825	0.32244939998955
5	20936	210.71188200824	0.10039608326885
5	20942	210.812278091509	0.34598689553374
5	20964	211.158264987043	0.44356565683933
5	21025	211.601830643882	0.089135311782595
5	21041	211.690965955665	0.44983395007041
5	21072	212.140799905735	0.20783608117277
5	21078	212.348635986908	1.5030627646118
5	21239	213.85169875152	0.30454446701679
5	21285	214.156243218537	5.6595971464054
5	21931	219.815840364942	1.0357684866915
5	22056	220.851608851633	1.4322787103269
5	22183	222.28388756196	0.25762665114893
5	22214	222.541514213109	0.8803088627842
5	22294	223.421823075893	0.72144846566527
5	22356	224.143271541558	0.52955940453708
5	22399	224.672830946095	1.1877805767864
5	22528	225.860611522881	0.47355569894138
5	22579	226.334167221822	2.1011372291073
5	22845	228.435304450929	0.62702516245885
5	22931	229.062329613388	1.645164309961
5	23077	230.707493923349	0.57497295046475
5	23138	231.282466873814	2.3081158206325
5	23424	233.590582694446	4.5218370982697
5	23935	238.112419792716	1.947302336441
5	24146	240.059722129157	0.46837742765895
5	24177	240.528099556816	0.57585366353535
5	24237	241.103953220351	0.80815707115212
5	24299	241.912110291503	0.8896187041074
5	24400	242.80172899561	0.20836305273583
5	24436	243.010092048346	1.5382838989483
5	24621	244.548375947294	1.1195399284026
5	24718	245.667915875697	0.80724825038649
5	24799	246.475164126083	1.3647191622567
5	24955	247.83988328834	0.96996364166161
5	25056	248.809846930002	1.5841867834611
5	25226	250.394033713463	0.85230293641366
5	25323	251.246336649877	2.2134844410227
5	25594	253.4598210909	1.3327899449641
5	25690	254.792611035864	1.3425922963135
5	25800	256.135203332178	4.4294230479548
5	26312	260.564626380133	2.0418347680634
5	26558	262.606461148196	0.14255947919519
5	26564	262.749020627391	0.21696455052077
5	26605	262.965985177912	0.12042009669726
5	26611	263.086405274609	2.8445906212125
5	26927	265.930995895821	1.2093286316417
5	27038	267.140324527463	0.23023995620796
5	27064	267.370564483671	0.060194196065411
5	27070	267.430758679736	1.1997962188467
5	27181	268.630554898583	0.8199285768008
5	27272	269.450483475384	0.10589721047219
5	27298	269.556380685856	0.66473580659865
5	27384	270.221116492455	0.15367731295762
5	27400	270.374793805413	0.10073425413067
5	27411	270.475528059544	0.89797559876315
5	27531	271.373503658307	1.6117714425978
5	27723	272.985275100905	0.69773342138361
5	27769	273.683008522289	0.062201304601712
5	27780	273.745209826891	0.32074825231262
5	27810	274.065958079204	0.82143785675473
5	27902	274.887395935959	0.83774835671969
5	27953	275.725144292679	0.56184496618463
5	28019	276.286989258864	0.67844756307483
5	28070	276.965436821939	0.30810721433432
5	28106	277.273544036273	0.087822147644386
5	28107	277.361366183917	0.67873150029542
5	28163	278.040097684212	0.093837371414668
5	28169	278.133935055627	0.073011261456259
5	28185	278.206946317083	0.99334405834364
5	28286	279.200290375427	0.090060972550692
5	28287	279.290351347978	0.11250857947114
5	28303	279.402859927449	0.27847124371786
5	28329	279.681331171167	1.8959875845265
5	28525	281.577318755693	2.790827872173
5	28791	284.368146627866	0.29248202595775
5	28812	284.660628653824	0.46224140933643
5	28858	285.12287006316	2.3641211808949
5	29149	287.486991244055	0.20938581692009
5	29174	287.696377060975	0.85900184787152
5	29246	288.555378908847	1.6243158934948
5	29417	290.179694802342	0.76916132876194
5	29503	290.948856131104	0.15666660085696
5	29524	291.105522731961	3.7233674869173
5	29900	294.828890218878	2.028777444723
5	30153	296.857667663601	1.4093118771124
5	30312	298.266979540713	0.34658918769112
5	30368	298.613568728404	0.096563105750385
5	30379	298.710131834154	0.054617232085704
5	30390	298.76474906624	1.3767152314206
5	30531	300.141464297661	0.84102581413918
5	30637	300.9824901118	0.0097029524452863
5	30638	300.992193064245	0.24325013391282
5	30673	301.235443198158	0.49371461236035
5	30740	301.729157810518	0.19127705963354
5	30761	301.920434870152	1.8685944705026
5	30912	303.789029340655	0.34639783590807
5	30973	304.135427176563	1.030020767449
5	31079	305.165447944012	3.4328511563944
5	31420	308.598299100406	0.18752963377263
5	31436	308.785828734179	0.19942131447436
5	31447	308.985250048653	0.88308308131565
5	31508	309.868333129969	0.086420076410387
5	31514	309.954753206379	1.1040565583456
5	31635	311.058809764725	1.9657780660999
5	31791	313.024587830825	1.4321785188097
5	31886	314.456766349635	2.7357294384054
5	32183	317.19249578804	1.0076422339674
5	32299	318.200138022007	2.2405029297994
5	32570	320.440640951806	1.6890920726777
5	32771	322.129733024484	2.8573700090623
5	33062	324.987103033546	0.21591780616822
5	33093	325.203020839714	2.2679152500022
5	33299	327.470936089716	1.9163854932268
5	33505	329.387321582943	1.6594555271374
5	33671	331.04677711008	0.28647436348791
5	33721	331.333251473568	0.69190050541045
5	33783	332.025151978978	2.7629104651744
5	34049	334.788062444152	5.7162526646056
5	34600	340.504315108758	0.26880791325819
5	34625	340.773123022016	2.3331132224334
5	34882	343.106236244449	0.23014840278915
5	34913	343.336384647238	0.1126459923659
5	34919	343.449030639604	0.40589025339418
5	35000	343.854920892998	0.63450736376709
5	35061	344.489428256765	0.4823588315098
5	35131	344.971787088275	0.41581183485135
5	35163	345.387598923126	0.25407714092941
5	35179	345.641676064055	0.92858871019336
5	35265	346.570264774248	0.52048722244661
5	35311	347.090751996695	0.55641482739945
5	35372	347.647166824094	1.0160094103297
5	35488	348.663176234424	1.1070602284942
5	35534	349.770236462918	0.21280509828618
5	35550	349.983041561204	3.2691634306417
5	35806	353.252204991846	0.8353923374641
5	35862	354.08759732931	0.52121938256536
5	35908	354.608816711875	1.2021588300731
5	36019	355.810975541948	0.51920042719842
5	36109	356.330175969146	4.0744290736548
5	36536	360.404605042801	1.4340161083664
5	36712	361.838621151167	0.67013162956234
5	36798	362.508752780729	1.905495438292
5	36984	364.414248219021	0.18937345688336
5	37005	364.603621675904	4.2365267602878
5	37461	368.840148436192	1.7680611033621
5	37602	370.608209539554	1.0361652282742
5	37733	371.644374767828	0.65309616600992
5	37794	372.297470933838	0.36298298885661
5	37835	372.660453922695	3.6010483858092
5	38241	376.261502308504	0.19833082455411
5	38252	376.459833133058	1.3249760258891
5	38403	377.784809158947	0.5433364213722
5	38478	378.328145580319	0.68114285599555
5	38530	379.009288436315	2.3520936310776
5	38761	381.361382067393	0.8130812371475
5	38857	382.17446330454	0.39776834803378
5	38898	382.572231652574	0.13380815825639
5	38904	382.70603981083	0.3234765053209
5	38925	383.029516316151	0.81962475537341
5	39010	383.849141071524	0.32485043076844
5	39037	384.173991502292	0.72916190223809
5	39122	384.90315340453	0.10226161146244
5	39134	385.005415015992	0.97964336705255
5	39225	385.985058383045	0.1574083352232
5	39245	386.142466718268	3.4330511550266
5	39582	389.575517873295	0.62081621020222
5	39633	390.196334083497	0.4710414329381
5	39684	390.667375516435	2.3290230097044
5	39930	392.996398526139	0.17048736362507
5	39941	393.166885889764	0.90358657180842
5	40002	394.070472461572	0.2075344214067
5	40028	394.278006882979	0.12690221602521
5	40029	394.404909099004	1.867517939216
5	40215	396.27242703822	0.14218807962119
5	40256	396.414615117841	0.03924578508107
5	40262	396.453860902922	0.22379072626495
5	40273	396.677651629187	0.86883056067086
5	40328	397.546482189858	1.399532987472
5	40470	398.94601517733	0.08324697642448
5	40471	399.029262153754	0.12507273376431
5	40492	399.154334887518	0.0072711705246205
5	40493	399.161606058043	0.86265188235082

