version 2
run Non-monitoring-4-20210208-19:10:40-17748
attr configname Non-monitoring
attr datetime 20210208-19:10:40
attr experiment Non-monitoring
attr inifile aerocom.ini
attr iterationvars ""
attr iterationvarsf ""
attr measurement ""
attr network Aerocom
attr processid 17748
attr repetition 4
attr replication #4
attr resultdir results
attr runnumber 4
attr seedset 4
param **.t 1s
param **.k 15ms
param **.nA 1
param **.nDL 10
param **.s "70 byte"
param **.X 5s
param **.dimPoolMax 10000
param **.dimPoolMin 8000
param **.tDistribution "\"lognormal\""
param **.m 1s
param **.DLMaxCapacity 0
param **.trasmitting false
param **.operationMode 1

vector 0 Aerocom.aircraft[0].packetGenerator arrivalTime:vector ETV
attr "" ""
attr source computeArrivalTime
vector 1 Aerocom.aircraft[0].dataLink[0] serviceTime:vector ETV
attr "" ""
attr source computeServiceTime
vector 2 Aerocom.aircraft[0].dataLink[0] tDistribution:vector ETV
attr "" ""
attr source computeTDistribution
vector 3 Aerocom.aircraft[0].dataLink[1] serviceTime:vector ETV
attr "" ""
attr source computeServiceTime
vector 4 Aerocom.aircraft[0].dataLink[1] tDistribution:vector ETV
attr "" ""
attr source computeTDistribution
vector 5 Aerocom.aircraft[0].dataLink[2] serviceTime:vector ETV
attr "" ""
attr source computeServiceTime
vector 6 Aerocom.aircraft[0].dataLink[2] tDistribution:vector ETV
attr "" ""
attr source computeTDistribution
vector 7 Aerocom.aircraft[0].dataLink[3] serviceTime:vector ETV
attr "" ""
attr source computeServiceTime
vector 8 Aerocom.aircraft[0].dataLink[3] tDistribution:vector ETV
attr "" ""
attr source computeTDistribution
vector 9 Aerocom.aircraft[0].dataLink[4] serviceTime:vector ETV
attr "" ""
attr source computeServiceTime
vector 10 Aerocom.aircraft[0].dataLink[4] tDistribution:vector ETV
attr "" ""
attr source computeTDistribution
vector 11 Aerocom.aircraft[0].dataLink[5] serviceTime:vector ETV
attr "" ""
attr source computeServiceTime
vector 12 Aerocom.aircraft[0].dataLink[5] tDistribution:vector ETV
attr "" ""
attr source computeTDistribution
vector 13 Aerocom.aircraft[0].dataLink[6] serviceTime:vector ETV
attr "" ""
attr source computeServiceTime
vector 14 Aerocom.aircraft[0].dataLink[6] tDistribution:vector ETV
attr "" ""
attr source computeTDistribution
vector 15 Aerocom.aircraft[0].dataLink[7] serviceTime:vector ETV
attr "" ""
attr source computeServiceTime
vector 16 Aerocom.aircraft[0].dataLink[7] tDistribution:vector ETV
attr "" ""
attr source computeTDistribution
vector 17 Aerocom.aircraft[0].dataLink[8] serviceTime:vector ETV
attr "" ""
attr source computeServiceTime
vector 18 Aerocom.aircraft[0].dataLink[8] tDistribution:vector ETV
attr "" ""
attr source computeTDistribution
vector 19 Aerocom.aircraft[0].dataLink[9] serviceTime:vector ETV
attr "" ""
attr source computeServiceTime
vector 20 Aerocom.aircraft[0].dataLink[9] tDistribution:vector ETV
attr "" ""
attr source computeTDistribution
vector 21 Aerocom.aircraft[0].dataLink[1] queueLength:vector ETV
attr "" ""
attr source computeQueueLength
vector 22 Aerocom.aircraft[0].dataLink[1] waitingTime:vector ETV
attr "" ""
attr source computeWaitingTime
vector 23 Aerocom.aircraft[0].dataLink[1] responseTime:vector ETV
attr "" ""
attr source computeResponseTime
0	0	0	0.002511426331
0	12	0.002511426331	0.016905064527
0	17	0.019416490858	0.013974232589
0	22	0.033390723447	0.061700301388
0	27	0.095091024835	0.043296479519
0	32	0.138387504354	0.009853102718
0	37	0.148240607072	0.028732878927
0	42	0.176973485999	0.036548406125
0	47	0.213521892124	3.3926925e-005
0	51	0.213555819049	0.003158525668
0	54	0.216714344717	0.011047899978
0	59	0.227762244695	0.002402071306
0	64	0.230164316001	0.012045690801
0	69	0.242210006802	0.035670521437
0	77	0.277880528239	0.009964822397
0	82	0.287845350636	0.017295634069
0	87	0.305140984705	0.021923944682
0	92	0.327064929387	0.047454715638
0	97	0.374519645025	0.002628105448
0	101	0.377147750473	0.009133494626
0	106	0.386281245099	0.021694516347
0	112	0.407975761446	0.012422176621
0	117	0.420397938067	0.000315440605
0	121	0.420713378672	0.024236774006
0	127	0.444950152678	0.00217903165
0	131	0.447129184328	0.043017375545
0	137	0.490146559873	0.001854106699
0	141	0.492000666572	0.0037916615
0	144	0.495792328072	0.005563728848
0	149	0.50135605692	0.018207305713
0	157	0.519563362633	0.01669611457
0	162	0.536259477203	0.010395560441
0	167	0.546655037644	0.009558019696
0	172	0.55621305734	0.003397124979
0	176	0.559610182319	0.025406019122
0	182	0.585016201441	0.014888045459
0	187	0.5999042469	0.005128627348
0	191	0.605032874248	0.00233750921
0	196	0.607370383458	0.019814678364
0	202	0.627185061822	0.000816075031
0	206	0.628001136853	0.018191286237
0	212	0.64619242309	0.002693504779
0	216	0.648885927869	0.005952847126
0	221	0.654838774995	0.030174115858
0	227	0.685012890853	0.006111575261
0	231	0.691124466114	0.000572206867
0	234	0.691696672981	0.057290343764
0	242	0.748987016745	0.003681635724
0	246	0.752668652469	0.014695732473
0	252	0.767364384942	0.064644078601
0	257	0.832008463543	0.045030337537
0	262	0.87703880108	0.002846396646
0	266	0.879885197726	0.021881405071
0	272	0.901766602797	0.001944863002
0	276	0.903711465799	0.026145332601
0	282	0.9298567984	0.011827159299
0	287	0.941683957699	0.007829317438
0	292	0.949513275137	0.00821557142
0	297	0.957728846557	0.009003281411
0	302	0.966732127968	0.014057279395
0	307	0.980789407363	0.007678183246
0	312	0.988467590609	0.023368805731
0	317	1.01183639634	0.079895056575
0	322	1.091731452915	0.039206319591
0	327	1.130937772506	0.002932272455
0	331	1.133870044961	0.004691424785
0	336	1.138561469746	0.049290028087
0	343	1.187851497833	0.020066175726
0	348	1.207917673559	0.008276080103
0	353	1.216193753662	0.039658499851
0	358	1.255852253513	0.009330516861
0	363	1.265182770374	0.000311803691
0	367	1.265494574065	0.007019441165
0	372	1.27251401523	0.041268702877
0	378	1.313782718107	0.009396580437
0	383	1.323179298544	0.012685765944
0	388	1.335865064488	0.000537023443
0	392	1.336402087931	0.002478805214
0	395	1.338880893145	0.001320549482
0	398	1.340201442627	0.004595894638
0	403	1.344797337265	0.019780696311
0	410	1.364578033576	0.025522177369
0	418	1.390100210945	0.015167264716
0	423	1.405267475661	0.019411827376
0	428	1.424679303037	0.000424569237
0	432	1.425103872274	0.000219071275
0	435	1.425322943549	0.005353768735
0	438	1.430676712284	0.008783226036
0	445	1.43945993832	0.003743323995
0	448	1.443203262315	0.012615164572
0	455	1.455818426887	0.000848872593
0	458	1.45666729948	0.010418126433
0	463	1.467085425913	0.011111321902
0	470	1.478196747815	0.024505155315
0	478	1.50270190313	0.008077312004
0	483	1.510779215134	0.007920116245
0	488	1.518699331379	0.000741300756
0	492	1.519440632135	0.000747128595
0	495	1.52018776073	0.012743664964
0	500	1.532931425694	0.012705839316
0	507	1.54563726501	0.024407663947
0	513	1.570044928957	0.00459965304
0	517	1.574644581997	0.001808833535
0	520	1.576453415532	0.01773940679
0	528	1.594192822322	0.004867622821
0	532	1.599060445143	0.036092318578
0	538	1.635152763721	0.015394852618
0	543	1.650547616339	0.012778386467
0	548	1.663326002806	0.010180894147
0	553	1.673506896953	0.015180883675
0	558	1.688687780628	0.010595190864
0	563	1.699282971492	0.013039954126
0	568	1.712322925618	0.009282852795
0	573	1.721605778413	0.005648390929
0	577	1.727254169342	0.033770264614
0	583	1.761024433956	0.01120890481
0	588	1.772233338766	0.013962604396
0	593	1.786195943162	0.015565837663
0	599	1.801761780825	0.008801348096
0	605	1.810563128921	0.013441568714
0	610	1.824004697635	0.032898902374
0	615	1.856903600009	0.012044012674
0	620	1.868947612683	0.003507390203
0	624	1.872455002886	0.028259661373
0	630	1.900714664259	0.043392616067
0	636	1.944107280326	0.007025859175
0	640	1.951133139501	0.013563670694
0	646	1.964696810195	0.011756408013
0	651	1.976453218208	0.000474698716
0	655	1.976927916924	0.046347715672
0	661	2.023275632596	0.016415902602
0	666	2.039691535198	0.002078517748
0	670	2.041770052946	0.015216224816
0	676	2.056986277762	0.000272092332
0	680	2.057258370094	0.02975817028
0	686	2.087016540374	0.012408311879
0	691	2.099424852253	0.042616280164
0	696	2.142041132417	0.006446666305
0	700	2.148487798722	0.00884876437
0	706	2.157336563092	0.015496954752
0	711	2.172833517844	0.016628013693
0	716	2.189461531537	0.004964818838
0	720	2.194426350375	0.03872074118
0	726	2.233147091555	0.008307467652
0	731	2.241454559207	0.014491019868
0	736	2.255945579075	0.007157247551
0	740	2.263102826626	0.005842084154
0	745	2.26894491078	0.002078456889
0	750	2.271023367669	0.005773389738
0	753	2.276796757407	0.013869638874
0	760	2.290666396281	0.005168161355
0	765	2.295834557636	0.001120927907
0	768	2.296955485543	0.047344651712
0	776	2.344300137255	0.006738187417
0	780	2.351038324672	0.007812087559
0	786	2.358850412231	0.009095958854
0	791	2.367946371085	0.043936762965
0	797	2.41188313405	0.004709853073
0	801	2.416592987123	0.017515947424
0	807	2.434108934547	0.00143477089
0	811	2.435543705437	4.9400715e-005
0	814	2.435593106152	0.017844838309
0	821	2.453437944461	0.034554308752
0	827	2.487992253213	0.017510224661
0	832	2.505502477874	0.037860614539
0	837	2.543363092413	0.00073117806
0	841	2.544094270473	8.8903313e-005
0	844	2.544183173786	0.005754338192
0	847	2.549937511978	0.01544718974
0	856	2.565384701718	0.036950105009
0	862	2.602334806727	0.007297288143
0	867	2.60963209487	0.031221209305
0	872	2.640853304175	0.013585525944
0	877	2.654438830119	0.011185717058
0	882	2.665624547177	0.014155200976
0	887	2.679779748153	0.004041183993
0	891	2.683820932146	0.013730087457
0	897	2.697551019603	0.002121632784
0	901	2.699672652387	0.005615689683
0	906	2.70528834207	0.011879947598
0	911	2.717168289668	0.00108652296
0	914	2.718254812628	0.031037928019
0	922	2.749292740647	0.024196737341
0	927	2.773489477988	0.015671579195
0	932	2.789161057183	0.036360117566
0	937	2.825521174749	0.008451064437
0	942	2.833972239186	0.003247633405
0	946	2.837219872591	0.007897521376
0	951	2.845117393967	0.003547376791
0	956	2.848664770758	0.023146230348
0	962	2.871811001106	0.007108747849
0	966	2.878919748955	0.004577270995
0	971	2.88349701995	0.007733734052
0	976	2.891230754002	0.004938288331
0	981	2.896169042333	0.032465543427
0	987	2.92863458576	0.000349766192
0	991	2.928984351952	0.003387601714
0	994	2.932371953666	0.016742314216
0	1001	2.949114267882	0.008145450667
0	1006	2.957259718549	0.002317928017
0	1011	2.959577646566	0.015660121932
0	1017	2.975237768498	0.001289151038
0	1021	2.976526919536	0.01075062723
0	1026	2.987277546766	0.016681489745
0	1032	3.003959036511	0.006093211707
0	1036	3.010052248218	0.02011195519
0	1042	3.030164203408	0.022608191228
0	1047	3.052772394636	0.013780385936
0	1052	3.066552780572	0.00218293428
0	1056	3.068735714852	0.000817460454
0	1059	3.069553175306	0.003192529966
0	1062	3.072745705272	0.005037675323
0	1067	3.077783380595	0.007727253006
0	1072	3.085510633601	0.020678010682
0	1081	3.106188644283	0.023185997573
0	1087	3.129374641856	0.008040217424
0	1092	3.13741485928	0.004391589055
0	1096	3.141806448335	0.002205900887
0	1099	3.144012349222	0.001739337088
0	1104	3.14575168631	0.010404385424
0	1110	3.156156071734	0.002026771876
0	1113	3.15818284361	0.001190807026
0	1118	3.159373650636	0.013933247317
0	1123	3.173306897953	0.038333272006
0	1133	3.211640169959	0.005139930963
0	1137	3.216780100922	0.002827115066
0	1142	3.219607215988	0.01477373954
0	1148	3.234380955528	0.010671773827
0	1153	3.245052729355	0.016159043054
0	1158	3.261211772409	0.003256439169
0	1162	3.264468211578	0.001051930348
0	1165	3.265520141926	0.011633641321
0	1172	3.277153783247	0.006587878545
0	1177	3.283741661792	0.024176718631
0	1183	3.307918380423	0.006113301139
0	1187	3.314031681562	0.003083761794
0	1192	3.317115443356	0.002931218146
0	1195	3.320046661502	0.0056392626
0	1200	3.325685924102	0.000120533123
0	1203	3.325806457225	0.001283201752
0	1206	3.327089658977	0.000157398998
0	1209	3.327247057975	0.01424398726
0	1216	3.341491045235	0.013649367652
0	1223	3.355140412887	0.006057823317
0	1228	3.361198236204	0.001326543385
0	1231	3.362524779589	0.034986929051
0	1243	3.39751170864	0.005689686704
0	1247	3.403201395344	0.012394391779
0	1253	3.415595787123	0.051922969756
0	1258	3.467518756879	0.008003880542
0	1263	3.475522637421	0.031022487052
0	1268	3.506545124473	0.004264825217
0	1272	3.51080994969	0.036590510245
0	1278	3.547400459935	0.028696026777
0	1283	3.576096486712	0.002793105151
0	1287	3.578889591863	0.012779641591
0	1293	3.591669233454	0.005714687933
0	1297	3.597383921387	0.015447489035
0	1303	3.612831410422	0.004151730141
0	1307	3.616983140563	0.036601173812
0	1313	3.653584314375	0.010128282023
0	1318	3.663712596398	0.013752529222
0	1323	3.67746512562	0.011777075715
0	1328	3.689242201335	0.013478949115
0	1333	3.70272115045	0.007799367664
0	1338	3.710520518114	0.015415988466
0	1343	3.72593650658	0.02034580961
0	1348	3.74628231619	0.009761597878
0	1353	3.756043914068	0.015481122866
0	1358	3.771525036934	0.025278083915
0	1363	3.796803120849	0.016153202914
0	1368	3.812956323763	0.010542820769
0	1373	3.823499144532	0.002424090613
0	1377	3.825923235145	6.334836e-006
0	1380	3.825929569981	0.020590831022
0	1388	3.846520401003	0.000446965577
0	1392	3.84696736658	0.015385206731
0	1398	3.862352573311	0.036904524893
0	1403	3.899257098204	0.005312265537
0	1407	3.904569363741	0.002661297776
0	1412	3.907230661517	0.007069937085
0	1417	3.914300598602	0.00389710817
0	1420	3.918197706772	0.067148833883
0	1428	3.985346540655	0.034734843783
0	1433	4.020081384438	0.006337527245
0	1437	4.026418911683	0.050143770746
0	1443	4.076562682429	0.006311232146
0	1447	4.082873914575	0.017108993774
0	1453	4.099982908349	0.014265307916
0	1458	4.114248216265	0.008315865062
0	1463	4.122564081327	0.014450448532
0	1468	4.137014529859	0.037088305006
0	1474	4.174102834865	0.012814986028
0	1479	4.186917820893	0.014138725472
0	1484	4.201056546365	0.022554525679
0	1489	4.223611072044	0.002802385744
0	1493	4.226413457788	0.044900650195
0	1499	4.271314107983	0.004543957611
0	1503	4.275858065594	0.018209447015
0	1509	4.294067512609	0.001546882529
0	1513	4.295614395138	0.001852964628
0	1516	4.297467359766	0.01113319107
0	1523	4.308600550836	0.004247414279
0	1526	4.312847965115	0.001834599191
0	1529	4.314682564306	0.008143484737
0	1534	4.322826049043	0.034128929645
0	1544	4.356954978688	0.014996371037
0	1549	4.371951349725	0.003809018052
0	1553	4.375760367777	0.001505101314
0	1556	4.377265469091	0.010750510662
0	1563	4.388015979753	0.00742205033
0	1568	4.395438030083	0.005484632152
0	1573	4.400922662235	0.005828402778
0	1576	4.406751065013	0.001381980536
0	1581	4.408133045549	0.053276099189
0	1589	4.461409144738	0.001578603396
0	1593	4.462987748134	0.052195031598
0	1599	4.515182779732	0.000136839936
0	1603	4.515319619668	0.02040460252
0	1609	4.535724222188	0.015730398695
0	1614	4.551454620883	0.010937501285
0	1619	4.562392122168	0.068463669842
0	1624	4.63085579201	0.002695514238
0	1628	4.633551306248	0.000178355504
0	1631	4.633729661752	0.044751592574
0	1639	4.678481254326	0.007222480063
0	1643	4.685703734389	0.038232263551
0	1649	4.72393599794	0.004297280522
0	1653	4.728233278462	0.032128782848
0	1659	4.76036206131	0.003326097281
0	1663	4.763688158591	0.000785807327
0	1666	4.764473965918	0.041154941728
0	1674	4.805628907646	0.022370838157
0	1679	4.827999745803	0.000792784091
0	1683	4.828792529894	0.001678983405
0	1686	4.830471513299	0.021690053955
0	1694	4.852161567254	0.035370812137
0	1699	4.887532379391	0.002608572324
0	1703	4.890140951715	0.013296846815
0	1709	4.90343779853	0.005347939706
0	1713	4.908785738236	0.066455349788
0	1719	4.975241088024	0.006184684389
0	1723	4.981425772413	0.008396597685
0	1729	4.989822370098	0.00653112086
0	1733	4.996353490958	0.014907703578
0	1749	5.011261194536	0.002538176105
0	1753	5.013799370641	0.022460489203
0	1759	5.036259859844	0.054687127046
0	1764	5.09094698689	0.004512877177
0	1768	5.095459864067	0.034970469462
0	1774	5.130430333529	0.015279548131
0	1779	5.14570988166	0.01184068951
0	1784	5.15755057117	0.026299622583
0	1789	5.183850193753	0.002913282612
0	1793	5.186763476365	0.011050382627
0	1798	5.197813858992	0.006840827577
0	1803	5.204654686569	0.008287353246
0	1809	5.212942039815	0.036104128075
0	1814	5.24904616789	0.011357384783
0	1819	5.260403552673	0.005247381267
0	1823	5.26565093394	0.043775493159
0	1829	5.309426427099	0.006752563214
0	1833	5.316178990313	0.10841245013
0	1840	5.424591440443	0.021209287325
0	1845	5.445800727768	0.023379471205
0	1850	5.469180198973	0.003287867468
0	1854	5.472468066441	0.059920929942
0	1860	5.532388996383	0.00827616424
0	1865	5.540665160623	0.002289549657
0	1869	5.54295471028	0.009198741211
0	1874	5.552153451491	0.000399580521
0	1877	5.552553032012	0.001334029668
0	1880	5.55388706168	0.020582485191
0	1889	5.574469546871	0.010204991363
0	1895	5.584674538234	0.014379680309
0	1900	5.599054218543	0.007904520192
0	1905	5.606958738735	0.001567158595
0	1909	5.60852589733	0.006318379269
0	1914	5.614844276599	0.011069114385
0	1919	5.625913390984	0.005863652558
0	1924	5.631777043542	0.010621840672
0	1929	5.642398884214	0.016566624226
0	1935	5.65896550844	0.005046637105
0	1939	5.664012145545	0.027943444367
0	1945	5.691955589912	0.004284033396
0	1949	5.696239623308	0.012948971013
0	1955	5.709188594321	0.002983152961
0	1959	5.712171747282	0.003587114232
0	1962	5.715758861514	0.013149671788
0	1969	5.728908533302	0.013872080482
0	1975	5.742780613784	0.002507095683
0	1979	5.745287709467	0.022412913448
0	1985	5.767700622915	0.018657740429
0	1990	5.786358363344	0.022490057073
0	1995	5.808848420417	0.029358613866
0	2000	5.838207034283	0.022328693952
0	2005	5.860535728235	0.017396533852
0	2010	5.877932262087	0.00323019657
0	2014	5.881162458657	0.004620917012
0	2019	5.885783375669	0.019110626174
0	2025	5.904894001843	0.00758838484
0	2030	5.912482386683	0.029218411866
0	2035	5.941700798549	0.01079286086
0	2040	5.952493659409	0.006042534147
0	2044	5.958536193556	0.006328587705
0	2049	5.964864781261	0.009937225881
0	2055	5.974802007142	0.011831737827
0	2060	5.986633744969	0.019158123884
0	2065	6.005791868853	0.017381012045
0	2070	6.023172880898	0.005173714034
0	2074	6.028346594932	0.005343544861
0	2079	6.033690139793	0.009347559369
0	2084	6.043037699162	0.003637912396
0	2089	6.046675611558	0.022206311583
0	2096	6.068881923141	0.022431526317
0	2101	6.091313449458	0.023863347276
0	2106	6.115176796734	0.000639322229
0	2110	6.115816118963	0.005160770656
0	2113	6.120976889619	0.015555084748
0	2120	6.136531974367	0.021249677878
0	2126	6.157781652245	0.002057809896
0	2130	6.159839462141	0.049713462474
0	2137	6.209552924615	0.005169574636
0	2141	6.214722499251	0.01657958506
0	2147	6.231302084311	0.026217153691
0	2152	6.257519238002	0.002901914333
0	2156	6.260421152335	0.001536345471
0	2159	6.261957497806	0.002936814905
0	2164	6.264894312711	0.034170129784
0	2172	6.299064442495	0.013575909004
0	2177	6.312640351499	0.006278007776
0	2181	6.318918359275	0.002880813409
0	2186	6.321799172684	0.002124927697
0	2189	6.323924100381	0.011807195715
0	2196	6.335731296096	0.009175801463
0	2201	6.344907097559	0.018453229025
0	2207	6.363360326584	0.001323254751
0	2211	6.364683581335	0.021135191919
0	2217	6.385818773254	0.020219182883
0	2222	6.406037956137	0.011992614627
0	2227	6.418030570764	0.006782168528
0	2231	6.424812739292	0.014691726713
0	2237	6.439504466005	0.006087103753
0	2241	6.445591569758	0.006271466702
0	2246	6.45186303646	0.001687869468
0	2249	6.453550905928	0.011790648199
0	2256	6.465341554127	0.003089607332
0	2259	6.468431161459	0.00341765101
0	2264	6.471848812469	0.010986081002
0	2269	6.482834893471	0.027699518915
0	2277	6.510534412386	0.001792268245
0	2281	6.512326680631	0.008052723576
0	2286	6.520379404207	0.009922564731
0	2291	6.530301968938	0.00224387041
0	2296	6.532545839348	0.040211278201
0	2302	6.572757117549	0.014511115259
0	2307	6.587268232808	0.00763379144
0	2312	6.594902024248	0.087955739614
0	2317	6.682857763862	0.00298393624
0	2321	6.685841700102	0.005642322148
0	2326	6.69148402225	0.024559233014
0	2332	6.716043255264	0.012634579569
0	2337	6.728677834833	0.016214626829
0	2342	6.744892461662	0.010930760822
0	2347	6.755823222484	0.014256833316
0	2352	6.7700800558	0.006434859603
0	2356	6.776514915403	0.001983820093
0	2361	6.778498735496	0.007021488426
0	2366	6.785520223922	0.006497360086
0	2371	6.792017584008	0.018309755623
0	2377	6.810327339631	0.009611161974
0	2382	6.819938501605	0.010079833731
0	2387	6.830018335336	0.007131522531
0	2391	6.837149857867	0.006658356427
0	2396	6.843808214294	0.00376395975
0	2401	6.847572174044	0.004717709201
0	2406	6.852289883245	0.003859820575
0	2409	6.85614970382	0.06547671277
0	2417	6.92162641659	0.00231175281
0	2421	6.9239381694	0.001748070805
0	2424	6.925686240205	0.019608095919
0	2432	6.945294336124	0.010680747908
0	2437	6.955975084032	0.001968922772
0	2441	6.957944006804	0.019786849634
0	2447	6.977730856438	0.005780040511
0	2451	6.983510896949	0.002339807537
0	2456	6.985850704486	0.007455310887
0	2461	6.993306015373	0.008521089858
0	2466	7.001827105231	0.000580195972
0	2469	7.002407301203	0.004769841169
0	2474	7.007177142372	0.002526480103
0	2477	7.009703622475	0.020367297837
0	2486	7.030070920312	0.002806677197
0	2489	7.032877597509	0.034522355864
0	2497	7.067399953373	0.022065515001
0	2502	7.089465468374	0.001269896244
0	2506	7.090735364618	0.004100742646
0	2509	7.094836107264	0.019074012656
0	2518	7.11391011992	0.006404028381
0	2522	7.120314148301	0.046902301859
0	2528	7.16721645016	0.016235771925
0	2533	7.183452222085	4.5713149e-005
0	2537	7.183497935234	0.015943784224
0	2543	7.199441719458	0.018610341278
0	2549	7.218052060736	0.00819613855
0	2554	7.226248199286	0.002900545792
0	2558	7.229148745078	0.016930360165
0	2564	7.246079105243	0.011985846093
0	2569	7.258064951336	0.013946160305
0	2574	7.272011111641	0.056439544349
0	2579	7.32845065599	0.014073463924
0	2584	7.342524119914	0.01644520938
0	2589	7.358969329294	0.0006042606
0	2593	7.359573589894	0.002693998561
0	2596	7.362267588455	0.035377169483
0	2604	7.397644757938	0.018029907073
0	2609	7.415674665011	0.032980996913
0	2614	7.448655661924	0.010646204664
0	2619	7.459301866588	0.002952660586
0	2623	7.462254527174	0.024279677474
0	2629	7.486534204648	0.007362980636
0	2634	7.493897185284	0.004233335855
0	2638	7.498130521139	0.035730041997
0	2644	7.533860563136	0.001264852331
0	2648	7.535125415467	0.009025801238
0	2653	7.544151216705	0.008207009071
0	2658	7.552358225776	0.008518696649
0	2663	7.560876922425	0.007126039523
0	2668	7.568002961948	0.018548073801
0	2674	7.586551035749	0.012157136555
0	2679	7.598708172304	0.002631419144
0	2683	7.601339591448	0.006995863017
0	2688	7.608335454465	0.029899158338
0	2694	7.638234612803	0.014513918948
0	2699	7.652748531751	0.00020939348
0	2703	7.652957925231	0.003090061174
0	2706	7.656047986405	0.001154725702
0	2709	7.657202712107	0.003926844377
0	2714	7.661129556484	0.007072048319
0	2719	7.668201604803	0.044816710864
0	2729	7.713018315667	0.00430250701
0	2733	7.717320822677	0.010093810665
0	2738	7.727414633342	0.010780770403
0	2744	7.738195403745	0.016610133573
0	2749	7.754805537318	0.002323168691
0	2753	7.757128706009	0.001524670138
0	2756	7.758653376147	0.015393906974
0	2763	7.774047283121	0.01191048327
0	2769	7.785957766391	0.011618791607
0	2774	7.797576557998	0.030851507184
0	2779	7.828428065182	0.026571781743
0	2784	7.854999846925	0.001694857282
0	2788	7.856694704207	0.004702690635
0	2791	7.861397394842	0.01774774293
0	2799	7.879145137772	0.002814035114
0	2803	7.881959172886	0.005761637799
0	2808	7.887720810685	0.011211920671
0	2813	7.898932731356	0.013187413416
0	2819	7.912120144772	0.004153217438
0	2823	7.91627336221	0.009371212568
0	2828	7.925644574778	0.009137995506
0	2835	7.934782570284	0.037127981508
0	2840	7.971910551792	0.013737111183
0	2845	7.985647662975	0.029357521347
0	2850	8.015005184322	0.027176515196
0	2855	8.042181699518	0.009241186621
0	2860	8.051422886139	0.036512960392
0	2865	8.087935846531	0.005691131573
0	2869	8.093626978104	0.04512529405
0	2875	8.138752272154	0.023022843986
0	2880	8.16177511614	0.013067228554
0	2885	8.174842344694	0.01861520039
0	2890	8.193457545084	0.010844520757
0	2895	8.204302065841	0.009778963354
0	2900	8.214081029195	0.022489675904
0	2905	8.236570705099	0.004613886495
0	2909	8.241184591594	0.016725576701
0	2915	8.257910168295	0.001607284963
0	2919	8.259517453258	0.002683088363
0	2922	8.262200541621	0.013103685684
0	2929	8.275304227305	0.008367667294
0	2934	8.283671894599	0.000323937052
0	2937	8.283995831651	0.002515502474
0	2940	8.286511334125	0.002160574034
0	2945	8.288671908159	0.012544929436
0	2950	8.301216837595	0.027883959607
0	2960	8.329100797202	0.010672817081
0	2965	8.339773614283	0.000228168697
0	2969	8.34000178298	0.009070961096
0	2974	8.349072744076	0.008826900899
0	2979	8.357899644975	0.070676760051
0	2985	8.428576405026	0.006358902589
0	2989	8.434935307615	0.034560775233
0	2995	8.469496082848	0.001942607579
0	2999	8.471438690427	0.002462965921
0	3002	8.473901656348	0.000750051523
0	3005	8.474651707871	0.014034960932
0	3012	8.488686668803	0.012127012751
0	3019	8.500813681554	0.009757187498
0	3024	8.510570869052	0.009299855227
0	3029	8.519870724279	0.026458468642
0	3035	8.546329192921	0.012624941494
0	3040	8.558954134415	0.039766284977
0	3046	8.598720419392	0.029752172801
0	3051	8.628472592193	0.000406976899
0	3055	8.628879569092	0.031874588418
0	3061	8.66075415751	0.033146098677
0	3066	8.693900256187	0.01130024376
0	3071	8.705200499947	0.002692256458
0	3075	8.707892756405	0.017392388431
0	3081	8.725285144836	0.006096359672
0	3085	8.731381504508	0.036550344447
0	3091	8.767931848955	0.007105384233
0	3095	8.775037233188	0.007529884235
0	3101	8.782567117423	0.025579400563
0	3106	8.808146517986	0.027902238007
0	3111	8.836048755993	0.003310693057
0	3115	8.83935944905	0.006455694771
0	3120	8.845815143821	0.002904245459
0	3123	8.84871938928	0.0014848041
0	3126	8.85020419338	0.073265430638
0	3136	8.923469624018	0.003681951343
0	3140	8.927151575361	0.000685928033
0	3143	8.927837503394	0.036172070306
0	3151	8.9640095737	0.005584420684
0	3155	8.969593994384	0.003385018846
0	3160	8.97297901323	0.007954805466
0	3165	8.980933818696	0.024621208362
0	3171	9.005555027058	0.00382847993
0	3175	9.009383506988	0.001842696519
0	3178	9.011226203507	0.004733054194
0	3183	9.015959257701	0.028873560428
0	3191	9.044832818129	0.001701188142
0	3195	9.046534006271	0.017102945436
0	3201	9.063636951707	0.024991764228
0	3206	9.088628715935	0.002112907241
0	3210	9.090741623176	0.004235047596
0	3213	9.094976670772	0.010551440704
0	3220	9.105528111476	0.015070753147
0	3226	9.120598864623	0.002855264301
0	3230	9.123454128924	0.006704573078
0	3235	9.130158702002	0.018131228551
0	3241	9.148289930553	7.3118205e-005
0	3245	9.148363048758	0.035321280835
0	3251	9.183684329593	0.004259751861
0	3255	9.187944081454	0.004033860026
0	3260	9.19197794148	0.026571166613
0	3266	9.218549108093	0.003171191084
0	3270	9.221720299177	0.007944019887
0	3275	9.229664319064	0.005396280391
0	3280	9.235060599455	0.001413252395
0	3283	9.23647385185	0.002912371895
0	3286	9.239386223745	0.05517651354
0	3296	9.294562737285	0.014759894289
0	3301	9.309322631574	0.015848914768
0	3306	9.325171546342	0.036338755288
0	3311	9.36151030163	0.016013490336
0	3316	9.377523791966	0.000138855227
0	3320	9.377662647193	0.039365897623
0	3326	9.417028544816	0.012151245576
0	3331	9.429179790392	0.040551004807
0	3336	9.469730795199	0.000985762102
0	3340	9.470716557301	0.031587593925
0	3346	9.502304151226	0.048823430953
0	3352	9.551127582179	0.004905694896
0	3356	9.556033277075	0.02018331055
0	3362	9.576216587625	0.009835603391
0	3367	9.586052191016	0.007439938921
0	3372	9.593492129937	0.02120935188
0	3377	9.614701481817	0.010060765622
0	3382	9.624762247439	0.01066608058
0	3387	9.635428328019	0.019556882158
0	3392	9.654985210177	0.007056612392
0	3396	9.662041822569	0.021341034073
0	3402	9.683382856642	0.013660284439
0	3407	9.697043141081	0.004509467415
0	3411	9.701552608496	0.015415173393
0	3417	9.716967781889	0.020131128141
0	3422	9.73709891003	0.057616370181
0	3427	9.794715280211	0.016523840232
0	3432	9.811239120443	0.014574601824
0	3437	9.825813722267	0.008413100409
0	3442	9.834226822676	0.007498296067
0	3447	9.841725118743	0.001973517052
0	3451	9.843698635795	0.04096326805
0	3457	9.884661903845	0.005302125181
0	3461	9.889964029026	0.019741494689
0	3467	9.909705523715	0.030797639028
0	3472	9.940503162743	0.00844678154
0	3477	9.948949944283	0.019294595461
0	3482	9.968244539744	0.009229384872
0	3487	9.977473924616	0.019926774285
0	3492	9.997400698901	0.100762074068
0	3497	10.098162772969	0.008362080281
0	3502	10.10652485325	0.049697048007
0	3507	10.156221901257	0.061761612954
0	3512	10.217983514211	9.8114193e-005
0	3516	10.218081628404	0.005209740099
0	3519	10.223291368503	0.028057674202
0	3527	10.251349042705	0.067753610725
0	3532	10.31910265343	0.006752571245
0	3536	10.325855224675	0.004034254552
0	3541	10.329889479227	0.007594702663
0	3546	10.33748418189	0.026059918389
0	3552	10.363544100279	0.005231869586
0	3556	10.368775969865	0.01666642588
0	3562	10.385442395745	0.014309739518
0	3567	10.399752135263	0.016686132512
0	3572	10.416438267775	0.002915345766
0	3576	10.419353613541	0.002543498652
0	3579	10.421897112193	0.003505142104
0	3584	10.425402254297	0.011751431744
0	3589	10.437153686041	0.003655709492
0	3594	10.440809395533	0.001352526646
0	3597	10.442161922179	0.012363428957
0	3604	10.454525351136	0.02410454472
0	3612	10.478629895856	0.001631951638
0	3616	10.480261847494	0.029530630817
0	3622	10.509792478311	0.005594808537
0	3626	10.515387286848	0.005081848373
0	3631	10.520469135221	0.024666774989
0	3637	10.54513591021	0.002412625317
0	3641	10.547548535527	0.009984003591
0	3646	10.557532539118	0.003500961899
0	3651	10.561033501017	0.046763183427
0	3657	10.607796684444	0.001924311647
0	3661	10.609720996091	0.018805694404
0	3667	10.628526690495	0.003566873663
0	3671	10.632093564158	0.001836673197
0	3674	10.633930237355	0.043706292165
0	3682	10.67763652952	0.008909353304
0	3687	10.686545882824	0.013758802564
0	3692	10.700304685388	0.011222589756
0	3697	10.711527275144	0.02179115373
0	3702	10.733318428874	0.033999130504
0	3707	10.767317559378	0.004861361364
0	3711	10.772178920742	0.037933471761
0	3717	10.810112392503	0.004418473129
0	3721	10.814530865632	0.000821336313
0	3724	10.815352201945	0.002599875452
0	3729	10.817952077397	0.036069378273
0	3737	10.85402145567	0.022812898466
0	3742	10.876834354136	0.017522979117
0	3747	10.894357333253	0.002889806979
0	3751	10.897247140232	0.012815268371
0	3757	10.910062408603	0.013358917929
0	3762	10.923421326532	0.037575406279
0	3767	10.960996732811	0.001576963441
0	3771	10.962573696252	0.007788680232
0	3776	10.970362376484	0.005844119981
0	3781	10.976206496465	0.016741746017
0	3787	10.992948242482	0.020117674026
0	3792	11.013065916508	0.026186220282
0	3797	11.03925213679	0.005008182245
0	3801	11.044260319035	0.025392974425
0	3807	11.06965329346	0.028726056895
0	3812	11.098379350355	0.012327073105
0	3817	11.11070642346	0.027021074767
0	3822	11.137727498227	0.012304131551
0	3827	11.150031629778	0.010786162336
0	3832	11.160817792114	0.029280258115
0	3837	11.190098050229	0.049524118289
0	3842	11.239622168518	0.003451288036
0	3846	11.243073456554	0.007955833843
0	3851	11.251029290397	0.018868037914
0	3857	11.269897328311	0.016330300841
0	3862	11.286227629152	0.025381824229
0	3867	11.311609453381	0.02345183136
0	3872	11.335061284741	0.001905173619
0	3876	11.33696645836	0.053868349841
0	3882	11.390834808201	0.028324600642
0	3887	11.419159408843	0.007323253012
0	3892	11.426482661855	0.002006781759
0	3896	11.428489443614	0.005748571756
0	3901	11.43423801537	0.000828162033
0	3904	11.435066177403	0.007072499301
0	3909	11.442138676704	0.009541033403
0	3914	11.451679710107	0.015391225809
0	3921	11.467070935916	0.041892029154
0	3927	11.50896296507	0.025709438558
0	3932	11.534672403628	0.044215082006
0	3937	11.578887485634	0.007934687822
0	3942	11.586822173456	0.013256373188
0	3947	11.600078546644	0.000859578748
0	3951	11.600938125392	0.025160579982
0	3957	11.626098705374	0.019195064449
0	3962	11.645293769823	0.004340343472
0	3966	11.649634113295	0.020702180991
0	3972	11.670336294286	0.015371991635
0	3977	11.685708285921	0.001292931897
0	3981	11.687001217818	0.002718878161
0	3984	11.689720095979	0.050372679265
0	3992	11.740092775244	0.004381832686
0	3996	11.74447460793	0.01798749143
0	4002	11.76246209936	0.040182214585
0	4007	11.802644313945	0.004825410985
0	4011	11.80746972493	0.034143764523
0	4017	11.841613489453	0.00031923551
0	4021	11.841932724963	0.020374721687
0	4027	11.86230744665	0.00378609362
0	4031	11.86609354027	0.009622655039
0	4036	11.875716195309	0.015166170516
0	4042	11.890882365825	0.031872898664
0	4047	11.922755264489	0.034694441693
0	4052	11.957449706182	0.002807577906
0	4056	11.960257284088	0.01404051147
0	4062	11.974297795558	0.010635116314
0	4067	11.984932911872	0.005599621753
0	4071	11.990532533625	0.013713666882
0	4077	12.004246200507	0.002254111468
0	4081	12.006500311975	0.000569328594
0	4084	12.007069640569	0.00434454404
0	4087	12.011414184609	0.025354698913
0	4097	12.036768883522	0.001210595779
0	4101	12.037979479301	0.004960728366
0	4104	12.042940207667	0.003573953681
0	4109	12.046514161348	0.038914346937
0	4117	12.085428508285	0.008414723479
0	4122	12.093843231764	0.040555174966
0	4127	12.13439840673	0.011674394215
0	4132	12.146072800945	0.023254628102
0	4137	12.169327429047	0.011442811261
0	4142	12.180770240308	0.026309180952
0	4147	12.20707942126	0.005048349743
0	4151	12.212127771003	0.005415902805
0	4156	12.217543673808	0.026592190267
0	4162	12.244135864075	0.002589434474
0	4166	12.246725298549	0.007102425026
0	4171	12.253827723575	0.006846238448
0	4176	12.260673962023	0.008793512935
0	4181	12.269467474958	0.007494712213
0	4186	12.276962187171	0.021308497023
0	4192	12.298270684194	0.041194116266
0	4197	12.33946480046	0.008195708471
0	4202	12.347660508931	0.026568794415
0	4207	12.374229303346	0.003162754176
0	4211	12.377392057522	0.027534728724
0	4217	12.404926786246	0.011515866776
0	4222	12.416442653022	0.017732931984
0	4227	12.434175585006	0.000836984009
0	4231	12.435012569015	0.02398620183
0	4237	12.458998770845	0.00346012514
0	4241	12.462458895985	0.009370259766
0	4246	12.471829155751	0.004314599933
0	4251	12.476143755684	0.034525612478
0	4257	12.510669368162	0.053309132953
0	4262	12.563978501115	0.052774559656
0	4267	12.616753060771	0.024288290151
0	4272	12.641041350922	0.007944771783
0	4277	12.648986122705	0.008374627152
0	4282	12.657360749857	0.03540159768
0	4287	12.692762347537	0.002140825193
0	4291	12.69490317273	0.018702275752
0	4297	12.713605448482	0.017180258376
0	4302	12.730785706858	0.015408209421
0	4307	12.746193916279	0.009644002116
0	4312	12.755837918395	0.011192242508
0	4317	12.767030160903	0.007523153159
0	4322	12.774553314062	0.043293536241
0	4327	12.817846850303	0.024049971101
0	4332	12.841896821404	0.006753780942
0	4336	12.848650602346	0.001512435386
0	4341	12.850163037732	0.002260434154
0	4344	12.852423471886	0.023748059688
0	4352	12.876171531574	0.000932668489
0	4356	12.877104200063	0.008757205727
0	4361	12.88586140579	0.024762465413
0	4367	12.910623871203	0.000794608593
0	4371	12.911418479796	0.011577505786
0	4376	12.922995985582	0.024279951615
0	4382	12.947275937197	0.004102795116
0	4386	12.951378732313	0.003165355422
0	4389	12.954544087735	0.006282429592
0	4394	12.960826517327	0.003530501453
0	4399	12.96435701878	0.016079073883
0	4406	12.980436092663	0.003093370272
0	4409	12.983529462935	0.020711352519
0	4417	13.004240815454	0.006343310953
0	4421	13.010584126407	0.001338364277
0	4426	13.011922490684	0.000122239448
0	4429	13.012044730132	0.014602079964
0	4436	13.026646810096	0.002082883837
0	4439	13.028729693933	0.013899252754
0	4446	13.042628946687	0.013606967895
0	4452	13.056235914582	0.023785167896
0	4457	13.080021082478	0.003508454733
0	4461	13.083529537211	0.003809865756
0	4466	13.087339402967	0.006109091985
0	4469	13.093448494952	0.00264302196
0	4474	13.096091516912	0.035811941488
0	4482	13.1319034584	0.020828493958
0	4487	13.152731952358	0.007149139036
0	4491	13.159881091394	0.007362299319
0	4496	13.167243390713	0.030235332566
0	4502	13.197478723279	0.001943756206
0	4506	13.199422479485	0.000282315654
0	4509	13.199704795139	0.008635759429
0	4514	13.208340554568	0.032675936101
0	4522	13.241016490669	0.024009437459
0	4527	13.265025928128	0.006450857271
0	4531	13.271476785399	0.006365725019
0	4536	13.277842510418	0.003380280087
0	4541	13.281222790505	0.003325942718
0	4544	13.284548733223	0.05182966085
0	4552	13.336378394073	0.021762173622
0	4557	13.358140567695	0.006017726342
0	4561	13.364158294037	0.001018841215
0	4564	13.365177135252	0.031362166911
0	4572	13.396539302163	0.00150701816
0	4576	13.398046320323	0.029442861825
0	4582	13.427489182148	0.000418265014
0	4586	13.427907447162	0.00105852045
0	4589	13.428965967612	0.02426871453
0	4597	13.453234682142	0.016214893348
0	4602	13.46944957549	0.006541018566
0	4606	13.475990594056	0.007300104954
0	4611	13.48329069901	0.003465518942
0	4616	13.486756217952	0.007202489583
0	4621	13.493958707535	3.8362015e-005
0	4624	13.49399706955	0.008920877843
0	4629	13.502917947393	0.004676820148
0	4634	13.507594767541	0.006823693056
0	4639	13.514418460597	0.002303768829
0	4642	13.516722229426	0.014427408353
0	4649	13.531149637779	0.031142200806
0	4657	13.562291838585	0.006736926069
0	4661	13.569028764654	0.001778134352
0	4666	13.570806899006	0.019191954695
0	4672	13.589998853701	0.021737153395
0	4677	13.611736007096	0.00554780023
0	4681	13.617283807326	0.010913028054
0	4687	13.62819683538	0.00770094213
0	4692	13.63589777751	0.000601864573
0	4696	13.636499642083	0.002011244305
0	4699	13.638510886388	0.003331364248
0	4702	13.641842250636	0.027490439283
0	4712	13.669332689919	0.006300149709
0	4716	13.675632839628	0.019849744221
0	4722	13.695482583849	0.006805293371
0	4726	13.70228787722	0.005105187669
0	4731	13.707393064889	0.005287494146
0	4736	13.712680559035	0.010879064205
0	4741	13.72355962324	0.015411221223
0	4747	13.738970844463	0.017478395027
0	4753	13.75644923949	0.001297276243
0	4757	13.757746515733	0.009757954071
0	4762	13.767504469804	0.011619258991
0	4768	13.779123728795	0.023653207599
0	4773	13.802776936394	0.005558177208
0	4777	13.808335113602	0.016675895149
0	4783	13.825011008751	0.016704603765
0	4788	13.841715612516	0.045546092778
0	4793	13.887261705294	0.004966252339
0	4797	13.892227957633	0.005620034075
0	4802	13.897847991708	0.017059744211
0	4808	13.914907735919	0.02316829155
0	4813	13.938076027469	0.031797321616
0	4818	13.969873349085	0.018339188009
0	4824	13.988212537094	0.004459019118
0	4828	13.992671556212	0.001521036412
0	4831	13.994192592624	0.020531165268
0	4839	14.014723757892	0.001361499735
0	4843	14.016085257627	0.002210473121
0	4846	14.018295730748	0.014788129614
0	4853	14.033083860362	0.011108359778
0	4859	14.04419222014	0.003331738015
0	4863	14.047523958155	0.038862324178
0	4869	14.086386282333	0.012171217293
0	4874	14.098557499626	0.005179600286
0	4878	14.103737099912	0.047689676057
0	4884	14.151426775969	0.020845770664
0	4889	14.172272546633	0.021368782561
0	4894	14.193641329194	0.007824644933
0	4899	14.201465974127	0.008395361319
0	4904	14.209861335446	0.02735497219
0	4909	14.237216307636	0.017461633443
0	4914	14.254677941079	0.020553416721
0	4919	14.2752313578	0.009957514216
0	4924	14.285188872016	0.000407412421
0	4928	14.285596284437	0.025963075164
0	4934	14.311559359601	0.033681666608
0	4939	14.345241026209	0.006212290683
0	4943	14.351453316892	0.002768920819
0	4948	14.354222237711	0.01467351043
0	4954	14.368895748141	0.031833246155
0	4959	14.400728994296	0.002088694855
0	4963	14.402817689151	0.007554092434
0	4968	14.410371781585	0.002142785064
0	4971	14.412514566649	0.000807409295
0	4974	14.413321975944	0.056502544363
0	4984	14.469824520307	0.032131222936
0	4989	14.501955743243	0.012057474926
0	4994	14.514013218169	0.015021742576
0	4999	14.529034960745	0.009188376997
0	5004	14.538223337742	0.005132987247
0	5008	14.543356324989	0.014094125535
0	5014	14.557450450524	0.03031550911
0	5020	14.587765959634	0.000845993359
0	5024	14.588611952993	0.005991546322
0	5027	14.594603499315	0.050680310659
0	5035	14.645283809974	0.012113870914
0	5040	14.657397680888	0.017461112683
0	5045	14.674858793571	0.013814787601
0	5050	14.688673581172	0.019095540058
0	5055	14.70776912123	0.009537249904
0	5060	14.717306371134	0.004361130339
0	5064	14.721667501473	0.023517559335
0	5070	14.745185060808	0.013441575731
0	5075	14.758626636539	0.011686388855
0	5080	14.770313025394	0.024020659735
0	5085	14.794333685129	0.016285586066
0	5090	14.810619271195	0.024495266141
0	5095	14.835114537336	0.001228855762
0	5099	14.836343393098	0.021198794955
0	5105	14.857542188053	0.035232204381
0	5110	14.892774392434	0.001382641265
0	5114	14.894157033699	0.001265095481
0	5117	14.89542212918	0.005249154302
0	5122	14.900671283482	0.017555207727
0	5129	14.918226491209	0.041665364996
0	5135	14.959891856205	0.01442448621
0	5140	14.974316342415	0.009540186354
0	5145	14.983856528769	0.004448222296
0	5149	14.988304751065	0.019455961438
0	5155	15.007760712503	0.12393418469
0	5160	15.131694897193	0.008124348029
0	5165	15.139819245222	0.029415509846
0	5170	15.169234755068	0.00415482461
0	5174	15.173389579678	0.009687138188
0	5179	15.183076717866	0.020770547152
0	5185	15.203847265018	0.099823589775
0	5190	15.303670854793	0.006910803127
0	5194	15.31058165792	0.007748059821
0	5200	15.318329717741	0.003686599933
0	5204	15.322016317674	0.008562091953
0	5209	15.330578409627	0.004112128658
0	5214	15.334690538285	0.017492773608
0	5220	15.352183311893	0.004578079355
0	5224	15.356761391248	0.004600764787
0	5229	15.361362156035	0.009882191655
0	5234	15.37124434769	0.008727462211
0	5239	15.379971809901	0.013020065751
0	5245	15.392991875652	0.016712983918
0	5251	15.40970485957	0.036414673919
0	5256	15.446119533489	0.008860094464
0	5261	15.454979627953	0.000664383797
0	5265	15.45564401175	0.001517722891
0	5268	15.457161734641	0.008431885775
0	5273	15.465593620416	0.044762576035
0	5281	15.510356196451	0.005499519563
0	5285	15.515855716014	0.01426710877
0	5291	15.530122824784	0.002318435766
0	5295	15.53244126055	0.002266156344
0	5298	15.534707416894	0.033508097162
0	5306	15.568215514056	0.012185066853
0	5311	15.580400580909	0.017666622128
0	5316	15.598067203037	0.001156889847
0	5320	15.599224092884	0.010625604929
0	5325	15.609849697813	0.008939881367
0	5330	15.61878957918	0.00730914342
0	5335	15.6260987226	0.027041034227
0	5341	15.653139756827	0.001107073862
0	5345	15.654246830689	0.015605027197
0	5351	15.669851857886	0.006688418799
0	5355	15.676540276685	0.007606030457
0	5360	15.684146307142	0.002673339503
0	5365	15.686819646645	0.015511833124
0	5371	15.702331479769	0.002925576036
0	5375	15.705257055805	0.039360317807
0	5381	15.744617373612	0.002058947796
0	5385	15.746676321408	0.003858079492
0	5388	15.7505344009	0.052094101348
0	5396	15.802628502248	0.034100508889
0	5401	15.836729011137	0.016289310326
0	5406	15.853018321463	0.00441566363
0	5410	15.857433985093	0.019380525451
0	5416	15.876814510544	0.014586411014
0	5421	15.891400921558	0.009804687998
0	5426	15.901205609556	0.002400479538
0	5430	15.903606089094	0.007265602033
0	5435	15.910871691127	0.010211659226
0	5440	15.921083350353	0.005112343117
0	5445	15.92619569347	0.044281808145
0	5451	15.970477501615	0.003259683949
0	5455	15.973737185564	0.008987338261
0	5460	15.982724523825	0.040333568308
0	5466	16.023058092133	0.019553396847
0	5471	16.04261148898	0.027388298839
0	5476	16.069999787819	0.009741670665
0	5481	16.079741458484	0.002553226671
0	5485	16.082294685155	0.000876365037
0	5488	16.083171050192	0.011160606306
0	5493	16.094331656498	0.009820620452
0	5500	16.10415227695	0.014051975822
0	5506	16.118204252772	0.004599966429
0	5510	16.122804219201	0.01936032623
0	5516	16.142164545431	0.053461465428
0	5521	16.195626010859	0.009008984839
0	5526	16.204634995698	0.02324893862
0	5531	16.227883934318	0.002464819112
0	5535	16.23034875343	0.032344401583
0	5541	16.262693155013	0.006711786923
0	5545	16.269404941936	0.012969393056
0	5551	16.282374334992	0.041607670146
0	5556	16.323982005138	0.057965850573
0	5561	16.381947855711	0.000368947513
0	5565	16.382316803224	0.034097585056
0	5571	16.41641438828	0.005325882007
0	5575	16.421740270287	0.009297977823
0	5580	16.43103824811	0.017844091076
0	5586	16.448882339186	0.013560387543
0	5591	16.462442726729	0.019459771066
0	5596	16.481902497795	0.005275382711
0	5600	16.487177880506	0.008838879906
0	5605	16.496016760412	0.008157566191
0	5611	16.504174326603	0.005186814258
0	5615	16.509361140861	0.000724666089
0	5618	16.51008580695	0.010177227215
0	5625	16.520263034165	0.019414749653
0	5631	16.539677783818	0.054752804736
0	5636	16.594430588554	0.006306003711
0	5640	16.600736592265	0.006611777293
0	5645	16.607348369558	0.008671527155
0	5650	16.616019896713	0.023536991943
0	5656	16.639556888656	0.00760786533
0	5661	16.647164753986	0.002226508206
0	5665	16.649391262192	0.029756336643
0	5671	16.679147598835	0.016567033288
0	5676	16.695714632123	0.004877941192
0	5680	16.700592573315	0.015252699118
0	5686	16.715845272433	0.014177769343
0	5691	16.730023041776	0.006843251024
0	5695	16.7368662928	0.003710239534
0	5700	16.740576532334	0.023842368754
0	5706	16.764418901088	0.005488214205
0	5710	16.769907115293	0.007523682387
0	5715	16.77743079768	0.019886921715
0	5721	16.797317719395	0.022774684354
0	5726	16.820092403749	0.011130528417
0	5731	16.831222932166	0.003800693197
0	5735	16.835023625363	0.008144951679
0	5740	16.843168577042	0.015257747292
0	5746	16.858426324334	0.004587767957
0	5750	16.863014092291	0.036249388116
0	5757	16.899263480407	0.000489700074
0	5761	16.899753180481	0.020397361208
0	5767	16.920150541689	0.026080533949
0	5772	16.946231075638	0.001440429323
0	5776	16.947671504961	0.01742323861
0	5782	16.965094743571	0.029872933802
0	5787	16.994967677373	0.021726914415
0	5792	17.016694591788	0.001007333084
0	5796	17.017701924872	0.01443413809
0	5802	17.032136062962	0.002032433133
0	5806	17.034168496095	0.000877278855
0	5809	17.03504577495	0.009577289147
0	5814	17.044623064097	0.016944914687
0	5822	17.061567978784	0.002286912185
0	5826	17.063854890969	0.002451268297
0	5829	17.066306159266	0.018692304447
0	5837	17.084998463713	0.050300538397
0	5842	17.13529900211	0.009846433289
0	5847	17.145145435399	0.045654452054
0	5852	17.190799887453	0.002715919682
0	5856	17.193515807135	0.049610753852
0	5862	17.243126560987	0.001404142544
0	5866	17.244530703531	0.008548933112
0	5871	17.253079636643	0.000709533348
0	5874	17.253789169991	0.015514197514
0	5881	17.269303367505	0.017705294986
0	5887	17.287008662491	0.001227129328
0	5891	17.288235791819	0.003298169103
0	5894	17.291533960922	0.032737099713
0	5902	17.324271060635	0.06130270306
0	5907	17.385573763695	0.019452229205
0	5912	17.4050259929	0.015694220136
0	5917	17.420720213036	0.005824077265
0	5921	17.426544290301	0.020467996049
0	5927	17.44701228635	0.010617463166
0	5933	17.457629749516	0.004826915595
0	5937	17.462456665111	0.014897959569
0	5943	17.47735462468	0.000691280582
0	5947	17.478045905262	0.067688882656
0	5953	17.545734787918	0.020355479078
0	5958	17.566090266996	0.004787407744
0	5962	17.57087767474	0.035191217331
0	5968	17.606068892071	0.000860918968
0	5972	17.606929811039	0.004551825536
0	5975	17.611481636575	0.001489521434
0	5978	17.612971158009	0.007804135501
0	5985	17.62077529351	0.010182627221
0	5990	17.630957920731	0.005796789052
0	5995	17.636754709783	0.032459807782
0	6003	17.669214517565	0.003513635976
0	6007	17.672728153541	0.000771233416
0	6010	17.673499386957	0.005326139526
0	6015	17.678825526483	0.010343000179
0	6020	17.689168526662	0.000415210501
0	6023	17.689583737163	0.008152062695
0	6028	17.697735799858	0.002511047088
0	6033	17.700246846946	0.017190160839
0	6040	17.717437007785	0.026542552734
0	6048	17.743979560519	0.014514882264
0	6053	17.758494442783	0.005832505356
0	6057	17.764326948139	0.013804063461
0	6063	17.7781310116	0.004563598345
0	6067	17.782694609945	0.01070373273
0	6073	17.793398342675	0.016948817996
0	6078	17.810347160671	0.011108012651
0	6083	17.821455173322	0.073748168907
0	6088	17.895203342229	0.001512146265
0	6092	17.896715488494	0.031710661134
0	6098	17.928426149628	0.009402944295
0	6103	17.937829093923	0.012700464667
0	6108	17.95052955859	0.004682945471
0	6112	17.955212504061	0.022468635582
0	6118	17.977681139643	0.007331146262
0	6122	17.985012285905	0.020047028653
0	6128	18.005059314558	0.012892383006
0	6133	18.017951697564	0.006230516981
0	6137	18.024182214545	0.023014405057
0	6143	18.047196619602	0.011637453267
0	6148	18.058834072869	0.017713189557
0	6153	18.076547262426	0.012194099116
0	6158	18.088741361542	0.004180460749
0	6162	18.092921822291	0.006831527523
0	6167	18.099753349814	0.030310378128
0	6173	18.130063727942	0.038726625478
0	6178	18.16879035342	0.011952858484
0	6183	18.180743211904	0.007546364807
0	6188	18.188289576711	0.002616416563
0	6192	18.190905993274	0.009414898931
0	6197	18.200320892205	0.015174295039
0	6203	18.215495187244	0.021282310508
0	6208	18.236777497752	0.031800215893
0	6213	18.268577713645	0.009690512876
0	6218	18.278268226521	0.013262958757
0	6223	18.291531185278	0.007756008327
0	6228	18.299287193605	0.027831465529
0	6233	18.327118659134	0.000314870585
0	6237	18.327433529719	0.028819757347
0	6243	18.356253287066	0.011299473956
0	6248	18.367552761022	0.029588741549
0	6253	18.397141502571	0.024766912675
0	6259	18.421908415246	0.006629768284
0	6263	18.42853818353	0.007612871894
0	6268	18.436151055424	0.003519672237
0	6273	18.439670727661	0.006590241066
0	6278	18.446260968727	0.061448532853
0	6284	18.50770950158	0.018778282508
0	6289	18.526487784088	0.016715763857
0	6294	18.543203547945	0.00351113342
0	6298	18.546714681365	0.036104340554
0	6304	18.582819021919	0.006826602352
0	6308	18.589645624271	0.012180952412
0	6314	18.601826576683	0.004129230233
0	6318	18.605955806916	0.004628003413
0	6323	18.610583810329	0.003139903657
0	6326	18.613723713986	0.001738916801
0	6329	18.615462630787	0.013913772764
0	6336	18.629376403551	0.009067955021
0	6341	18.638444358572	0.025807252368
0	6349	18.66425161094	0.014204085504
0	6354	18.678455696444	0.006661342309
0	6358	18.685117038753	0.017747778538
0	6364	18.702864817291	0.006502593389
0	6368	18.70936741068	0.057667173188
0	6375	18.767034583868	0.003545892156
0	6379	18.770580476024	0.008221407341
0	6384	18.778801883365	0.004931368682
0	6389	18.783733252047	0.036841839352
0	6395	18.820575091399	0.023797154642
0	6400	18.844372246041	0.011061461789
0	6405	18.85543370783	0.014948726791
0	6410	18.870382434621	0.017136121142
0	6415	18.887518555763	0.032788412353
0	6420	18.920306968116	0.028324084864
0	6425	18.94863105298	0.036172626527
0	6430	18.984803679507	0.0106452625
0	6435	18.995448942007	0.001262492516
0	6439	18.996711434523	0.02622329246
0	6445	19.022934726983	0.02880958161
0	6450	19.051744308593	0.003643933367
0	6454	19.05538824196	0.039870090625
0	6460	19.095258332585	0.01834126878
0	6465	19.113599601365	0.048667872089
0	6470	19.162267473454	0.006063609222
0	6474	19.168331082676	0.000775979187
0	6477	19.169107061863	0.02435484502
0	6485	19.193461906883	0.044078046087
0	6490	19.23753995297	0.006424343611
0	6494	19.243964296581	0.002393050358
0	6499	19.246357346939	0.017970307401
0	6505	19.26432765434	0.04396577838
0	6510	19.30829343272	0.026229999611
0	6515	19.334523432331	0.022754164425
0	6520	19.357277596756	0.027663670261
0	6525	19.384941267017	0.001045527066
0	6529	19.385986794083	0.004277131693
0	6532	19.390263925776	0.00347732386
0	6537	19.393741249636	0.080893870358
0	6545	19.474635119994	0.000349542744
0	6549	19.474984662738	6.4284222e-005
0	6552	19.47504894696	0.011459737272
0	6557	19.486508684232	0.007836706094
0	6562	19.494345390326	0.003383278602
0	6567	19.497728668928	0.006006776984
0	6570	19.503735445912	0.016338441457
0	6579	19.520073887369	0.046282619054
0	6585	19.566356506423	0.00373437963
0	6589	19.570090886053	0.012503932437
0	6595	19.58259481849	0.010088780514
0	6600	19.592683599004	0.020436365205
0	6606	19.613119964209	0.003300843951
0	6610	19.61642080816	0.003084996513
0	6613	19.619505804673	0.010383366633
0	6620	19.629889171306	0.000404634859
0	6623	19.630293806165	0.026134812933
0	6631	19.656428619098	0.002084666366
0	6635	19.658513285464	0.041716499985
0	6641	19.700229785449	0.006305173893
0	6645	19.706534959342	0.015687453067
0	6651	19.722222412409	0.019503182234
0	6656	19.741725594643	0.007751638208
0	6661	19.749477232851	0.009317735548
0	6666	19.758794968399	0.017547369034
0	6671	19.776342337433	0.018113680527
0	6676	19.79445601796	0.006277281693
0	6680	19.800733299653	0.013027105285
0	6686	19.813760404938	0.020203046993
0	6691	19.833963451931	0.006254378473
0	6695	19.840217830404	0.010334561968
0	6701	19.850552392372	0.01001894803
0	6706	19.860571340402	0.014535076977
0	6711	19.875106417379	0.010305748971
0	6716	19.88541216635	0.012840362847
0	6721	19.898252529197	0.002799622635
0	6725	19.901052151832	0.009656748745
0	6730	19.910708900577	0.010643798791
0	6736	19.921352699368	0.004554536231
0	6740	19.925907235599	0.038624670788
0	6746	19.964531906387	0.005108998269
0	6750	19.969640904656	0.014351031857
0	6756	19.983991936513	0.010840713765
0	6761	19.994832650278	0.026617719408
0	6766	20.021450369686	0.003591585273
0	6770	20.025041954959	0.045401580967
0	6776	20.070443535926	0.016130151055
0	6781	20.086573686981	7.0639499e-005
0	6785	20.08664432648	0.003465369606
0	6788	20.090109696086	0.016223070043
0	6795	20.106332766129	0.018555999278
0	6801	20.124888765407	0.00727480408
0	6805	20.132163569487	0.011045829311
0	6811	20.143209398798	0.035137548471
0	6816	20.178346947269	0.027027902246
0	6821	20.205374849515	0.014070068242
0	6826	20.219444917757	0.064883728938
0	6831	20.284328646695	0.006815481742
0	6836	20.291144128437	0.002363328932
0	6841	20.293507457369	0.000768481115
0	6844	20.294275938484	0.019447684592
0	6851	20.313723623076	0.018954182351
0	6857	20.332677805427	0.009141582665
0	6862	20.341819388092	0.044608501165
0	6867	20.386427889257	0.007362126227
0	6871	20.393790015484	0.007663590256
0	6877	20.40145360574	0.004021553866
0	6881	20.405475159606	0.004972414015
0	6886	20.410447573621	0.001171829581
0	6889	20.411619403202	0.001177203983
0	6892	20.412796607185	0.017345293528
0	6899	20.430141900713	0.020668646337
0	6907	20.45081054705	0.008277065275
0	6912	20.459087612325	0.001907265568
0	6916	20.460994877893	0.017429357994
0	6922	20.478424235887	0.012128660255
0	6927	20.490552896142	0.041249904679
0	6932	20.531802800821	0.011667519887
0	6937	20.543470320708	0.000683427044
0	6941	20.544153747752	0.004787686909
0	6944	20.548941434661	0.055069994141
0	6952	20.604011428802	0.030299458698
0	6957	20.6343108875	0.003815852487
0	6961	20.638126739987	0.008734015552
0	6966	20.646860755539	0.00576717944
0	6971	20.652627934979	0.009233743464
0	6976	20.661861678443	0.016167997617
0	6982	20.67802967606	0.025302153143
0	6987	20.703331829203	0.001970869383
0	6991	20.705302698586	0.024595140471
0	6997	20.729897839057	0.017013007233
0	7002	20.74691084629	0.007922569048
0	7007	20.754833415338	0.032047119534
0	7012	20.786880534872	0.00463870226
0	7016	20.791519237132	0.007840641116
0	7021	20.799359878248	0.020017146983
0	7027	20.819377025231	0.000635961564
0	7031	20.820012986795	0.011302602934
0	7036	20.831315589729	0.0230052728
0	7042	20.854320862529	0.018242820557
0	7047	20.872563683086	0.029590853059
0	7052	20.902154536145	0.049956342419
0	7057	20.952110878564	0.004982041183
0	7061	20.957092919747	0.021365633108
0	7067	20.978458552855	0.003508026321
0	7071	20.981966579176	0.003020574439
0	7074	20.984987153615	0.007683098354
0	7079	20.992670251969	0.00928223738
0	7086	21.001952489349	0.009334025213
0	7091	21.011286514562	0.03113317494
0	7097	21.042419689502	0.009713307609
0	7102	21.052132997111	0.004462654384
0	7106	21.056595651495	0.040392074371
0	7112	21.096987725866	0.022803442727
0	7117	21.119791168593	0.011093471287
0	7122	21.13088463988	0.012780055931
0	7127	21.143664695811	0.064246553808
0	7132	21.207911249619	0.004974144031
0	7136	21.21288539365	0.012546946598
0	7142	21.225432340248	0.01908793935
0	7147	21.244520279598	0.006597919016
0	7151	21.251118198614	0.001377738255
0	7156	21.252495936869	0.013065120377
0	7161	21.265561057246	0.004437240044
0	7166	21.26999829729	0.010821101564
0	7171	21.280819398854	0.003918953566
0	7176	21.28473835242	0.015304263046
0	7182	21.300042615466	0.003919257867
0	7186	21.303961873333	0.023552977379
0	7192	21.327514850712	0.00479943774
0	7196	21.332314288452	0.036514819714
0	7202	21.368829108166	0.004879423768
0	7206	21.373708531934	0.020965795032
0	7212	21.394674326966	0.049803975537
0	7217	21.444478302503	0.006112119948
0	7221	21.450590422451	0.006663252244
0	7226	21.457253674695	0.033814279495
0	7233	21.49106795419	0.019872096743
0	7238	21.510940050933	0.021507032815
0	7243	21.532447083748	0.009301935988
0	7248	21.541749019736	0.039720687535
0	7253	21.581469707271	0.010199137995
0	7258	21.591668845266	0.006680598862
0	7262	21.598349444128	0.02656657385
0	7268	21.624916017978	0.009229620695
0	7273	21.634145638673	0.002184181287
0	7277	21.63632981996	0.045093446597
0	7283	21.681423266557	0.010976565288
0	7288	21.692399831845	0.003067077687
0	7292	21.695466909532	0.000596463116
0	7295	21.696063372648	0.058299204431
0	7303	21.754362577079	0.00438726843
0	7307	21.758749845509	0.060162649118
0	7313	21.818912494627	0.004108861766
0	7317	21.823021356393	0.00947006772
0	7322	21.832491424113	0.006889023457
0	7327	21.83938044757	0.002905082419
0	7332	21.842285529989	0.006011765793
0	7335	21.848297295782	0.003361573243
0	7340	21.851658869025	0.005674469366
0	7345	21.857333338391	0.011880520071
0	7350	21.869213858462	0.091203103138
0	7359	21.9604169616	0.026343941138
0	7364	21.986760902738	0.007036884183
0	7368	21.993797786921	0.016901284358
0	7374	22.010699071279	0.011128007461
0	7379	22.02182707874	0.008940362091
0	7384	22.030767440831	0.038648092405
0	7389	22.069415533236	0.00816991012
0	7395	22.077585443356	0.009539889603
0	7400	22.087125332959	0.006410515354
0	7404	22.093535848313	0.002413767413
0	7409	22.095949615726	0.003875802533
0	7412	22.099825418259	0.001137771668
0	7415	22.100963189927	0.058632115335
0	7427	22.159595305262	0.002750222407
0	7431	22.162345527669	0.017202824115
0	7437	22.179548351784	0.020408625944
0	7442	22.199956977728	0.006750796499
0	7446	22.206707774227	0.057635448852
0	7452	22.264343223079	0.002530549813
0	7456	22.266873772892	0.013127863375
0	7462	22.280001636267	0.022804206048
0	7467	22.302805842315	0.028846166958
0	7472	22.331652009273	0.012045771517
0	7477	22.34369778079	0.025857175978
0	7482	22.369554956768	0.00281293713
0	7486	22.372367893898	0.042618840861
0	7492	22.414986734759	0.015047280736
0	7497	22.430034015495	0.020082413416
0	7502	22.450116428911	0.003095369041
0	7506	22.453211797952	0.007912434933
0	7511	22.461124232885	0.034942639673
0	7517	22.496066872558	0.00552215903
0	7521	22.501589031588	0.000753369463
0	7524	22.502342401051	0.011246011804
0	7531	22.513588412855	0.015084980216
0	7537	22.528673393071	0.005867685976
0	7541	22.534541079047	0.00728942441
0	7546	22.541830503457	0.043451723786
0	7552	22.585282227243	0.000399384736
0	7556	22.585681611979	0.001367514109
0	7559	22.587049126088	0.010522354483
0	7564	22.597571480571	0.00328587795
0	7569	22.600857358521	0.020513280064
0	7576	22.621370638585	0.007743809527
0	7581	22.629114448112	0.014671104786
0	7587	22.643785552898	0.011964120971
0	7592	22.655749673869	0.001086668065
0	7596	22.656836341934	0.013176702721
0	7601	22.670013044655	0.001000260887
0	7606	22.671013305542	0.027589325569
0	7612	22.698602631111	0.008681344074
0	7617	22.707283975185	0.005346899959
0	7621	22.712630875144	0.000439156028
0	7624	22.713070031172	0.024511512097
0	7632	22.737581543269	0.013867822888
0	7637	22.751449366157	0.005507983938
0	7641	22.756957350095	0.013255027446
0	7647	22.770212377541	0.005254602788
0	7651	22.775466980329	0.030241131446
0	7657	22.805708111775	0.02775802222
0	7662	22.833466133995	0.014218242822
0	7667	22.847684376817	0.002252636433
0	7671	22.84993701325	0.028351956554
0	7677	22.878288969804	0.041074837475
0	7682	22.919363807279	0.007030722464
0	7686	22.926394529743	0.017409826962
0	7693	22.943804356705	0.002086787819
0	7697	22.945891144524	0.005285855937
0	7700	22.951177000461	0.002633204326
0	7705	22.953810204787	0.017417521466
0	7712	22.971227726253	0.052641670449
0	7718	23.023869396702	0.027877264907
0	7723	23.051746661609	0.008190326407
0	7728	23.059936988016	0.017688680487
0	7733	23.077625668503	0.011914267464
0	7738	23.089539935967	0.026365285233
0	7744	23.1159052212	0.077150034344
0	7750	23.193055255544	0.009429302013
0	7755	23.202484557557	0.065109376222
0	7760	23.267593933779	0.007590221454
0	7765	23.275184155233	0.006972419879
0	7769	23.282156575112	0.01651704608
0	7775	23.298673621192	0.085139902999
0	7780	23.383813524191	0.054097288351
0	7785	23.437910812542	0.004935540448
0	7789	23.44284635299	0.028033093055
0	7795	23.470879446045	0.000704516797
0	7799	23.471583962842	0.003389628496
0	7802	23.474973591338	0.043355985006
0	7810	23.518329576344	0.010371227203
0	7815	23.528700803547	0.011973012554
0	7820	23.540673816101	0.036053640411
0	7825	23.576727456512	0.019790023219
0	7830	23.596517479731	0.109226061846
0	7836	23.705743541577	0.039222286029
0	7841	23.744965827606	0.00132651588
0	7845	23.746292343486	0.019146589451
0	7851	23.765438932937	0.004803606708
0	7855	23.770242539645	0.017224606855
0	7861	23.7874671465	0.019387953264
0	7866	23.806855099764	0.004376387204
0	7870	23.811231486968	0.000107995199
0	7873	23.811339482167	0.026720195696
0	7881	23.838059677863	0.018829525878
0	7886	23.856889203741	0.023536367919
0	7891	23.88042557166	0.000475474637
0	7895	23.880901046297	0.00943272668
0	7900	23.890333772977	0.00274553869
0	7903	23.893079311667	0.004860703423
0	7908	23.89794001509	0.018673777276
0	7915	23.916613792366	0.035920322237
0	7921	23.952534114603	0.042857704474
0	7926	23.995391819077	0.043776106885
0	7931	24.039167925962	0.000510048048
0	7935	24.03967797401	0.011627778006
0	7940	24.051305752016	0.000860683613
0	7943	24.052166435629	0.005670194956
0	7948	24.057836630585	0.012791091457
0	7955	24.070627722042	0.034534284144
0	7961	24.105162006186	0.012234345262
0	7966	24.117396351448	0.00367996928
0	7970	24.121076320728	0.032932849551
0	7976	24.154009170279	0.013714710397
0	7981	24.167723880676	0.030987122963
0	7986	24.198711003639	0.015627460121
0	7991	24.21433846376	0.019682528743
0	7996	24.234020992503	0.016174640718
0	8001	24.250195633221	0.017042050134
0	8006	24.267237683355	0.009331211712
0	8011	24.276568895067	0.025283400109
0	8016	24.301852295176	0.077237323199
0	8021	24.379089618375	0.028211825432
0	8026	24.407301443807	0.018509657213
0	8031	24.42581110102	0.021080584416
0	8036	24.446891685436	0.003023245787
0	8040	24.449914931223	0.003437863487
0	8043	24.45335279471	0.049570677553
0	8051	24.502923472263	0.012614426498
0	8056	24.515537898761	0.015542446897
0	8061	24.531080345658	0.006698158466
0	8065	24.537778504124	0.02186861114
0	8071	24.559647115264	0.014603649895
0	8076	24.574250765159	0.016421357576
0	8081	24.590672122735	0.058814515074
0	8088	24.649486637809	0.002851164246
0	8092	24.652337802055	0.007030424277
0	8097	24.659368226332	0.011125534355
0	8102	24.670493760687	0.013194215103
0	8108	24.68368797579	0.004407681869
0	8112	24.688095657659	0.002120009462
0	8115	24.690215667121	0.005816293949
0	8120	24.69603196107	6.670694e-006
0	8123	24.696038631764	0.016428280398
0	8130	24.712466912162	0.018438978494
0	8138	24.730905890656	0.00053426308
0	8142	24.731440153736	0.003216006329
0	8145	24.734656160065	0.009215165667
0	8150	24.743871325732	0.035095463854
0	8158	24.778966789586	0.006189273749
0	8162	24.785156063335	0.005776044376
0	8167	24.790932107711	0.009446184553
0	8172	24.800378292264	0.002388453879
0	8177	24.802766746143	0.007346584657
0	8182	24.8101133308	0.042897544475
0	8188	24.853010875275	0.003442012686
0	8192	24.856452887961	0.003177913392
0	8195	24.859630801353	0.014765690315
0	8202	24.874396491668	0.034004435602
0	8208	24.90840092727	0.025698886813
0	8213	24.934099814083	0.00234142963
0	8217	24.936441243713	0.001286776519
0	8220	24.937728020232	0.008653757494
0	8225	24.946381777726	0.001401588736
0	8228	24.947783366462	0.029694309096
0	8238	24.977477675558	0.003273835537
0	8242	24.980751511095	0.028860066202
0	8248	25.009611577297	0.036359434752
0	8253	25.045971012049	0.018592020187
0	8258	25.064563032236	0.003778341471
0	8262	25.068341373707	0.037076029378
0	8268	25.105417403085	0.001422638893
0	8272	25.106840041978	0.023781701039
0	8278	25.130621743017	0.012349661754
0	8283	25.142971404771	0.024584402966
0	8288	25.167555807737	0.008954486466
0	8293	25.176510294203	0.008788529537
0	8298	25.18529882374	0.011193483789
0	8303	25.196492307529	0.014748495045
0	8308	25.211240802574	0.019225297954
0	8313	25.230466100528	0.040379596888
0	8318	25.270845697416	0.008087025668
0	8323	25.278932723084	0.0026767666
0	8327	25.281609489684	0.031834176528
0	8333	25.313443666212	0.02073897004
0	8338	25.334182636252	0.013617720007
0	8343	25.347800356259	0.007798011891
0	8348	25.35559836815	0.001252397451
0	8352	25.356850765601	0.012723434245
0	8357	25.369574199846	0.006291099099
0	8362	25.375865298945	0.001344917626
0	8365	25.377210216571	0.004969016151
0	8370	25.382179232722	0.014512419069
0	8377	25.396691651791	0.012044572476
0	8383	25.408736224267	0.025763105426
0	8388	25.434499329693	0.030857119312
0	8393	25.465356449005	0.0096672556
0	8398	25.475023704605	2.660278e-005
0	8402	25.475050307385	0.050796844563
0	8408	25.525847151948	0.018437158357
0	8413	25.544284310305	0.012892516171
0	8418	25.557176826476	0.052317943097
0	8423	25.609494769573	0.00579939732
0	8427	25.615294166893	0.014649308864
0	8433	25.629943475757	0.017063987525
0	8438	25.647007463282	0.036322405643
0	8443	25.683329868925	0.027831683986
0	8448	25.711161552911	0.019592733926
0	8453	25.730754286837	0.02111769156
0	8458	25.751871978397	0.008718286605
0	8463	25.760590265002	0.001600165651
0	8467	25.762190430653	3.5751018e-005
0	8470	25.762226181671	0.005978960828
0	8475	25.768205142499	0.008577182057
0	8480	25.776782324556	0.032341775108
0	8488	25.809124099664	0.003019551505
0	8492	25.812143651169	0.032060449533
0	8498	25.844204100702	0.008528272922
0	8503	25.852732373624	0.00096870828
0	8507	25.853701081904	0.003991837812
0	8510	25.857692919716	0.002862338501
0	8515	25.860555258217	0.043925891464
0	8523	25.904481149681	0.006563491927
0	8527	25.911044641608	0.01558906245
0	8533	25.926633704058	0.003296347829
0	8537	25.929930051887	0.002718123986
0	8540	25.932648175873	0.014566823665
0	8547	25.947214999538	0.011146399177
0	8553	25.958361398715	0.027098523048
0	8558	25.985459921763	0.026278691028
0	8563	26.011738612791	0.000493530764
0	8567	26.012232143555	0.030001036339
0	8573	26.042233179894	0.02977195241
0	8578	26.072005132304	0.005559504027
0	8582	26.077564636331	0.000995559293
0	8585	26.078560195624	0.010037261584
0	8592	26.088597457208	0.022707716738
0	8598	26.111305173946	0.008596302822
0	8603	26.119901476768	0.007832552405
0	8608	26.127734029173	0.040893241347
0	8613	26.16862727052	0.008838147414
0	8618	26.177465417934	5.5572877e-005
0	8622	26.177520990811	0.006594535876
0	8625	26.184115526687	0.078820128371
0	8633	26.262935655058	0.007603863492
0	8638	26.27053951855	0.0025196565
0	8642	26.27305917505	0.031918681261
0	8648	26.304977856311	0.009455661468
0	8653	26.314433517779	0.005968693998
0	8657	26.320402211777	0.002008930345
0	8662	26.322411142122	0.016929956136
0	8668	26.339341098258	0.011964834531
0	8673	26.351305932789	0.019567274869
0	8678	26.370873207658	0.003529691454
0	8682	26.374402899112	0.005795365794
0	8687	26.380198264906	0.033321131954
0	8693	26.41351939686	0.011023187238
0	8698	26.424542584098	0.034052097462
0	8703	26.45859468156	0.001746215246
0	8707	26.460340896806	0.010388656219
0	8712	26.470729553025	0.024035517299
0	8718	26.494765070324	0.001975825392
0	8722	26.496740895716	0.008837795047
0	8727	26.505578690763	0.027059407957
0	8733	26.53263809872	0.011462945677
0	8738	26.544101044397	0.003039218958
0	8742	26.547140263355	0.00213680785
0	8745	26.549277071205	0.016218523229
0	8752	26.565495594434	0.019048995756
0	8758	26.58454459019	0.023146514327
0	8763	26.607691104517	0.015717473221
0	8768	26.623408577738	0.029073335508
0	8773	26.652481913246	0.034969253658
0	8778	26.687451166904	0.02521621069
0	8783	26.712667377594	0.013325460251
0	8788	26.725992837845	0.015623558628
0	8793	26.741616396473	0.061666352686
0	8798	26.803282749159	0.013760096678
0	8803	26.817042845837	0.052263600139
0	8808	26.869306445976	0.003221383466
0	8812	26.872527829442	0.016175012227
0	8818	26.888702841669	0.016492870889
0	8823	26.905195712558	0.009047567374
0	8828	26.914243279932	5.9904803e-005
0	8832	26.914303184735	0.02566987299
0	8838	26.939973057725	0.003240706288
0	8842	26.943213764013	0.018167882713
0	8848	26.961381646726	0.03908716055
0	8853	27.000468807276	0.011597442974
0	8858	27.01206625025	0.006891898957
0	8862	27.018958149207	0.017439505528
0	8868	27.036397654735	0.00145640599
0	8872	27.037854060725	0.035434057846
0	8878	27.073288118571	0.000281045215
0	8882	27.073569163786	0.012750583401
0	8887	27.086319747187	0.010852242552
0	8893	27.097171989739	0.00705177955
0	8897	27.104223769289	0.010637035028
0	8903	27.114860804317	0.015431301344
0	8908	27.130292105661	0.035643705919
0	8913	27.16593581158	0.013604521707
0	8918	27.179540333287	0.012488037049
0	8923	27.192028370336	0.005170544277
0	8927	27.197198914613	0.000710487547
0	8930	27.19790940216	0.03469407067
0	8938	27.23260347283	0.047536172623
0	8943	27.280139645453	0.003472431175
0	8947	27.283612076628	0.011290534518
0	8952	27.294902611146	0.010165663125
0	8958	27.305068274271	0.011009420237
0	8963	27.316077694508	0.016177791232
0	8968	27.33225548574	0.023737184977
0	8973	27.355992670717	0.025722952038
0	8978	27.381715622755	0.003124047706
0	8982	27.384839670461	0.01035558992
0	8987	27.395195260381	0.010950729066
0	8993	27.406145989447	0.014746485637
0	8998	27.420892475084	0.006429112493
0	9002	27.427321587577	0.001424175715
0	9007	27.428745763292	0.008608830266
0	9012	27.437354593558	0.000596377529
0	9015	27.437950971087	0.014647280095
0	9022	27.452598251182	0.003876375671
0	9025	27.456474626853	0.001788379821
0	9030	27.458263006674	0.03940707825
0	9038	27.497670084924	0.012132704951
0	9043	27.509802789875	0.004499593381
0	9047	27.514302383256	0.0035704101
0	9052	27.517872793356	0.002598633362
0	9055	27.520471426718	0.008676579271
0	9060	27.529148005989	0.013300027932
0	9067	27.542448033921	0.011109074842
0	9072	27.553557108763	0.002353986001
0	9077	27.555911094764	0.030888335055
0	9083	27.586799429819	0.004120624729
0	9087	27.590920054548	0.026504285777
0	9093	27.617424340325	0.01687367289
0	9098	27.634298013215	0.000414899956
0	9102	27.634712913171	0.000215055546
0	9105	27.634927968717	0.00280030984
0	9108	27.637728278557	0.013536005442
0	9115	27.651264283999	0.001354923092
0	9118	27.652619207091	0.003501008986
0	9121	27.656120216077	0.025117975193
0	9132	27.68123819127	0.003763558629
0	9135	27.685001749899	0.029811577354
0	9143	27.714813327253	0.006366603101
0	9147	27.721179930354	0.004686392395
0	9152	27.725866322749	0.00254252081
0	9155	27.728408843559	0.001526875364
0	9160	27.729935718923	0.042131021705
0	9168	27.772066740628	0.002214122938
0	9172	27.774280863566	0.00836010439
0	9177	27.782640967956	0.002536006196
0	9180	27.785176974152	0.004710305606
0	9185	27.789887279758	0.01103926833
0	9190	27.800926548088	0.013585977287
0	9197	27.814512525375	0.01114127545
0	9203	27.825653800825	0.002934713383
0	9207	27.828588514208	0.00543497131
0	9212	27.834023485518	0.005719036301
0	9215	27.839742521819	0.053507378076
0	9223	27.893249899895	0.026532778492
0	9228	27.919782678387	0.008285116318
0	9233	27.928067794705	0.00506206026
0	9237	27.933129854965	0.019273959927
0	9243	27.952403814892	0.002475638149
0	9247	27.954879453041	0.019724643195
0	9253	27.974604096236	0.003492001369
0	9257	27.978096097605	0.010105801543
0	9262	27.988201899148	0.021058301954
0	9268	28.009260201102	0.017857413961
0	9273	28.027117615063	0.002897172731
0	9277	28.030014787794	0.011581432442
0	9282	28.041596220236	0.021435175241
0	9288	28.063031395477	0.006510714774
0	9292	28.069542110251	0.011404588896
0	9298	28.080946699147	0.00035498875
0	9302	28.081301687897	0.009000116053
0	9307	28.09030180395	0.034059459155
0	9313	28.124361263105	0.000900597836
0	9317	28.125261860941	0.001987288933
0	9320	28.127249149874	0.031317937882
0	9328	28.158567087756	0.051086696243
0	9333	28.209653783999	0.007269905364
0	9337	28.216923689363	0.024940442985
0	9343	28.241864132348	0.034276143972
0	9348	28.27614027632	0.012545122938
0	9353	28.288685399258	0.032641449007
0	9358	28.321326848265	0.002962999484
0	9362	28.324289847749	0.024751234691
0	9368	28.34904108244	0.020719343724
0	9373	28.369760426164	0.031072332202
0	9378	28.400832758366	0.002121691075
0	9382	28.402954449441	0.052900145957
0	9388	28.455854595398	0.005214942748
0	9392	28.461069538146	0.009039877156
0	9397	28.470109415302	0.003971996433
0	9402	28.474081411735	0.020062339721
0	9408	28.494143751456	0.003120366689
0	9412	28.497264118145	0.003141757742
0	9415	28.500405875887	0.007553999117
0	9420	28.507959875004	0.03044813422
0	9428	28.538408009224	0.02121923716
0	9433	28.559627246384	0.001993164922
0	9437	28.561620411306	0.011603087757
0	9442	28.573223499063	0.029340295821
0	9448	28.602563794884	0.002808219288
0	9452	28.605372014172	0.000365298484
0	9455	28.605737312656	0.003641507788
0	9458	28.609378820444	0.029057944861
0	9468	28.638436765305	0.011956652749
0	9473	28.650393418054	0.022376437835
0	9478	28.672769855889	0.068833927415
0	9483	28.741603783304	0.002743186528
0	9487	28.744346969832	0.01859956713
0	9493	28.762946536962	0.003192944553
0	9497	28.766139481515	0.001836620412
0	9500	28.767976101927	0.025387684971
0	9508	28.793363786898	0.003773871606
0	9512	28.797137658504	0.010052607738
0	9517	28.807190266242	0.002152839468
0	9522	28.80934310571	0.010701645966
0	9527	28.820044751676	0.025439610092
0	9533	28.845484361768	0.007113451604
0	9537	28.852597813372	0.012120486943
0	9543	28.864718300315	0.016402524854
0	9548	28.881120825169	0.008385936274
0	9553	28.889506761443	0.000156995583
0	9557	28.889663757026	0.003949913756
0	9560	28.893613670782	0.030404811402
0	9568	28.924018482184	0.005416083137
0	9572	28.929434565321	0.021573952946
0	9578	28.951008518267	0.0086592679
0	9583	28.959667786167	0.003611860433
0	9587	28.9632796466	0.003115665448
0	9590	28.966395312048	0.017660689438
0	9598	28.984056001486	0.011456889623
0	9603	28.995512891109	0.015030928309
0	9608	29.010543819418	0.015584846913
0	9613	29.026128666331	0.013050591194
0	9618	29.039179257525	0.018229744577
0	9623	29.057409002102	0.008937383327
0	9628	29.066346385429	0.002012551438
0	9632	29.068358936867	0.016126625451
0	9638	29.084485562318	0.001918885792
0	9642	29.08640444811	0.002466330122
0	9645	29.088870778232	0.019406182888
0	9653	29.10827696112	0.011451872207
0	9658	29.119728833327	0.003265320625
0	9662	29.122994153952	0.02395639511
0	9668	29.146950549062	0.027779533876
0	9673	29.174730082938	0.033703875564
0	9678	29.208433958502	0.038124607594
0	9683	29.246558566096	0.010842668472
0	9688	29.257401234568	0.033592165379
0	9693	29.290993399947	0.001925060595
0	9697	29.292918460542	0.020738968621
0	9703	29.313657429163	0.011906317878
0	9708	29.325563747041	0.017782727611
0	9713	29.343346474652	0.016235375024
0	9718	29.359581849676	0.00181553526
0	9722	29.361397384936	0.01616954035
0	9728	29.377566925286	0.010452506008
0	9733	29.388019431294	0.020079172189
0	9738	29.408098603483	0.017401769123
0	9743	29.425500372606	0.025610218643
0	9748	29.451110591249	0.011402319979
0	9753	29.462512911228	0.056627038656
0	9758	29.519139949884	0.019229239155
0	9763	29.538369189039	0.035674911502
0	9768	29.574044100541	0.002606354562
0	9772	29.576650455103	0.001487650455
0	9775	29.578138105558	0.003604883314
0	9780	29.581742988872	0.003351247204
0	9783	29.585094236076	0.015580947398
0	9790	29.600675183474	0.037984855357
0	9798	29.638660038831	0.00075825535
0	9802	29.639418294181	0.000285870725
0	9805	29.639704164906	0.004014925257
0	9808	29.643719090163	0.015741589573
0	9815	29.659460679736	0.000726255807
0	9818	29.660186935543	0.016449838229
0	9828	29.676636773772	0.003233784379
0	9831	29.679870558151	0.020971128808
0	9840	29.700841686959	0.009780839661
0	9845	29.71062252662	0.006091341521
0	9849	29.716713868141	0.063887253834
0	9855	29.780601121975	0.020152774887
0	9860	29.800753896862	0.017711368191
0	9865	29.818465265053	0.017566233282
0	9870	29.836031498335	0.007485906502
0	9875	29.843517404837	0.000891972487
0	9879	29.844409377324	0.020611678332
0	9885	29.865021055656	0.00444183109
0	9890	29.869462886746	0.004148158097
0	9895	29.873611044843	0.004134638952
0	9898	29.877745683795	0.008994220176
0	9903	29.886739903971	0.007777721656
0	9908	29.894517625627	0.0121279221
0	9915	29.906645547727	0.015176108554
0	9921	29.921821656281	0.011621701577
0	9926	29.933443357858	0.01099424791
0	9931	29.944437605768	0.002834842324
0	9935	29.947272448092	0.009085286533
0	9940	29.956357734625	0.002992030159
0	9945	29.959349764784	0.000968964094
0	9948	29.960318728878	0.002062525789
0	9951	29.962381254667	0.001933671673
0	9954	29.96431492634	0.053444747705
0	9966	30.017759674045	0.013512675598
0	9971	30.031272349643	0.023748219057
0	9976	30.0550205687	0.033696177493
0	9981	30.088716746193	0.002935326212
0	9985	30.091652072405	0.01483391055
0	9992	30.106485982955	0.001218295776
0	9996	30.107704278731	0.014969026555
0	10002	30.122673305286	0.008503616508
0	10007	30.131176921794	0.010068445172
0	10012	30.141245366966	0.015682633988
0	10017	30.156928000954	0.046882050813
0	10022	30.203810051767	0.008705013642
0	10027	30.212515065409	0.004577696027
0	10031	30.217092761436	0.004910518659
0	10036	30.222003280095	0.023073053772
0	10042	30.245076333867	0.017954537291
0	10047	30.263030871158	0.014241498949
0	10052	30.277272370107	0.018905936945
0	10057	30.296178307052	0.011203955556
0	10062	30.307382262608	0.00178488838
0	10066	30.309167150988	0.00792942198
0	10071	30.317096572968	0.01683858956
0	10077	30.333935162528	0.000512928408
0	10081	30.334448090936	0.024731290402
0	10087	30.359179381338	0.004578016559
0	10091	30.363757397897	0.017168006313
0	10098	30.38092540421	0.006659164325
0	10102	30.387584568535	0.02930662599
0	10108	30.416891194525	0.012123234053
0	10113	30.429014428578	0.01099875944
0	10118	30.440013188018	0.010272293506
0	10123	30.450285481524	0.062095631779
0	10128	30.512381113303	0.004962718527
0	10132	30.51734383183	0.018568356043
0	10138	30.535912187873	0.00858148213
0	10143	30.544493670003	0.009258539142
0	10148	30.553752209145	0.006407828898
0	10152	30.560160038043	0.024966196937
0	10158	30.58512623498	0.020175176026
0	10163	30.605301411006	0.032219399581
0	10168	30.637520810587	0.019430761462
0	10173	30.656951572049	0.031185600037
0	10178	30.688137172086	0.010410030787
0	10183	30.698547202873	0.007547577244
0	10188	30.706094780117	0.016581683174
0	10193	30.722676463291	0.003960654123
0	10197	30.726637117414	0.020670845361
0	10203	30.747307962775	0.017093313504
0	10208	30.764401276279	0.00010925883
0	10212	30.764510535109	0.017147685423
0	10218	30.781658220532	0.001160878038
0	10222	30.78281909857	0.032578019317
0	10228	30.815397117887	0.010668659562
0	10233	30.826065777449	0.010335122568
0	10238	30.836400900017	0.02752894056
0	10243	30.863929840577	0.033522263646
0	10248	30.897452104223	0.009952389423
0	10253	30.907404493646	0.080752928995
0	10258	30.988157422641	0.002385338673
0	10262	30.990542761314	0.008289520425
0	10267	30.998832281739	0.026229095322
0	10273	31.025061377061	0.026617145106
0	10279	31.051678522167	0.013140289346
0	10284	31.064818811513	0.007612919096
0	10289	31.072431730609	0.000404977315
0	10293	31.072836707924	0.032027944001
0	10299	31.104864651925	0.048701883531
0	10304	31.153566535456	0.010870540437
0	10309	31.164437075893	0.009818494955
0	10314	31.174255570848	0.010540113162
0	10319	31.18479568401	0.006231175751
[...]
23	17386	51.974852929619	0.035871794489
23	17391	51.982516603803	0.018779328036
23	17399	51.990180277987	0.016384118171
23	17404	51.997843952171	0.022793585594
23	17409	52.005507626355	0.024282713046
23	17414	52.013171300539	0.02473764664
23	17416	52.020834974723	0.03015007772
23	17421	52.028498648907	0.023966063201
23	17426	52.036162323091	0.018252264198
23	17428	52.043825997275	0.020690836353
23	17433	52.145069759264	0.007665352606
23	17438	52.157695529706	0.007665352606
23	17443	52.207156061069	0.007665352606
23	17448	52.273427254628	0.007666192093
23	17453	52.281093446721	0.014982437477
23	17458	52.297129517164	0.007666192093
23	17463	52.308450811151	0.007667031763
23	17468	52.317317385342	0.007667031763
23	17473	52.324984417105	0.015115344295
23	17478	52.360084459952	0.007667031763
23	17483	52.421138788604	0.007667871618
23	17488	52.428806660222	0.012664180685
23	17493	52.456876762634	0.007667871618
23	17498	52.492374132834	0.007668711656
23	17503	52.50004284449	0.01186548289
23	17508	52.507711556146	0.013164663079
23	17513	52.538222433186	0.007668711656
23	17518	52.585782255052	0.007669551879
23	17523	52.593451806931	0.010652450916
23	17528	52.60112135881	0.01204779538
23	17536	52.608790910689	0.013020660619
23	17538	52.616460462568	0.01967624964
23	17543	52.663702600455	0.007670392286
23	17548	52.681018736179	0.007670392286
23	17559	52.688689128465	0.012197861462
23	17564	52.696359520751	0.016814867248
23	17566	52.704029913037	0.024066533035
23	17568	52.711700305323	0.030345232326
23	17573	52.719370697609	0.015323947607
23	17578	52.727041089895	0.014365712002
23	17583	52.734711482181	0.014017476865
23	17591	52.742382715058	0.01509774015
23	17593	52.750053947935	0.01954370227
23	17598	52.802656292944	0.007671232877
23	17603	52.815367194859	0.007671232877
23	17608	52.849331371763	0.007672073652
23	17613	52.867938807786	0.007672073652
23	17618	52.876137160863	0.007672073652
23	17623	52.883809234515	0.012244552605
23	17628	52.898843077391	0.007672073652
23	17633	52.906515151043	0.007955499873
23	17638	52.916985655686	0.007672914611
23	17643	52.938447453185	0.007672914611
23	17648	53.074554166715	0.007673755755
23	17653	53.08222792247	0.014133560321
23	17658	53.099857739858	0.007674597084
23	17663	53.111277957836	0.007674597084
23	17668	53.11895255492	0.009541526956
23	17673	53.129063633834	0.007674597084
23	17678	53.139189196294	0.007674597084
23	17683	53.161314250131	0.007674597084
23	17688	53.175121169869	0.007675438596
23	17693	53.200725790582	0.007675438596
23	17698	53.208401229178	0.013144839513
23	17703	53.216076667774	0.012655926844
23	17708	53.22375210637	0.008152397641
23	17713	53.256642967397	0.007676280294
23	17721	53.264319247691	0.013503309477
23	17723	53.271995527985	0.019001391315
23	17728	53.279671808279	0.010391907466
23	17733	53.28769308151	0.007676280294
23	17738	53.300055603714	0.007676280294
23	17743	53.307995411252	0.007676280294
23	17748	53.315671691546	0.011371834243
23	17753	53.323557481671	0.007676280294
23	17758	53.337795136846	0.007677122176
23	17763	53.345472259022	0.01201524215
23	17768	53.364458890211	0.007677122176
23	17773	53.372136012387	0.011577261761
23	17781	53.379813134563	0.015335561542
23	17783	53.387490256739	0.016565560675
23	17788	53.461233531052	0.007677964243
23	17796	53.468911495295	0.014158454357
23	17801	53.476589459538	0.020317546542
23	17803	53.484267423781	0.022316998235
23	17808	53.495564770773	0.007677964243
23	17813	53.505340043433	0.007677964243
23	17818	53.513018007676	0.010295363739
23	17823	53.525583813702	0.007678806494
23	17828	53.533262620196	0.011888350107
23	17833	53.541475824092	0.007678806494
23	17838	53.554611119485	0.007678806494
23	17843	53.569789369022	0.007678806494
23	17848	53.587744352188	0.007678806494
23	17853	53.595423158682	0.010808511653
23	17858	53.606773707441	0.00767964893
23	17863	53.615959602802	0.00767964893
23	17868	53.632602307361	0.00767964893
23	17873	53.650138041771	0.00767964893
23	17878	53.740858834651	0.007680491551
23	17883	53.774880068702	0.007681334358
23	17888	53.798002548114	0.007681334358
23	17893	53.823003977025	0.007681334358
23	17898	53.834803806373	0.007681334358
23	17903	53.872413068	0.007682177349
23	17908	53.904608562809	0.007682177349
23	17913	53.917071408239	0.007682177349
23	17918	53.938957862601	0.007683020525
23	17923	53.947984777139	0.007683020525
23	17928	53.968161909894	0.007683020525
23	17936	53.975844930419	0.009299601793
23	17938	53.983527950944	0.015815139803
23	17943	54.023150206	0.007683863886
23	17948	54.054184138479	0.007683863886
23	17953	54.070684754339	0.007683863886
23	17958	54.094556932133	0.007683863886
23	17963	54.113385176263	0.007684707432
23	17971	54.121069883695	0.011734622608
23	17973	54.128754591127	0.019368335696
23	17978	54.140296619674	0.007684707432
23	17983	54.15850169939	0.007684707432
23	17988	54.166186406822	0.011264015626
23	17993	54.177730799137	0.007684707432
23	17998	54.200839212101	0.007685551164
23	18003	54.245775920474	0.007685551164
23	18008	54.253857505065	0.007685551164
23	18013	54.265387595247	0.007685551164
23	18018	54.28058267628	0.007686395081
23	18023	54.393997294483	0.007687239183
23	18028	54.401684533666	0.010258753454
23	18036	54.409371772849	0.012020203943
23	18038	54.417059012032	0.016795846698
23	18046	54.424746251215	0.012916626151
23	18051	54.432433490398	0.015993822155
23	18059	54.440120729581	0.019164301813
23	18061	54.447807968764	0.020932310824
23	18066	54.455495207947	0.026615284455
23	18074	54.463183291418	0.022867447726
23	18076	54.470871374889	0.019768628984
23	18081	54.47855945836	0.026008880677
23	18083	54.486247541831	0.021158985781
23	18094	54.493935625302	0.013710035177
23	18096	54.501623708773	0.019187233757
23	18098	54.509311792244	0.023860436434
23	18103	54.534275409851	0.007688083471
23	18108	54.56148539184	0.007688927944
23	18113	54.603865940205	0.007688927944
23	18118	54.611554868149	0.007760032992
23	18123	54.619243796093	0.010366190398
23	18128	54.65644045108	0.007689772602
23	18133	54.688374379044	0.007689772602
23	18141	54.696064151646	0.01446129605
23	18146	54.703753924248	0.019586431748
23	18148	54.71144369685	0.021818134769
23	18153	54.724630194762	0.007690617447
23	18158	54.754257679333	0.007690617447
23	18163	54.76194829678	0.011265180133
23	18168	54.802701793069	0.007691462477
23	18173	54.855362992819	0.007691462477
23	18181	54.863054455296	0.011412676785
23	18186	54.870745917773	0.015969200304
23	18188	54.87843738025	0.017367645168
23	18193	54.897002746511	0.007692307692
23	18198	54.904695054203	0.009242805985
23	18206	54.912387361895	0.013657621693
23	18208	54.920079669587	0.016461875896
23	18213	54.947101099502	0.007692307692
23	18218	54.967304579827	0.007693153094
23	18223	55.050616647438	0.007693998681
23	18228	55.073965859648	0.007693998681
23	18233	55.081659858329	0.012872795826
23	18238	55.097789026852	0.007693998681
23	18243	55.152047370798	0.007694844454
23	18248	55.187001618739	0.007694844454
23	18253	55.194696463193	0.009598445673
23	18258	55.202391307647	0.014058415951
23	18263	55.239286346485	0.007695690413
23	18271	55.246982036898	0.014253416519
23	18273	55.254677727311	0.020656734723
23	18278	55.262373417724	0.007999738844
23	18283	55.295176475201	0.007695690413
23	18288	55.30602900025	0.007695690413
23	18293	55.313724690663	0.01331298429
23	18298	55.324335065066	0.007696536559
23	18303	55.332031601625	0.009344599853
23	18308	55.339728138184	0.014853989518
23	18313	55.347424674743	0.013936281076
23	18318	55.357370829688	0.007696536559
23	18323	55.365067366247	0.011801935033
23	18328	55.407449207706	0.00769738289
23	18333	55.415146590596	0.01168757507
23	18338	55.432646169821	0.00769738289
23	18343	55.440343552711	0.013071997465
23	18348	55.448040935601	0.008209732032
23	18353	55.481088788933	0.007698229407
23	18361	55.48878701834	0.011829624777
23	18369	55.496485247747	0.016087546245
23	18371	55.504183477154	0.018546459042
23	18373	55.511881706561	0.026095420921
23	18378	55.519579935968	0.013257743758
23	18383	55.527278165375	0.012470847174
23	18388	55.590058139415	0.007699076111
23	18396	55.597757215526	0.015238388371
23	18401	55.605456291637	0.01647834932
23	18403	55.613155367748	0.01668174367
23	18408	55.631962646697	0.007699076111
23	18413	55.64782053537	0.007699076111
23	18418	55.664239257255	0.007699923001
23	18423	55.678730976665	0.007699923001
23	18428	55.777645433076	0.007700770077
23	18433	55.790950593196	0.007700770077
23	18438	55.80779198896	0.007700770077
23	18443	55.884369547781	0.00770161734
23	18448	55.896909780911	0.00770161734
23	18453	55.910932660123	0.007702464789
23	18467	55.918635124912	0.014527183392
23	18472	55.926337589701	0.020902250773
23	18477	55.93404005449	0.026885572371
23	18485	55.941742519279	0.032603753705
23	18490	55.949444984068	0.037227866489
23	18492	55.957147448857	0.031680042289
23	18494	55.964849913646	0.034565584133
23	18499	55.972552378435	0.038950397137
23	18501	55.980254843224	0.044071915115
23	18506	55.987957308013	0.025482399001
23	18514	55.995659772802	0.020321074599
23	18516	56.003363085226	0.020894259215
23	18518	56.01106639765	0.024437195814
23	18523	56.018769710074	0.01482783009
23	18534	56.026473022498	0.012613214431
23	18539	56.034176334922	0.020139818167
23	18541	56.041879647346	0.023905535577
23	18543	56.04958295977	0.029394356823
23	18548	56.067999043888	0.007703312424
23	18553	56.108970096546	0.007704160247
23	18558	56.117079091547	0.007704160247
23	18563	56.124783251794	0.014464086915
23	18568	56.140071608221	0.007704160247
23	18573	56.147775768468	0.012785485388
23	18578	56.181378996234	0.007705008255
23	18583	56.195614182507	0.007705008255
23	18588	56.203319190762	0.010385463486
23	18593	56.215242973506	0.007705008255
23	18601	56.222947981761	0.015168502301
23	18606	56.230652990016	0.019112226467
23	18608	56.238357998271	0.018380394623
23	18613	56.257839401758	0.007705856451
23	18618	56.265545258209	0.008580386073
23	18623	56.274967852102	0.007705856451
23	18628	56.282673708553	0.009072890987
23	18633	56.290379565004	0.010872844291
23	18638	56.313462172382	0.007705856451
23	18643	56.326250812632	0.007705856451
23	18648	56.37762831141	0.007706704833
23	18653	56.385335016243	0.009327182714
23	18658	56.403341511912	0.007706704833
23	18663	56.419290453741	0.007706704833
23	18668	56.427333320557	0.007707553402
23	18676	56.435040873959	0.012903202302
23	18681	56.442748427361	0.019644522485
23	18683	56.450455980763	0.020989815373
23	18688	56.469106609106	0.007707553402
23	18693	56.48613563522	0.007707553402
23	18698	56.502536693441	0.007707553402
23	18703	56.548658738487	0.007708402158
23	18708	56.556367140645	0.014383072205
23	18713	56.644487891169	0.007709251101
23	18718	56.657543934962	0.007709251101
23	18726	56.665253186063	0.014782205508
23	18731	56.672962437164	0.016304528872
23	18733	56.680671688265	0.022095111541
23	18738	56.722460354654	0.007710100231
23	18743	56.75320741531	0.007710100231
23	18748	56.781765790486	0.007710949548
23	18753	56.789476740034	0.014369986033
23	18758	56.819362050742	0.007710949548
23	18763	56.846644000019	0.007710949548
23	18768	56.855959590853	0.007711799053
23	18773	56.879448569299	0.007711799053
23	18784	56.887160368352	0.010536916485
23	18786	56.894872167405	0.01758932352
23	18791	56.902583966458	0.024497116356
23	18793	56.910295765511	0.016504943932
23	18798	56.931512630692	0.007711799053
23	18803	56.941728550685	0.007712648744
23	18808	56.949441199429	0.011308511592
23	18813	56.994373260986	0.007712648744
23	18818	57.00208590973	0.008048798751
23	18823	57.054187447095	0.007713498623
23	18834	57.061900945718	0.015221577877
23	18839	57.069614444341	0.018861279399
23	18847	57.077327942964	0.024939253864
23	18849	57.085041441587	0.029727841321
23	18854	57.09275494021	0.026663185852
23	18856	57.100468438833	0.034182118012
23	18861	57.108181937456	0.025348980411
23	18869	57.115895436079	0.018570185497
23	18877	57.123609784768	0.018043263596
23	18882	57.131324133457	0.024540723486
23	18884	57.139038482146	0.024632541101
23	18889	57.146752830835	0.031553664709
23	18891	57.154467179524	0.034310679225
23	18893	57.162181528213	0.026453510631
23	18898	57.169895876902	0.007745931566
23	18903	57.177610225591	0.007812666783
23	18908	57.18553345485	0.007714348689
23	18913	57.194797468302	0.007714348689
23	18918	57.202511816991	0.009468557619
23	18923	57.210227015933	0.015257902781
23	18928	57.218933316449	0.007715198942
23	18933	57.226648515391	0.011025902982
23	18938	57.234363714333	0.009240578879
23	18943	57.242078913275	0.015229513853
23	18954	57.249794112217	0.01375346837
23	18956	57.257509311159	0.018063493195
23	18961	57.265224510101	0.024809628091
23	18966	57.272939709043	0.02133887113
23	18968	57.280654907985	0.019223764118
23	18973	57.294536684353	0.007716049383
23	18978	57.321069660009	0.007716049383
23	18986	57.328785709392	0.011733461699
23	18988	57.336501758775	0.016444568114
23	18993	57.344217808158	0.010369366672
23	18998	57.351933857541	0.010473618146
23	19003	57.359649906924	0.013654007506
23	19008	57.39413606808	0.007716900011
23	19016	57.401852968091	0.01359083843
23	19021	57.409569868102	0.01801119331
23	19023	57.417286768113	0.022848052805
23	19028	57.430084702046	0.007716900011
23	19033	57.437801602057	0.010476570422
23	19038	57.445518502068	0.01004550465
23	19043	57.506790732481	0.007717750827
23	19048	57.53420906634	0.007717750827
23	19053	57.556270579185	0.00771860183
23	19058	57.59309453536	0.00771860183
23	19063	57.60081313719	0.010934002049
23	19068	57.611805774642	0.00771860183
23	19073	57.619524376472	0.013854593541
23	19078	57.630844894338	0.007719453022
23	19083	57.63856434736	0.008010028634
23	19088	57.646283800382	0.011912912332
23	19093	57.657281890282	0.007719453022
23	19098	57.670459005494	0.007719453022
23	19103	57.678495938717	0.007719453022
23	19108	57.686215391739	0.010116335274
23	19116	57.693934844761	0.013817073104
23	19118	57.701654297783	0.020373639065
23	19123	57.709603650112	0.007719453022
23	19131	57.717323103134	0.014326105279
23	19136	57.725043407535	0.020646358299
23	19138	57.732763711936	0.020743355853
23	19143	57.760606214253	0.007720304401
23	19148	57.811445779762	0.007721155967
23	19156	57.819166935729	0.01418167614
23	19158	57.826888091696	0.017970256794
23	19163	57.859078141561	0.007721155967
23	19168	57.874943179717	0.007721155967
23	19173	57.884738685034	0.007722007722
23	19178	57.90661265604	0.007722007722
23	19183	57.919193991515	0.007722007722
23	19188	57.933081984263	0.007722007722
23	19193	57.950382363706	0.007722007722
23	19198	57.996359858518	0.007722859665
23	19203	58.004082718183	0.009569904187
23	19208	58.027639906931	0.007722859665
23	19213	58.053959854428	0.007723711795
23	19218	58.076455155938	0.007723711795
23	19223	58.084178867733	0.007953406871
23	19228	58.112377227115	0.007723711795
23	19233	58.136352408334	0.007723711795
23	19238	58.153194370481	0.007724564114
23	19243	58.160918934595	0.010362946565
23	19248	58.168643498709	0.008081150467
23	19253	58.200281306774	0.007724564114
23	19258	58.208005870888	0.014486571251
23	19263	58.225480309347	0.007725416621
23	19268	58.246569834634	0.007725416621
23	19276	58.254295251255	0.011805815234
23	19278	58.262020667876	0.019241664871
23	19283	58.269943139255	0.007725416621
23	19288	58.277668555876	0.01388793321
23	19293	58.285393972497	0.013468726599
23	19298	58.294728856251	0.007725416621
23	19303	58.302454272872	0.014522982386
23	19308	58.310179689493	0.010429808422
23	19314	58.317905106114	0.008749390717
23	19319	58.330571857941	0.007725416621
23	19324	58.338297274562	0.012132080718
23	19329	58.358318208695	0.007724564114
23	19334	58.383433659336	0.007724564114
23	19339	58.39115822345	0.009327657431
23	19344	58.412216284171	0.007723711795
23	19349	58.419940166195	0.007723711795
23	19354	58.42766387799	0.010577111681
23	19359	58.435387589785	0.013739435657
23	19364	58.44311130158	0.010675112772
23	19369	58.479536958412	0.007722859665
23	19374	58.491570425023	0.007722007722
23	19379	58.506882972949	0.007722007722
23	19384	58.514604980671	0.010097486859
23	19389	58.530972699972	0.007721155967
23	19394	58.559816247845	0.007721155967
23	19399	58.567537403812	0.013335518213
23	19404	58.582876526262	0.007720304401
23	19409	58.619630281218	0.007719453022
23	19414	58.62734973424	0.011641495689
23	19419	58.635069187262	0.013868595565
23	19424	58.642788640284	0.011299871225
23	19429	58.650508093306	0.013461601302
23	19434	58.664603318766	0.00771860183
23	19439	58.689516239487	0.00771860183
23	19447	58.697234841317	0.00942391414
23	19449	58.704953443147	0.016010659162
23	19454	58.729279615412	0.007717750827
23	19459	58.736997366239	0.013341640502
23	19464	58.774919526423	0.007716900011
23	19469	58.782636426434	0.00901822519
23	19474	58.790353326445	0.015181125342
23	19479	58.798070226456	0.012837533988
23	19493	58.805786275839	0.014599740044
23	19495	58.813502325222	0.022149127523
23	19500	58.821218374605	0.026406434184
23	19508	58.828934423988	0.033764546718
23	19510	58.836650473371	0.029720495823
23	19515	58.844365672313	0.029762356148
23	19517	58.852080871255	0.034467782368
23	19519	58.859796070197	0.024862164491
23	19524	58.867511269139	0.013116135045
23	19529	58.875226468081	0.012359463971
23	19534	58.882941667023	0.01171846137
23	19539	58.909873385231	0.007714348689
23	19544	58.919123877345	0.007714348689
23	19549	58.926838226034	0.012000338661
23	19554	58.946973200552	0.007713498623
23	19559	58.954686699175	0.011504367475
23	19567	58.962400197798	0.015386523607
23	19569	58.970113696421	0.017262375539
23	19574	58.993260096749	0.007712648744
23	19579	59.015607967093	0.007711799053
23	19584	59.028270326919	0.007711799053
23	19589	59.051978997054	0.007711799053
23	19595	59.063616647652	0.007710949548
23	19600	59.076252242179	0.007710949548
23	19605	59.090492373206	0.007710949548
23	19610	59.101554637629	0.007710100231
23	19615	59.109317638852	0.007710100231
23	19620	59.139855941585	0.007710100231
23	19625	59.147566041816	0.01359318427
23	19630	59.155275292917	0.011616887198
23	19635	59.162984544018	0.014672019874
23	19640	59.182649674278	0.007709251101
23	19645	59.2235274473	0.007708402158
23	19650	59.23237970068	0.007707553402
23	19655	59.245145865383	0.007707553402
23	19663	59.252853418785	0.01414181333
23	19665	59.260560972187	0.021574444076
23	19673	59.268268525589	0.013966890098
23	19675	59.275976078991	0.019979817733
23	19680	59.2937529317	0.007706704833
23	19685	59.317171321313	0.007705856451
23	19690	59.324877177764	0.014883773229
23	19701	59.332583034215	0.014910087586
23	19706	59.340288890666	0.02132206004
23	19708	59.347994747117	0.026026630081
23	19710	59.355700603568	0.026713927411
23	19715	59.371381287476	0.007705008255
23	19720	59.388830008358	0.007705008255
23	19725	59.422959127631	0.007704160247
23	19730	59.430663287878	0.011602941595
23	19735	59.438367448125	0.010310369688
23	19740	59.461793438875	0.007703312424
23	19745	59.469496751299	0.011649454023
23	19750	59.486469869555	0.007703312424
23	19755	59.494173181979	0.013462575144
23	19760	59.536492242783	0.00770161734
23	19765	59.572214669052	0.00770161734
23	19770	59.579916286392	0.015171011323
23	19775	59.600165213519	0.007700770077
23	19780	59.607865983596	0.011027377379
23	19785	59.615566753673	0.015021763678
23	19790	59.62326752375	0.010533056887
23	19795	59.708328274464	0.007698229407
23	19800	59.724370827993	0.007698229407
23	19805	59.747599641814	0.007698229407
23	19810	59.755297871221	0.009743129499
23	19818	59.762995254111	0.01517346283
23	19823	59.770692637001	0.018022939647
23	19828	59.778390019891	0.015755210131
23	19830	59.786087402781	0.017203891665
23	19835	59.79470546455	0.007696536559
23	19840	59.807706098376	0.007696536559
23	19845	59.815402634935	0.008860585599
23	19850	59.823099171494	0.008105929051
23	19855	59.837828845531	0.007696536559
23	19860	59.869672773066	0.007695690413
23	19865	59.877368463479	0.012599073721
23	19870	59.903722068058	0.007694844454
23	19878	59.911416912512	0.01494399471
23	19880	59.919111756966	0.01605580374
23	19885	59.934242049547	0.007693998681
23	19890	59.99377237539	0.007693153094

