version 2
run Non-monitoring-3-20210209-17:43:09-31724
attr configname Non-monitoring
attr datetime 20210209-17:43:09
attr experiment Non-monitoring
attr inifile aerocom.ini
attr iterationvars ""
attr iterationvarsf ""
attr measurement ""
attr network Aerocom
attr processid 31724
attr repetition 3
attr replication #3
attr resultdir results
attr runnumber 3
attr seedset 3
param **.t 1s
param **.k 50ms
param **.nA 1
param **.nDL 1
param **.s "70 byte"
param **.X 0s
param **.dimPoolMax 9000
param **.dimPoolMin 9000
param **.tDistribution "\"exponential\""
param **.m 1s
param **.DLMaxCapacity 0
param **.trasmitting false
param **.operationMode 1

vector 0 Aerocom.aircraft[0].packetGenerator arrivalTime:vector ETV
attr "" ""
attr source computeArrivalTime
vector 1 Aerocom.aircraft[0].dataLink[0] queueLength:vector ETV
attr "" ""
attr source computeQueueLength
vector 2 Aerocom.aircraft[0].dataLink[0] waitingTime:vector ETV
attr "" ""
attr source computeWaitingTime
vector 3 Aerocom.aircraft[0].dataLink[0] serviceTime:vector ETV
attr "" ""
attr source computeServiceTime
vector 4 Aerocom.aircraft[0].dataLink[0] responseTime:vector ETV
attr "" ""
attr source computeResponseTime
vector 5 Aerocom.aircraft[0].dataLink[0] tDistribution:vector ETV
attr "" ""
attr source computeTDistribution
0	1063	10.02492090016	0.005969767016
0	1067	10.030890667176	0.003571804482
0	1072	10.034462471658	0.092144580258
0	1078	10.126607051916	0.065735581291
0	1083	10.192342633207	0.039491135888
0	1088	10.231833769095	0.030377085545
0	1093	10.26221085464	0.015123989562
0	1098	10.277334844202	0.071435945039
0	1103	10.348770789241	0.042880519245
0	1108	10.391651308486	0.064768901626
0	1113	10.456420210112	0.018833140739
0	1118	10.475253350851	0.082672142833
0	1123	10.557925493684	0.078420361366
0	1128	10.63634585505	0.022627351549
0	1134	10.658973206599	0.033971161009
0	1139	10.692944367608	0.127509342062
0	1144	10.82045370967	0.167846844957
0	1149	10.988300554627	0.039330562809
0	1154	11.027631117436	0.036730963576
0	1159	11.064362081012	0.002128156029
0	1163	11.066490237041	0.116663344933
0	1169	11.183153581974	0.107099281659
0	1174	11.290252863633	0.014371076195
0	1179	11.304623939828	0.041975895496
0	1184	11.346599835324	0.036853626729
0	1189	11.383453462053	0.000714868763
0	1193	11.384168330816	0.035235254065
0	1199	11.419403584881	0.04224663263
0	1204	11.461650217511	0.083851447944
0	1209	11.545501665455	0.093198248944
0	1214	11.638699914399	0.003800562721
0	1218	11.64250047712	0.003970095606
0	1221	11.646470572726	0.090457590706
0	1229	11.736928163432	0.075176037404
0	1234	11.812104200836	0.081542176894
0	1239	11.89364637773	0.070772350983
0	1244	11.964418728713	0.026070848181
0	1249	11.990489576894	0.083557989218
0	1254	12.074047566112	0.001856609761
0	1258	12.075904175873	0.06594395374
0	1264	12.141848129613	0.072890401112
0	1269	12.214738530725	0.001721485124
0	1273	12.216460015849	0.056804426463
0	1279	12.273264442312	0.078474951155
0	1284	12.351739393467	0.125621429707
0	1290	12.477360823174	0.04283939325
0	1295	12.520200216424	0.041070125697
0	1300	12.561270342121	0.033048351575
0	1305	12.594318693696	0.171663769224
0	1310	12.76598246292	0.006216533342
0	1314	12.772198996262	0.018436244755
0	1320	12.790635241017	0.151965988329
0	1325	12.942601229346	0.020691749247
0	1330	12.963292978593	0.017406971816
0	1335	12.980699950409	0.06563023186
0	1340	13.046330182269	0.00925244052
0	1345	13.055582622789	0.060427481402
0	1350	13.116010104191	0.015195793895
0	1355	13.131205898086	0.06461268983
0	1360	13.195818587916	0.017843594777
0	1365	13.213662182693	0.11218880899
0	1370	13.325850991683	0.003668490462
0	1374	13.329519482145	0.063053459435
0	1380	13.39257294158	0.016649696958
0	1385	13.409222638538	0.057309220691
0	1390	13.466531859229	0.162611101483
0	1395	13.629142960712	0.092612698133
0	1400	13.721755658845	0.192615402121
0	1405	13.914371060966	0.051798637651
0	1410	13.966169698617	0.015575349978
0	1415	13.981745048595	0.018026897627
0	1420	13.999771946222	0.001665852607
0	1424	14.001437798829	0.08824065017
0	1430	14.089678448999	0.184536810373
0	1435	14.274215259372	0.014033306857
0	1440	14.288248566229	0.057967066372
0	1445	14.346215632601	0.060832759966
0	1450	14.407048392567	0.048870596597
0	1455	14.455918989164	0.038381494907
0	1460	14.494300484071	0.008005491433
0	1465	14.502305975504	0.023967116398
0	1470	14.526273091902	0.02614481047
0	1475	14.552417902372	0.009838345558
0	1480	14.56225624793	0.02873022144
0	1485	14.59098646937	0.108504039972
0	1490	14.699490509342	0.02059424541
0	1495	14.720084754752	0.004181771888
0	1499	14.72426652664	0.011472601179
0	1505	14.735739127819	0.081377204003
0	1510	14.817116331822	0.030538694145
0	1515	14.847655025967	0.057516917529
0	1520	14.905171943496	0.07720873374
0	1525	14.982380677236	0.030995806184
0	1530	15.01337648342	0.067991481976
0	1535	15.081367965396	0.054539544101
0	1540	15.135907509497	0.044970872164
0	1545	15.180878381661	0.016610704113
0	1550	15.197489085774	0.035420801974
0	1555	15.232909887748	0.098871248728
0	1561	15.331781136476	0.079015454806
0	1567	15.410796591282	0.009829922597
0	1572	15.420626513879	0.033312812182
0	1577	15.453939326061	0.043340609636
0	1582	15.497279935697	0.000132359745
0	1586	15.497412295442	0.031146961388
0	1592	15.52855925683	0.0287791697
0	1597	15.55733842653	0.055923685632
0	1602	15.613262112162	0.001126615448
0	1606	15.61438872761	0.032325056508
0	1612	15.646713784118	0.036316320278
0	1617	15.683030104396	0.152363016292
0	1622	15.835393120688	0.125455949912
0	1627	15.9608490706	0.095953840192
0	1632	16.056802910792	0.040274051392
0	1637	16.097076962184	0.114388323781
0	1642	16.211465285965	0.021948615921
0	1647	16.233413901886	0.00129508358
0	1651	16.234708985466	0.156481817011
0	1657	16.391190802477	0.008505198928
0	1662	16.399696001405	0.038561460395
0	1667	16.4382574618	0.032398955073
0	1672	16.470656416873	0.011389406854
0	1677	16.482045823727	0.06634881819
0	1682	16.548394641917	0.011962795196
0	1687	16.560357437113	0.022026861264
0	1692	16.582384298377	0.035812945601
0	1697	16.618197243978	0.041557701535
0	1702	16.659754945513	0.007501513924
0	1706	16.667256459437	0.002326783774
0	1711	16.669583243211	0.066472281897
0	1717	16.736055525108	0.051143892369
0	1722	16.787199417477	0.154984066664
0	1727	16.942183484141	0.057160566732
0	1732	16.999344050873	0.065676333848
0	1737	17.065020384721	0.02517905305
0	1742	17.090199437771	0.001060435781
0	1746	17.091259873552	0.007348087711
0	1751	17.098607961263	0.13053510504
0	1757	17.229143066303	0.02693192153
0	1763	17.256074987833	0.018037461517
0	1768	17.27411244935	0.067058943776
0	1773	17.341171393126	0.083808716979
0	1778	17.424980110105	0.043890489888
0	1783	17.468870599993	0.019603478505
0	1788	17.488474078498	0.107464549953
0	1793	17.595938628451	0.029424486545
0	1798	17.625363114996	0.043226393588
0	1803	17.668589508584	0.121710099164
0	1808	17.790299607748	0.009798947118
0	1813	17.800098554866	0.089039837632
0	1818	17.889138392498	0.044793984113
0	1823	17.933932376611	0.076552664296
0	1828	18.010485040907	0.002769174064
0	1832	18.013254214971	0.021233000219
0	1838	18.03448721519	0.068014400463
0	1843	18.102501615653	0.053960194309
0	1848	18.156461809962	0.011222073835
0	1853	18.167683883797	0.009082513109
0	1858	18.176766396906	0.117523340322
0	1863	18.294289737228	0.002261426008
0	1867	18.296551163236	0.032081643753
0	1873	18.328632806989	0.140458238905
0	1878	18.469091045894	0.029138748292
0	1883	18.498229794186	0.142404619972
0	1888	18.640634414158	0.007313738231
0	1892	18.647948152389	0.029308343319
0	1898	18.677256495708	0.082433788127
0	1903	18.759690283835	0.000952535667
0	1907	18.760642819502	0.1244630591
0	1913	18.885105878602	0.020764896298
0	1918	18.9058707749	0.059304760552
0	1923	18.965175535452	0.017751054337
0	1928	18.982926589789	0.055062456849
0	1933	19.037989046638	0.047853776943
0	1938	19.085842823581	0.061313947182
0	1943	19.147156770763	0.16609767757
0	1948	19.313254448333	0.068288051132
0	1953	19.381542499465	0.02110062924
0	1958	19.402643128705	0.062692330483
0	1964	19.465335459188	0.05796678236
0	1969	19.523302241548	0.007713681574
0	1973	19.531015923122	0.009348137946
0	1979	19.540364061068	0.054884327817
0	1984	19.595248388885	0.079507160852
0	1989	19.674755549737	0.120596225217
0	1994	19.795351774954	0.206724335015
0	1999	20.002076109969	0.001648114989
0	2003	20.003724224958	0.018482351629
0	2009	20.022206576587	0.010216971469
0	2014	20.032423548056	0.033813731177
0	2019	20.066237279233	0.071848252022
0	2024	20.138085531255	0.060646089733
0	2029	20.198731620988	0.002138421099
0	2033	20.200870042087	0.001524137012
0	2036	20.202394179099	0.01635486898
0	2043	20.218749048079	0.040242762686
0	2049	20.258991810765	0.097582474329
0	2054	20.356574285094	0.030071547785
0	2059	20.386645832879	0.023025640238
0	2064	20.409671473117	0.100895111586
0	2069	20.510566584703	0.114627717087
0	2074	20.62519430179	1.7083071e-005
0	2078	20.625211384861	0.017061022954
0	2084	20.642272407815	0.004192869633
0	2088	20.646465277448	0.023927883811
0	2094	20.670393161259	0.036377536396
0	2099	20.706770697655	0.005791500768
0	2103	20.712562198423	0.015742525521
0	2109	20.728304723944	0.084268618579
0	2115	20.812573342523	0.033349774231
0	2120	20.845923116754	0.135516725455
0	2125	20.981439842209	0.009417630409
0	2130	20.990857472618	0.010112369573
0	2135	21.000969842191	0.127363202568
0	2140	21.128333044759	0.018640112055
0	2145	21.146973156814	0.045681282145
0	2150	21.192654438959	0.056150993592
0	2155	21.248805432551	0.071477200452
0	2160	21.320282633003	0.004120248059
0	2164	21.324402881062	0.008916566022
0	2169	21.333319447084	0.001663569997
0	2172	21.334983017081	0.009087123304
0	2179	21.344070140385	0.019768978021
0	2185	21.363839118406	0.042897521469
0	2190	21.406736639875	0.024437895562
0	2195	21.431174535437	0.020645955178
0	2200	21.451820490615	0.039810776498
0	2205	21.491631267113	0.081854869217
0	2210	21.57348613633	0.040252135652
0	2215	21.613738271982	0.061158716601
0	2220	21.674896988583	0.020033370004
0	2225	21.694930358587	0.011557466815
0	2230	21.706487825402	0.02772591136
0	2235	21.734213736762	0.064806825069
0	2240	21.799020561831	0.014508047831
0	2245	21.813528609662	0.025681000637
0	2250	21.839209610299	0.011322145482
0	2255	21.850531755781	0.003683695728
0	2259	21.854215451509	0.07514714135
0	2265	21.929362592859	0.08736055395
0	2271	22.016723146809	0.007517478651
0	2275	22.02424062546	0.006060672291
0	2280	22.030301297751	0.030001397985
0	2286	22.060302695736	0.016410297637
0	2291	22.076712993373	0.006535205434
0	2295	22.083248198807	0.014396550389
0	2301	22.097644749196	0.084718728057
0	2307	22.182363477253	0.005228857806
0	2311	22.187592335059	0.092731746014
0	2317	22.280324081073	0.088974718736
0	2322	22.369298799809	0.006095674917
0	2326	22.375394474726	0.028002381242
0	2332	22.403396855968	0.063823895958
0	2337	22.467220751926	0.134492160289
0	2342	22.601712912215	0.128402775597
0	2347	22.730115687812	0.012373441897
0	2352	22.742489129709	0.024390536532
0	2357	22.766879666241	0.052670921196
0	2362	22.819550587437	0.075054474649
0	2368	22.894605062086	0.010554877495
0	2373	22.905159939581	0.128775961143
0	2378	23.033935900724	0.011439282877
0	2383	23.045375183601	0.000248185243
0	2387	23.045623368844	0.179882416976
0	2393	23.22550578582	0.015912824956
0	2398	23.241418610776	0.009281527101
0	2403	23.250700137877	0.001860131697
0	2407	23.252560269574	0.057213644534
0	2413	23.309773914108	0.011106687473
0	2418	23.320880601581	0.074787923985
0	2423	23.395668525566	0.000563556323
0	2427	23.396232081889	0.055493133759
0	2433	23.451725215648	0.002506779144
0	2437	23.454231994792	0.015399598777
0	2443	23.469631593569	0.052397281459
0	2448	23.522028875028	0.020826755592
0	2453	23.54285563062	0.017034704281
0	2458	23.559890334901	0.087683690297
0	2463	23.647574025198	0.093026622147
0	2468	23.740600647345	0.002812049622
0	2472	23.743412696967	0.020270520459
0	2478	23.763683217426	0.026300820651
0	2483	23.789984038077	0.127110050896
0	2488	23.917094088973	0.05193151748
0	2493	23.969025606453	0.00704286206
0	2497	23.976068468513	0.169359572059
0	2503	24.145428040572	0.03981494995
0	2508	24.185242990522	0.010282130378
0	2513	24.1955251209	0.017437783365
0	2518	24.212962904265	0.085482866517
0	2523	24.298445770782	0.082034356697
0	2528	24.380480127479	0.009363170199
0	2533	24.389843297678	0.020600066423
0	2538	24.410443364101	0.042396898902
0	2543	24.452840263003	0.006450191794
0	2547	24.459290454797	0.009748867393
0	2553	24.46903932219	0.030403324465
0	2558	24.499442646655	0.012125666841
0	2563	24.511568313496	0.014376215384
0	2568	24.52594452888	0.03875559054
0	2573	24.56470011942	0.068370314966
0	2578	24.633070434386	0.006555110826
0	2582	24.639625545212	0.06657516753
0	2588	24.706200712742	0.059586528321
0	2593	24.765787241063	0.000512864211
0	2597	24.766300105274	0.056392217096
0	2603	24.82269232237	0.000149822729
0	2607	24.822842145099	0.021974734752
0	2613	24.844816879851	0.125055712906
0	2618	24.969872592757	0.056252113752
0	2623	25.026124706509	0.019494973897
0	2628	25.045619680406	0.004817112706
0	2632	25.050436793112	0.017575774242
0	2638	25.068012567354	0.006769381027
0	2642	25.074781948381	0.015799011587
0	2649	25.090580959968	0.208489332335
0	2654	25.299070292303	0.014099842623
0	2659	25.313170134926	0.037540610525
0	2664	25.350710745451	0.074664880788
0	2669	25.425375626239	0.015710306714
0	2674	25.441085932953	0.015274551147
0	2679	25.4563604841	0.060277776822
0	2684	25.516638260922	0.063467736829
0	2689	25.580105997751	0.112634102296
0	2694	25.692740100047	0.055933929955
0	2699	25.748674030002	0.081264226861
0	2704	25.829938256863	0.039984730575
0	2709	25.869922987438	0.006973643764
0	2713	25.876896631202	0.057406887851
0	2719	25.934303519053	0.018870935978
0	2724	25.953174455031	0.00956001822
0	2729	25.962734473251	0.08151259543
0	2734	26.044247068681	0.031229406603
0	2739	26.075476475284	0.127004345239
0	2744	26.202480820523	0.034056870349
0	2749	26.236537690872	0.069331368359
0	2754	26.305869059231	0.001389698582
0	2758	26.307258757813	0.007757454812
0	2763	26.315016212625	0.012310267987
0	2768	26.327326480612	0.127037749893
0	2774	26.454364230505	0.135459160856
0	2779	26.589823391361	0.004515565158
0	2783	26.594338956519	0.053741509517
0	2790	26.648080466036	0.084953148382
0	2795	26.733033614418	0.192364426632
0	2800	26.92539804105	0.125927966464
0	2805	27.051326007514	0.023047361184
0	2810	27.074373368698	0.04800186886
0	2815	27.122375237558	0.0718563107
0	2820	27.194231548258	0.045716756532
0	2825	27.23994830479	0.045772698935
0	2830	27.285721003725	0.018585704638
0	2835	27.304306708363	0.046076772249
0	2840	27.350383480612	0.001267048006
0	2844	27.351650528618	0.006012859611
0	2847	27.357663388229	0.008347918483
0	2854	27.366011306712	0.01256434342
0	2859	27.378575650132	0.039606072914
0	2865	27.418181723046	0.003750323969
0	2869	27.421932047015	0.067706037788
0	2875	27.489638084803	0.03519047166
0	2880	27.524828556463	0.031523571571
0	2885	27.556352128034	0.021163573325
0	2890	27.577515701359	0.00160591339
0	2894	27.579121614749	0.010952630765
0	2899	27.590074245514	0.087287042053
0	2905	27.677361287567	0.023475960835
0	2910	27.700837248402	0.028184370285
0	2915	27.729021618687	0.037370319265
0	2920	27.766391937952	0.020493218155
0	2925	27.786885156107	0.062036495339
0	2930	27.848921651446	0.177688760117
0	2935	28.026610411563	0.044576410542
0	2940	28.071186822105	0.001590755257
0	2944	28.072777577362	0.050956470881
0	2950	28.123734048243	0.00285122131
0	2954	28.126585269553	0.046287000404
0	2960	28.172872269957	0.164794497442
0	2965	28.337666767399	0.023386303186
0	2970	28.361053070585	0.093613097395
0	2975	28.45466616798	0.019693206041
0	2980	28.474359374021	0.044779279758
0	2985	28.519138653779	0.041178979181
0	2990	28.56031763296	0.030022873096
0	2996	28.590340506056	0.06924746361
0	3001	28.659587969666	0.039789581515
0	3006	28.699377551181	0.125783241831
0	3011	28.825160793012	0.034038418363
0	3016	28.859199211375	0.087916958465
0	3021	28.94711616984	0.143223209149
0	3026	29.090339378989	0.040341261001
0	3031	29.13068063999	0.031227977548
0	3036	29.161908617538	0.087097611892
0	3041	29.24900622943	0.008229324888
0	3046	29.257235554318	0.001431912114
0	3050	29.258667466432	0.003629088084
0	3053	29.262296554516	0.07985599303
0	3061	29.342152547546	0.021987465579
0	3066	29.364140013125	0.011125231692
0	3071	29.375265244817	0.07289250082
0	3076	29.448157745637	0.057892796022
0	3082	29.506050541659	0.020964178394
0	3087	29.527014720053	0.087202711866
0	3092	29.614217431919	0.017149979833
0	3097	29.631367411752	0.018914127744
0	3103	29.650281539496	0.005126681452
0	3107	29.655408220948	0.025520236284
0	3113	29.680928457232	0.015692352721
0	3118	29.696620809953	0.211987818883
0	3123	29.908608628836	0.049143268544
0	3128	29.95775189738	0.014622315957
0	3133	29.972374213337	0.05649631328
0	3138	30.028870526617	0.070394149792
0	3143	30.099264676409	0.134999888848
0	3148	30.234264565257	0.026048812848
0	3153	30.260313378105	0.056168183856
0	3158	30.316481561961	0.018933608251
0	3163	30.335415170212	0.081137583602
0	3168	30.416552753814	0.073596080778
0	3173	30.490148834592	0.030170317612
0	3178	30.520319152204	0.029879176763
0	3183	30.550198328967	0.038223165839
0	3188	30.588421494806	0.06190854215
0	3193	30.650330036956	0.002850281328
0	3197	30.653180318284	0.012564321343
0	3202	30.665744639627	0.007369093772
0	3207	30.673113733399	0.086817253417
0	3213	30.759930986816	0.048030049942
0	3218	30.807961036758	0.063075525788
0	3223	30.871036562546	0.043751801589
0	3228	30.914788364135	0.034581548943
0	3233	30.949369913078	0.002819331644
0	3237	30.952189244722	0.078403047279
0	3244	31.030592292001	0.00898646161
0	3249	31.039578753611	0.126102597712
0	3254	31.165681351323	0.000691327161
0	3258	31.166372678484	0.077414536059
0	3264	31.243787214543	0.003350764429
0	3268	31.247137978972	0.017679473794
0	3274	31.264817452766	0.008821612094
0	3279	31.27363906486	0.063174652514
0	3284	31.336813717374	0.05322696758
0	3289	31.390040684954	0.047732974064
0	3294	31.437773659018	0.223639269187
0	3299	31.661412928205	0.092044235243
0	3304	31.753457163448	0.042635931147
0	3309	31.796093094595	0.025923402524
0	3314	31.822016497119	0.005028462488
0	3318	31.827044959607	0.030198364854
0	3324	31.857243324461	0.021280206891
0	3329	31.878523531352	0.004922808348
0	3333	31.8834463397	0.034506598804
0	3339	31.917952938504	0.012336198135
0	3344	31.930289136639	0.056120108742
0	3350	31.986409245381	0.037681230225
0	3355	32.024090475606	0.033491407026
0	3360	32.057581882632	0.037630670961
0	3365	32.095212553593	0.09371708677
0	3370	32.188929640363	0.062426973252
0	3375	32.251356613615	0.179216155196
0	3380	32.430572768811	0.016871111598
0	3385	32.447443880409	0.01212386744
0	3390	32.459567747849	0.006168973649
0	3394	32.465736721498	0.030515289967
0	3400	32.496252011465	0.010366685351
0	3405	32.506618696816	0.025256048976
0	3410	32.531874745792	0.028433252444
0	3415	32.560307998236	0.02037387349
0	3420	32.580681871726	0.010261643694
0	3425	32.59094351542	0.061824878084
0	3430	32.652768393504	0.006588975873
0	3434	32.659357369377	0.115429382391
0	3440	32.774786751768	0.064553834287
0	3445	32.839340586055	0.003503160546
0	3449	32.842843746601	0.120490566486
0	3455	32.963334313087	0.014871198246
0	3460	32.978205511333	0.003142304014
0	3464	32.981347815347	0.00546123831
0	3469	32.986809053657	0.002136212468
0	3472	32.988945266125	0.009742074793
0	3477	32.998687340918	0.016823585849
0	3484	33.015510926767	0.119421911743
0	3492	33.13493283851	0.0433326127
0	3497	33.17826545121	0.092931849068
0	3502	33.271197300278	0.139242307524
0	3507	33.410439607802	0.007445959082
0	3511	33.417885566884	0.043576055569
0	3517	33.461461622453	0.023163220553
0	3522	33.484624843006	0.05696917716
0	3527	33.541594020166	0.007650057451
0	3531	33.549244077617	0.052488069594
0	3537	33.601732147211	0.014747010633
0	3542	33.616479157844	0.145481935295
0	3547	33.761961093139	0.067591916258
0	3552	33.829553009397	0.097143775277
0	3557	33.926696784674	0.042782985644
0	3562	33.969479770318	0.022393161499
0	3567	33.991872931817	0.043485692439
0	3572	34.035358624256	0.086347158131
0	3577	34.121705782387	0.014085331586
0	3582	34.135791113973	0.015137544305
0	3587	34.150928658278	0.023119295511
0	3592	34.174047953789	0.21356247345
0	3597	34.387610427239	0.01679418731
0	3602	34.404404614549	0.025524060907
0	3607	34.429928675456	0.002374664459
0	3611	34.432303339915	0.040422313885
0	3617	34.4727256538	0.110506956574
0	3622	34.583232610374	0.052175089041
0	3627	34.635407699415	0.029552612869
0	3632	34.664960312284	0.018843947288
0	3637	34.683804259572	0.000944225259
0	3641	34.684748484831	0.102082775547
0	3647	34.786831260378	0.034069398018
0	3652	34.820900658396	0.229230369565
0	3657	35.050131027961	0.028564507508
0	3662	35.078695535469	0.042141385577
0	3667	35.120836921046	0.013158132693
0	3672	35.133995053739	0.012601006019
0	3677	35.146596059758	0.037034277372
0	3682	35.18363033713	0.016829795695
0	3687	35.200460132825	0.227032190597
0	3692	35.427492323422	0.085221173206
0	3697	35.512713496628	0.056596475514
0	3702	35.569309972142	0.041165665918
0	3707	35.61047563806	0.170670483769
0	3712	35.781146121829	0.039087172279
0	3717	35.820233294108	0.014144573764
0	3722	35.834377867872	0.008100100376
0	3727	35.842477968248	0.060259075432
0	3732	35.90273704368	0.067400791759
0	3737	35.970137835439	0.064375886966
0	3742	36.034513722405	0.008510687928
0	3747	36.043024410333	0.035484959714
0	3752	36.078509370047	0.010335699955
0	3757	36.088845070002	0.013566035564
0	3762	36.102411105566	0.044108271646
0	3767	36.146519377212	0.035221688322
0	3772	36.181741065534	0.048267137375
0	3777	36.230008202909	0.108004722876
0	3782	36.338012925785	0.010522772924
0	3787	36.348535698709	0.122386597499
0	3792	36.470922296208	0.136784677431
0	3797	36.607706973639	0.012981364401
0	3802	36.62068833804	0.061570504171
0	3808	36.682258842211	0.037100684348
0	3813	36.719359526559	0.080902871466
0	3819	36.800262398025	0.006129930345
0	3823	36.80639232837	0.075878339385
0	3829	36.882270667755	0.004726652481
0	3833	36.886997320236	0.037043957673
0	3839	36.924041277909	0.016620117432
0	3844	36.940661395341	0.049952637101
0	3849	36.990614032442	0.173188994321
0	3854	37.163803026763	0.000945882886
0	3858	37.164748909649	0.002382051851
0	3861	37.1671309615	0.043735048205
0	3869	37.210866009705	0.025797480725
0	3874	37.23666349043	0.047046475828
0	3879	37.283709966258	0.099255721053
0	3884	37.382965687311	0.055100276346
0	3889	37.438065963657	0.00913569958
0	3894	37.447201663237	0.011383942719
0	3899	37.458585605956	0.141094478279
0	3904	37.599680084235	0.019341501876
0	3909	37.619021586111	0.096899123233
0	3914	37.715920709344	0.181497430329
0	3919	37.897418139673	0.207597117442
0	3924	38.105015257115	0.015997106318
0	3929	38.121012363433	0.010577552303
0	3934	38.131589915736	0.060195525148
0	3939	38.191785440884	0.146363869215
0	3944	38.338149310099	0.015415007543
0	3949	38.353564317642	0.078980744736
0	3954	38.432545062378	0.042513149079
0	3959	38.475058211457	0.021850105482
0	3964	38.496908316939	0.102841857873
0	3969	38.599750174812	0.033999803457
0	3974	38.633749978269	0.084936047074
0	3979	38.718686025343	0.012635030654
0	3984	38.731321055997	0.001483293348
0	3988	38.732804349345	0.075857228009
0	3994	38.808661577354	0.027613732242
0	3999	38.836275309596	0.020839988252
0	4004	38.857115297848	0.025011607349
0	4009	38.882126905197	0.012591321151
0	4014	38.894718226348	0.115292335477
0	4019	39.010010561825	0.064810497783
0	4024	39.074821059608	0.001823137725
0	4028	39.076644197333	0.011037489502
0	4033	39.087681686835	0.030329570731
0	4039	39.118011257566	0.053057422379
0	4044	39.171068679945	0.199058154658
0	4049	39.370126834603	0.024744315818
0	4054	39.394871150421	0.00185421739
0	4058	39.396725367811	0.107856083461
0	4064	39.504581451272	0.055547576187
0	4069	39.560129027459	0.126967617868
0	4074	39.687096645327	0.06634777437
0	4079	39.753444419697	0.03731330928
0	4084	39.790757728977	0.005540265367
0	4088	39.796297994344	0.045841835125
0	4094	39.842139829469	0.01513755294
0	4099	39.857277382409	0.253282545826
0	4104	40.110559928235	0.032229527562
0	4109	40.142789455797	0.037078946871
0	4114	40.179868402668	0.011225666996
0	4119	40.191094069664	0.005547801945
0	4123	40.196641871609	0.134917125333
0	4129	40.331558996942	0.06490092037
0	4134	40.396459917312	0.062982138984
0	4139	40.459442056296	0.148552881424
0	4144	40.60799493772	0.005328690316
0	4148	40.613323628036	0.010489113658
0	4154	40.623812741694	0.103514779983
0	4159	40.727327521677	0.046119182473
0	4164	40.77344670415	0.016998231068
0	4169	40.790444935218	0.000206654504
0	4173	40.790651589722	0.025944534237
0	4179	40.816596123959	0.068033543586
0	4184	40.884629667545	0.048333616167
0	4189	40.932963283712	0.012310379941
0	4194	40.945273663653	0.034134806308
0	4199	40.979408469961	0.000879080226
0	4203	40.980287550187	0.038346781258
0	4209	41.018634331445	0.067183648121
0	4214	41.085817979566	0.141457439031
0	4220	41.227275418597	0.118578373896
0	4225	41.345853792493	0.02447439917
0	4230	41.370328191663	0.04656483222
0	4235	41.416893023883	0.036839241827
0	4240	41.45373226571	0.008765666637
0	4245	41.462497932347	0.010734880524
0	4250	41.473232812871	0.03835608509
0	4255	41.511588897961	0.001712058427
0	4259	41.513300956388	0.156453521159
0	4266	41.669754477547	0.036774701784
0	4271	41.706529179331	0.01981807905
0	4276	41.726347258381	0.00526488222
0	4280	41.731612140601	0.051100770026
0	4286	41.782712910627	0.056552181964
0	4291	41.839265092591	0.040064778838
0	4296	41.879329871429	0.013236014312
0	4301	41.892565885741	0.184497863102
0	4306	42.077063748843	0.035470631682
0	4311	42.112534380525	0.006470543418
0	4315	42.119004923943	0.084496442802
0	4321	42.203501366745	0.03299174954
0	4326	42.236493116285	0.059280890535
0	4331	42.29577400682	0.040871391808
0	4336	42.336645398628	0.027869953305
0	4341	42.364515351933	0.013490672565
0	4346	42.378006024498	0.05725642786
0	4351	42.435262452358	0.061873749689
0	4356	42.497136202047	0.019362089112
0	4361	42.516498291159	0.385420813808
0	4366	42.901919104967	0.120142825606
0	4371	43.022061930573	0.129578338062
0	4377	43.151640268635	0.018557495034
0	4382	43.170197763669	0.000327756073
0	4386	43.170525519742	0.047794340272
0	4392	43.218319860014	0.028381169887
0	4397	43.246701029901	0.0293953628
0	4403	43.276096392701	0.000329005249
0	4407	43.27642539795	0.002669778629
0	4410	43.279095176579	0.130933135239
0	4419	43.410028311818	0.026010995729
0	4424	43.436039307547	0.06658261275
0	4429	43.502621920297	0.044506867164
0	4434	43.547128787461	0.011213774682
0	4439	43.558342562143	0.032066356764
0	4444	43.590408918907	0.015907146757
0	4449	43.606316065664	0.138444058075
0	4454	43.744760123739	0.121312204399
0	4459	43.866072328138	0.006856278589
0	4463	43.872928606727	0.051207076062
0	4469	43.924135682789	0.069588494193
0	4474	43.993724176982	0.019089139205
0	4479	44.012813316187	0.048752358157
0	4484	44.061565674344	0.091450125283
0	4489	44.153015799627	0.02196889756
0	4494	44.174984697187	0.016783961846
0	4499	44.191768659033	0.040257538371
0	4504	44.232026197404	0.070232900526
0	4509	44.30225909793	0.006952676966
0	4513	44.309211774896	0.079353684204
0	4519	44.3885654591	0.044965498376
0	4524	44.433530957476	0.091094196895
0	4529	44.524625154371	0.007399392675
0	4533	44.532024547046	0.000838897353
0	4538	44.532863444399	0.044528445234
0	4544	44.577391889633	0.015944853179
0	4549	44.593336742812	0.089102881902
0	4554	44.682439624714	0.026708498737
0	4559	44.709148123451	0.026240550068
0	4565	44.735388673519	0.001769034813
0	4569	44.737157708332	0.002956271849
0	4572	44.740113980181	0.072049815544
0	4580	44.812163795725	0.012678598276
0	4585	44.824842394001	0.016000276507
0	4590	44.840842670508	0.041917079193
0	4595	44.882759749701	0.042955408399
0	4600	44.9257151581	0.047663933641
0	4605	44.973379091741	0.046250014995
0	4610	45.019629106736	0.148106237288
0	4615	45.167735344024	0.052088796398
0	4620	45.219824140422	0.113966310769
0	4625	45.333790451191	0.024774002697
0	4630	45.358564453888	0.017209831562
0	4635	45.37577428545	0.050006909703
0	4640	45.425781195153	0.006061868702
0	4644	45.431843063855	0.021819415859
0	4650	45.453662479714	0.08593690525
0	4655	45.539599384964	0.417398770257
0	4660	45.956998155221	0.037083452034
0	4665	45.994081607255	0.014296889364
0	4670	46.008378496619	0.168226566456
0	4675	46.176605063075	0.23032495552
0	4680	46.406930018595	0.003615960155
0	4684	46.41054597875	0.079872652409
0	4690	46.490418631159	0.021699135866
0	4695	46.512117767025	0.02623213252
0	4700	46.538349899545	0.067954646913
0	4705	46.606304546458	0.011070334318
0	4710	46.617374880776	0.04136298798
0	4715	46.658737868756	0.006944764246
0	4719	46.665682633002	0.084729367732
0	4725	46.750412000734	0.07383148858
0	4730	46.824243489314	0.068508719436
0	4735	46.89275220875	0.03549396882
0	4740	46.92824617757	0.022055860299
0	4745	46.950302037869	0.076230642434
0	4750	47.026532680303	0.024046583826
0	4755	47.050579264129	0.011600592868
0	4760	47.062179856997	0.012909098546
0	4765	47.075088955543	0.002337156739
0	4769	47.077426112282	0.082585350189
0	4775	47.160011462471	0.005524131605
0	4779	47.165535594076	0.028555815334
0	4785	47.19409140941	0.043043771398
0	4790	47.237135180808	0.093727557025
0	4796	47.330862737833	0.108043350303
0	4801	47.438906088136	0.147971661269
0	4806	47.586877749405	0.030203474142
0	4811	47.617081223547	0.020904234199
0	4816	47.637985457746	0.005231241797
0	4820	47.643216699543	0.022907348077
0	4826	47.66612404762	0.007984199736
0	4831	47.674108247356	0.032518305026
0	4836	47.706626552382	0.014717218608
0	4841	47.72134377099	0.069074260145
0	4846	47.790418031135	0.015222407069
0	4851	47.805640438204	0.000849343802
0	4855	47.806489782006	0.001325009701
0	4858	47.807814791707	0.028046420431
0	4866	47.835861212138	0.01135561033
0	4871	47.847216822468	0.081145392427
0	4876	47.928362214895	0.064575995125
0	4881	47.99293821002	0.008013713498
0	4886	48.000951923518	0.057022595918
0	4891	48.057974519436	0.070618517736
0	4896	48.128593037172	0.006062565551
0	4900	48.134655602723	0.021438934944
0	4906	48.156094537667	0.068856263815
0	4911	48.224950801482	0.002201773086
0	4915	48.227152574568	0.041475094811
0	4921	48.268627669379	0.06445674386
0	4926	48.333084413239	0.010208575599
0	4931	48.343292988838	0.097469166471
0	4936	48.440762155309	0.002518700345
0	4940	48.443280855654	0.188758911793
0	4946	48.632039767447	0.076164687353
0	4951	48.7082044548	0.008243489761
0	4956	48.716447944561	0.024528827207
0	4961	48.740976771768	0.044764616206
0	4966	48.785741387974	0.165454526614
0	4971	48.951195914588	0.015896023216
0	4976	48.967091937804	0.170376123634
0	4982	49.137468061438	0.10761782795
0	4987	49.245085889388	0.059851774701
0	4992	49.304937664089	0.00479318963
0	4996	49.309730853719	0.112913590781
0	5002	49.4226444445	0.009992145639
0	5007	49.432636590139	0.035287572449
0	5012	49.467924162588	0.004077607725
0	5016	49.472001770313	0.000880764439
0	5019	49.472882534752	0.01758252503
0	5026	49.490465059782	0.0845209113
0	5033	49.574985971082	0.15288163074
0	5038	49.727867601822	0.012803272679
0	5043	49.740670874501	0.022876757296
0	5048	49.763547631797	0.034915629323
0	5053	49.79846326112	0.041163445224
0	5058	49.839626706344	0.020449636973
0	5063	49.860076343317	0.025229331656
0	5068	49.885305674973	0.115143196467
0	5074	50.00044887144	0.197119400573
0	5080	50.197568272013	0.019907966666
0	5085	50.217476238679	0.062822759973
0	5090	50.280298998652	0.079168104147
0	5095	50.359467102799	0.092164344477
0	5100	50.451631447276	0.013583134257
0	5105	50.465214581533	0.006817793301
0	5109	50.472032374834	0.000802329961
0	5112	50.472834704795	0.138088998044
0	5121	50.610923702839	0.021384791639
0	5126	50.632308494478	0.016046177432
0	5131	50.64835467191	0.027350940387
0	5136	50.675705612297	0.058173247365
0	5141	50.733878859662	0.124934473634
0	5147	50.858813333296	0.017644782464
0	5153	50.87645811576	0.008799480244
0	5158	50.885257596004	0.05237796059
0	5163	50.937635556594	0.006797915181
0	5167	50.944433471775	0.00182531191
0	5172	50.946258783685	0.068953099934
0	5178	51.015211883619	0.024733947829
0	5183	51.039945831448	0.066536752268
0	5188	51.106482583716	0.150957315353
0	5193	51.257439899069	0.011914361078
0	5198	51.269354260147	0.007698476947
0	5202	51.277052737094	0.053475056512
0	5208	51.330527793606	0.023029686635
0	5213	51.353557480241	0.054921919745
0	5218	51.408479399986	0.134334606171
0	5223	51.542814006157	0.000947529818
0	5227	51.543761535975	0.000422115718
0	5230	51.544183651693	0.018180577542
0	5237	51.562364229235	0.091181182117
0	5243	51.653545411352	0.000823428317
0	5247	51.654368839669	0.091001411178
0	5253	51.745370250847	0.01865673356
0	5258	51.764026984407	0.076019384855
0	5263	51.840046369262	0.019868419996
0	5268	51.859914789258	0.107065375793
0	5273	51.966980165051	0.065833878334
0	5278	52.032814043385	0.023888994289
0	5283	52.056703037674	0.010299725854
0	5288	52.067002763528	0.017639730482
0	5293	52.08464249401	0.008840160507
0	5298	52.093482654517	0.037267934945
0	5303	52.130750589462	0.013762980097
0	5308	52.144513569559	0.017388273813
0	5313	52.161901843372	0.131889177774
0	5318	52.293791021146	0.01417016288
0	5323	52.307961184026	0.178155743864
0	5328	52.48611692789	0.003185733285
0	5332	52.489302661175	0.113809195025
0	5338	52.6031118562	0.021799568181
0	5343	52.624911424381	0.048073913888
0	5348	52.672985338269	0.008533452771
0	5353	52.68151879104	0.000346457172
0	5357	52.681865248212	0.071335403965
0	5363	52.753200652177	0.044462516428
0	5368	52.797663168605	0.056714202298
0	5373	52.854377370903	0.079111447831
0	5379	52.933488818734	0.099061632263
0	5385	53.032550450997	0.0490817442
0	5390	53.081632195197	0.032530081577
0	5395	53.114162276774	0.128787836522
0	5401	53.242950113296	0.013937722661
0	5406	53.256887835957	0.004565681628
0	5410	53.261453517585	0.071408529604
0	5416	53.332862047189	0.002226341583
0	5420	53.335088388772	0.010565906531
0	5425	53.345654295303	0.075261162464
0	5431	53.420915457767	0.024133856254
0	5436	53.445049314021	0.085507145493
0	5441	53.530556459514	0.048746399325
0	5446	53.579302858839	0.009270110926
0	5451	53.588572969765	0.050366584689
0	5456	53.638939554454	0.000397246459
0	5460	53.639336800913	0.032872072596
0	5466	53.672208873509	0.265529764772
0	5471	53.937738638281	0.050593071766
0	5476	53.988331710047	0.040527382508
0	5481	54.028859092555	0.011839076503
0	5486	54.040698169058	0.119021107337
0	5491	54.159719276395	0.032791904896
0	5496	54.192511181291	0.017380397864
0	5501	54.209891579155	0.018921232566
0	5506	54.228812811721	0.021313940915
0	5511	54.250126752636	0.009306666463
0	5516	54.259433419099	0.103575441315
0	5522	54.363008860414	0.003623032446
0	5526	54.36663189286	0.055836685937
0	5532	54.422468578797	0.011325652774
0	5537	54.433794231571	0.018331907477
0	5542	54.452126139048	0.026126150598
0	5547	54.478252289646	0.045709422274
0	5552	54.52396171192	0.054606928968
0	5557	54.578568640888	0.000394506131
0	5561	54.578963147019	0.015370435434
0	5567	54.594333582453	0.008814661257
0	5572	54.60314824371	0.105820710252
0	5577	54.708968953962	0.037497185846
0	5582	54.746466139808	0.003583538695
0	5586	54.750049678503	0.109842705196
0	5592	54.859892383699	0.081291551962
0	5597	54.941183935661	0.023577595692
0	5602	54.964761531353	0.031628676977
0	5607	54.99639020833	0.002222345719
0	5611	54.998612554049	0.019087436534
0	5617	55.017699990583	0.001383059191
0	5621	55.019083049774	0.007577478786
0	5626	55.02666052856	0.017820627152
0	5632	55.044481155712	0.045365554053
0	5637	55.089846709765	0.024324309263
0	5642	55.114171019028	0.0422135246
0	5647	55.156384543628	0.017956063895
0	5652	55.174340607523	0.058147028156
0	5657	55.232487635679	0.003464613985
0	5661	55.235952249664	0.096346156268
0	5667	55.332298405932	0.019467844215
0	5672	55.351766250147	0.030905325437
0	5677	55.382671575584	0.024400602953
0	5682	55.407072178537	0.148600594433
0	5687	55.55567277297	0.025504035944
0	5692	55.581176808914	0.211296808466
0	5697	55.79247361738	0.000292854229
0	5701	55.792766471609	0.006324454338
0	5704	55.799090925947	0.031873609567
0	5712	55.830964535514	0.039547197479
0	5718	55.870511732993	0.0231580622
0	5723	55.893669795193	0.045702586639
0	5728	55.939372381832	0.015135525357
0	5733	55.954507907189	0.00075214575
0	5737	55.955260052939	0.001892900312
0	5740	55.957152953251	0.007975925226
0	5745	55.965128878477	0.009313062218
0	5750	55.974441940695	0.067913459232
0	5758	56.042355399927	0.061076607188
0	5763	56.103432007115	0.023335480147
0	5768	56.126767487262	0.028650406765
0	5773	56.155417894027	0.08405203775
0	5778	56.239469931777	0.08540861423
0	5783	56.324878546007	0.247304307678
0	5788	56.572182853685	0.090736633448
0	5793	56.662919487133	0.044166716236
0	5798	56.707086203369	0.030292463079
0	5803	56.737378666448	0.001049457235
0	5807	56.738428123683	0.253454528803
0	5814	56.991882652486	0.008419174605
0	5819	57.000301827091	0.001429463262
0	5823	57.001731290353	0.054512323619
0	5829	57.056243613972	0.015233525804
0	5834	57.071477139776	0.073425436631
0	5839	57.144902576407	0.005878126285
0	5843	57.150780702692	0.000466083396
0	5846	57.151246786088	0.10055494208
0	5854	57.251801728168	0.050469398841
0	5859	57.302271127009	0.063238427406
0	5864	57.365509554415	0.038379928118
0	5869	57.403889482533	0.075768755342
0	5875	57.479658237875	0.007030508218
0	5880	57.486688746093	0.010057527531
0	5886	57.496746273624	0.004431669171
0	5890	57.501177942795	0.044846947139
0	5896	57.546024889934	0.153336417509
0	5901	57.699361307443	0.117762945905
0	5906	57.817124253348	0.159988905531
0	5911	57.977113158879	0.114780000178
0	5916	58.091893159057	0.019189577858
0	5921	58.111082736915	0.024131127196
0	5926	58.135213864111	0.025046916092
0	5931	58.160260780203	0.069201586558
0	5936	58.229462366761	0.00588807051
0	5940	58.235350437271	0.066543696142
0	5946	58.301894133413	0.014304180677
0	5951	58.31619831409	0.019329321947
0	5956	58.335527636037	0.01952447661
0	5961	58.355052112647	0.022044245347
0	5966	58.377096357994	0.058729199125
0	5971	58.435825557119	0.008120126234
0	5976	58.443945683353	0.028014918607
0	5981	58.47196060196	0.021409644081
0	5986	58.493370246041	0.049018123474
0	5991	58.542388369515	0.030779539486
0	5996	58.573167909001	0.052946594505
0	6001	58.626114503506	0.019555717768
0	6006	58.645670221274	0.03782512965
0	6011	58.683495350924	0.039637461971
0	6016	58.723132812895	0.038771171973
0	6021	58.761903984868	0.019703916862
0	6026	58.78160790173	3.076102e-006
0	6030	58.781610977832	0.004510047116
0	6033	58.786121024948	0.050345914055
0	6041	58.836466939003	0.041877802282
0	6046	58.878344741285	0.058699379491
0	6051	58.937044120776	0.037078341411
0	6056	58.974122462187	0.218675313585
0	6062	59.192797775772	0.082644384073
0	6067	59.275442159845	0.031229865326
0	6072	59.306672025171	0.096183116684
0	6077	59.402855141855	0.057381304397
0	6082	59.460236446252	0.023119201348
0	6087	59.4833556476	0.027262311705
0	6092	59.510617959305	0.019647263961
0	6097	59.530265223266	0.011907073717
0	6102	59.542172296983	0.068643918046
0	6107	59.610816215029	0.007631802397
0	6111	59.618448017426	0.101399192484
0	6119	59.71984720991	0.004740278765
0	6123	59.724587488675	0.034718663348
0	6129	59.759306152023	0.012613786556
0	6134	59.771919938579	0.008658087817
0	6139	59.780578026396	0.026842835614
0	6144	59.80742086201	0.015186529287
0	6149	59.822607391297	0.002810226477
0	6153	59.825417617774	0.073683141904
0	6159	59.899100759678	0.000305714989
0	6163	59.899406474667	0.013170450532
0	6168	59.912576925199	0.074628396977
0	6174	59.987205322176	0.152798536589
0	6179	60.140003858765	0.110590771756
0	6185	60.250594630521	0.033698122898
0	6190	60.284292753419	0.017524135033
0	6195	60.301816888452	0.037798436149
0	6200	60.339615324601	0.025541536208
0	6205	60.365156860809	0.065482027805
0	6210	60.430638888614	0.130189071232
0	6215	60.560827959846	0.002943696223
0	6219	60.563771656069	0.025490535464
0	6225	60.589262191533	0.017279238761
0	6230	60.606541430294	0.033709261122
0	6235	60.640250691416	0.100000376725
0	6240	60.740251068141	0.003491516947
0	6244	60.743742585088	0.027665406872
0	6250	60.77140799196	0.035365661992
0	6255	60.806773653952	0.171067239069
0	6260	60.977840893021	0.062247515443
0	6265	61.040088408464	0.003315436074
0	6269	61.043403844538	0.01644283934
0	6275	61.059846683878	8.9046582e-005
0	6279	61.05993573046	0.030924847116
0	6285	61.090860577576	0.000985942954
0	6289	61.09184652053	0.003134323535
0	6292	61.094980844065	0.164059403153
0	6301	61.259040247218	0.046302881983
0	6306	61.305343129201	0.068683241089
0	6311	61.37402637029	0.061143620563
0	6316	61.435169990853	0.110904412325
0	6321	61.546074403178	0.001189104658
0	6325	61.547263507836	0.293686279834
0	6331	61.84094978767	0.032481482377
0	6336	61.873431270047	0.022719925509
0	6341	61.896151195556	0.004489405467
0	6345	61.900640601023	0.000163482887
0	6348	61.90080408391	0.195904618747
0	6356	62.096708702657	0.112925760238
0	6361	62.209634462895	0.028441844113
0	6366	62.238076307008	0.042520709518
0	6371	62.280597016526	0.034555757083
0	6376	62.315152773609	0.082223483975
0	6381	62.397376257584	0.033733130921
0	6386	62.431109388505	0.02160389551
0	6391	62.452713284015	0.134809984092
0	6396	62.587523268107	0.019841908132
0	6401	62.607365176239	0.051174949006
0	6406	62.658540125245	0.066341655608
0	6411	62.724881780853	0.065166081463
0	6416	62.790047862316	0.015641197367
0	6421	62.805689059683	0.044847399653
0	6426	62.850536459336	0.041126986423
0	6431	62.891663445759	0.036876280425
0	6436	62.928539726184	0.029757350233
0	6441	62.958297076417	0.085640951422
0	6446	63.043938027839	0.008655433028
0	6451	63.052593460867	0.089924214166
0	6457	63.142517675033	0.051414282351
0	6462	63.193931957384	0.044936293164
0	6467	63.238868250548	0.092749751262
0	6472	63.33161800181	0.036266431001
0	6477	63.367884432811	0.001910710506
0	6481	63.369795143317	0.026516593933
0	6487	63.39631173725	0.019456110075
0	6492	63.415767847325	0.035946196577
0	6497	63.451714043902	0.003578237614
0	6501	63.455292281516	0.002970460809
0	6504	63.458262742325	0.023659597666
0	6512	63.481922339991	0.015582892115
0	6517	63.497505232106	0.002225368022
0	6521	63.499730600128	0.08065689673
0	6527	63.580387496858	0.003021035985
0	6531	63.583408532843	0.135083723945
0	6538	63.718492256788	0.069332318866
0	6543	63.787824575654	0.000603780513
0	6547	63.788428356167	0.054859013456
0	6553	63.843287369623	0.000853620412
0	6557	63.844140990035	0.049634658568
0	6563	63.893775648603	0.133441938358
0	6568	64.027217586961	0.017888556676
0	6573	64.045106143637	0.093368321749
0	6578	64.138474465386	0.01070174835
0	6583	64.149176213736	0.034004230509
0	6588	64.183180444245	0.006050277503
0	6592	64.189230721748	0.142051570053
0	6598	64.331282291801	0.047823934313
0	6603	64.379106226114	0.014406491575
0	6608	64.393512717689	0.043151991956
0	6613	64.436664709645	0.019013554604
0	6618	64.455678264249	0.093886594048
0	6623	64.549564858297	0.142509901061
0	6628	64.692074759358	0.106525671701
0	6633	64.798600431059	0.020522926046
0	6638	64.819123357105	0.131874548487
0	6644	64.950997905592	0.192557059292
0	6649	65.143554964884	0.010522082252
0	6654	65.154077047136	0.007635570229
0	6658	65.161712617365	0.027616950821
0	6664	65.189329568186	0.046925231389
0	6669	65.236254799575	0.008983017702
0	6674	65.245237817277	0.046524776198
0	6679	65.291762593475	0.038437189967
0	6684	65.330199783442	0.0087857539
0	6689	65.338985537342	0.021390614586
0	6694	65.360376151928	0.01132684286
0	6699	65.371702994788	0.000578145826
0	6703	65.372281140614	0.026176539601
0	6709	65.398457680215	0.007355765687
0	6713	65.405813445902	0.034728134477
0	6719	65.440541580379	0.016389262434
0	6724	65.456930842813	0.020123455239
0	6729	65.477054298052	0.058907801141
0	6734	65.535962099193	0.05570199606
0	6739	65.591664095253	0.028336991635
0	6744	65.620001086888	0.14751263683
0	6749	65.767513723718	0.05173720381
0	6754	65.819250927528	0.096593189208
0	6759	65.915844116736	0.051522499164
0	6764	65.9673666159	0.009597568608
0	6769	65.976964184508	0.056495148265
0	6774	66.033459332773	0.035494155695
0	6779	66.068953488468	0.02579600788
0	6784	66.094749496348	0.25779618656
0	6789	66.352545682908	0.146908957414
0	6794	66.499454640322	0.03115646796
0	6799	66.530611108282	0.044567501246
0	6804	66.575178609528	0.100493597698
0	6809	66.675672207226	0.059115759591
0	6814	66.734787966817	0.004208360942
0	6818	66.738996327759	0.00457288757
0	6823	66.743569215329	0.060043737006
0	6829	66.803612952335	0.015957498889
0	6834	66.819570451224	0.008581392654
0	6839	66.828151843878	0.081177083336
0	6844	66.909328927214	0.125402277745
0	6849	67.034731204959	0.009383361329
0	6854	67.044114566288	0.025611943909
0	6859	67.069726510197	0.011029590749
0	6864	67.080756100946	0.026488095115
0	6869	67.107244196061	0.002719051297
0	6873	67.109963247358	0.005011292987
0	6876	67.114974540345	0.028981403244
0	6884	67.143955943589	0.003971520852
0	6888	67.147927464441	0.006109957829
0	6893	67.15403742227	0.04732918674
0	6899	67.20136660901	0.029646061165
0	6905	67.231012670175	0.038794232799
0	6910	67.269806902974	0.008946677485
0	6915	67.278753580459	0.021426083051
0	6920	67.30017966351	0.05024997918
0	6925	67.35042964269	0.170060136094
0	6930	67.520489778784	0.095955628155
0	6935	67.616445406939	0.029191342739
0	6940	67.645636749678	0.034811979124
0	6945	67.680448728802	0.057797613289
0	6950	67.738246342091	0.017257491028
0	6955	67.755503833119	0.013544577168
0	6960	67.769048410287	0.02775973343
0	6965	67.796808143717	0.035000222698
0	6970	67.831808366415	0.020840617141
0	6975	67.852648983556	0.139222353949
0	6980	67.991871337505	0.015824466639
0	6985	68.007695804144	0.026131989153
0	6990	68.033827793297	0.016143286383
0	6995	68.04997107968	0.038843428322
0	7000	68.088814508002	0.085326555508
0	7006	68.17414106351	0.017639146107
0	7011	68.191780209617	0.006865534247
0	7015	68.198645743864	0.01957600032
0	7022	68.218221744184	0.0044789913
0	7026	68.222700735484	0.024918122538
0	7032	68.247618858022	0.006952159537
0	7036	68.254571017559	0.014785752941
0	7042	68.2693567705	0.018116003756
0	7047	68.287472774256	0.074025303054
0	7052	68.36149807731	0.022523813966
0	7057	68.384021891276	0.035502069079
0	7062	68.419523960355	0.001751819008
0	7066	68.421275779363	0.146937562504
0	7072	68.568213341867	0.127514516422
0	7077	68.695727858289	0.042769110048
0	7082	68.738496968337	0.032209916612
0	7087	68.770706884949	0.063245795148
0	7092	68.833952680097	0.031497857968
0	7097	68.865450538065	0.031175116714
0	7102	68.896625654779	0.00251510564
0	7106	68.899140760419	0.014836667679
0	7112	68.913977428098	0.046170815336
0	7117	68.960148243434	0.018653695524
0	7122	68.978801938958	0.024721853655
0	7127	69.003523792613	0.012926874312
0	7133	69.016450666925	0.057346686466
0	7138	69.073797353391	0.003424375004
0	7142	69.077221728395	0.02889433357
0	7148	69.106116061965	0.060928779821
0	7153	69.167044841786	0.03793187295
0	7158	69.204976714736	0.036898102133
0	7163	69.241874816869	0.018769335679
0	7168	69.260644152548	0.013913596731
0	7173	69.274557749279	0.019397529344
0	7178	69.293955278623	0.005140859092
0	7182	69.299096137715	0.016621991851
0	7188	69.315718129566	0.023488538902
0	7193	69.339206668468	0.046885977874
0	7198	69.386092646342	0.054140337409
0	7203	69.440232983751	0.02074653525
0	7208	69.460979519001	0.020821672456
0	7213	69.481801191457	0.096735611262
0	7218	69.578536802719	0.026846043226
0	7223	69.605382845945	0.010787577866
0	7228	69.616170423811	0.03166394635
0	7233	69.647834370161	0.018393352509
0	7238	69.66622772267	0.028759738287
0	7243	69.694987460957	0.021573843812
0	7249	69.716561304769	0.027142182554
0	7254	69.743703487323	0.027859912737
0	7259	69.77156340006	0.023665514282
0	7264	69.795228914342	0.004424753518
0	7268	69.79965366786	0.022589174383
0	7274	69.822242842243	0.1462753083
0	7279	69.968518150543	0.059927998555
0	7284	70.028446149098	0.006527943487
0	7288	70.034974092585	0.069511419533
0	7294	70.104485512118	0.001820516718
0	7298	70.106306028836	0.020728037147
0	7304	70.127034065983	0.045851210168
0	7309	70.172885276151	0.074924795388
0	7314	70.247810071539	0.041084055939
0	7319	70.288894127478	0.034497391416
0	7324	70.323391518894	0.054574137911
0	7329	70.377965656805	0.030042377886
0	7334	70.408008034691	0.099528713271
0	7339	70.507536747962	0.126052561285
0	7344	70.633589309247	0.04154158659
0	7349	70.675130895837	0.040488311784
0	7354	70.715619207621	0.024863454864
0	7359	70.740482662485	0.053376174404
0	7364	70.793858836889	0.02415698851
0	7369	70.818015825399	0.012921218047
0	7374	70.830937043446	0.026765478782
0	7379	70.857702522228	0.021305032811
0	7384	70.879007555039	0.018302410842
0	7389	70.897309965881	0.031952487174
0	7394	70.929262453055	0.040557049618
0	7399	70.969819502673	0.047474617193
0	7404	71.017294119866	0.051763272409
0	7409	71.069057392275	0.06606857792
0	7414	71.135125970195	0.024943660037
0	7419	71.160069630232	0.092650089448
0	7424	71.25271971968	0.026274553423
0	7429	71.278994273103	0.060617028304
0	7434	71.339611301407	0.011243530262
0	7439	71.350854831669	0.047300825366
0	7444	71.398155657035	0.086359825725
0	7449	71.48451548276	0.033192825687
0	7454	71.517708308447	6.9380575e-005
0	7458	71.517777689022	0.026809320007
0	7464	71.544587009029	0.132779858596
0	7469	71.677366867625	0.076087930972
0	7474	71.753454798597	0.007189111002
0	7478	71.760643909599	0.032844758813
0	7484	71.793488668412	0.083667979642
0	7489	71.877156648054	0.00951513446
0	7494	71.886671782514	0.01824502097
0	7499	71.904916803484	0.014619324451
0	7504	71.919536127935	0.060618306032
0	7509	71.980154433967	0.013887370238
0	7514	71.994041804205	0.164702490841
0	7519	72.158744295046	0.08440082395
0	7524	72.243145118996	0.009558994243
0	7529	72.252704113239	0.295942583778
0	7534	72.548646697017	0.006614896652
0	7538	72.555261593669	0.08197500377
0	7544	72.637236597439	0.002873747598
0	7548	72.640110345037	0.063069812914
0	7555	72.703180157951	0.167180858376
0	7560	72.870361016327	0.045955184522
0	7565	72.916316200849	0.072941749051
0	7570	72.9892579499	0.024052748779
0	7575	73.013310698679	0.070962543793
0	7580	73.084273242472	0.060984679198
0	7585	73.14525792167	0.044657255382
0	7590	73.189915177052	0.039044233028
0	7595	73.22895941008	0.06300382188
0	7600	73.29196323196	0.020588376803
0	7605	73.312551608763	0.050144271702
0	7611	73.362695880465	0.004297870429
0	7615	73.366993750894	0.015746545508
0	7621	73.382740296402	0.011635663948
0	7626	73.39437596035	0.014246903699
0	7631	73.408622864049	0.195978335884
0	7636	73.604601199933	0.039128679258
0	7641	73.643729879191	0.020782242334
0	7646	73.664512121525	0.088979286525
0	7651	73.75349140805	0.06405931488
0	7656	73.81755072293	0.011458695423
0	7661	73.829009418353	0.032504604418
0	7666	73.861514022771	0.000927840452
0	7670	73.862441863223	0.043961923585
0	7676	73.906403786808	0.248938856194
0	7681	74.155342643002	0.016691744526
0	7686	74.172034387528	0.100207292297
0	7691	74.272241679825	0.05222582944
0	7696	74.324467509265	0.051491171879
0	7701	74.375958681144	0.004619187171
0	7705	74.380577868315	0.015701935685
0	7711	74.396279804	0.051242588566
0	7716	74.447522392566	0.066874796617
0	7721	74.514397189183	0.100582329657
0	7726	74.61497951884	0.002853482903
0	7730	74.617833001743	0.112962935978
0	7736	74.730795937721	0.00010507398
0	7740	74.730901011701	0.045693184866
0	7746	74.776594196567	0.048075254185
0	7751	74.824669450752	0.007681828612
0	7755	74.832351279364	0.004219747614
0	7760	74.836571026978	0.093468669826
0	7766	74.930039696804	0.050252325862
0	7771	74.980292022666	0.028058732907
0	7776	75.008350755573	0.103361190831
0	7781	75.111711946404	0.039860911127
0	7786	75.151572857531	0.010597758226
0	7791	75.162170615757	0.057529325278
0	7796	75.219699941035	0.003555333901
0	7800	75.223255274936	0.043181949644
0	7806	75.26643722458	0.132940919364
0	7811	75.399378143944	0.08814912587
0	7816	75.487527269814	0.012267568299
0	7821	75.499794838113	0.055219842924
0	7826	75.555014681037	0.006029866586
0	7830	75.561044547623	0.149832106378
0	7836	75.710876654001	0.029197167186
0	7841	75.740073821187	0.014693771718
0	7846	75.754767592905	0.021877638055
0	7851	75.77664523096	0.049472610587
0	7856	75.826117841547	0.047600059013
0	7861	75.87371790056	0.047231226476
0	7866	75.920949127036	0.039109595589
0	7871	75.960058722625	0.059525942721
0	7876	76.019584665346	0.062297231472
0	7881	76.081881896818	0.012673498142
0	7886	76.09455539496	0.016192836846
0	7891	76.110748231806	0.003911766794
0	7895	76.1146599986	0.011285223087
0	7900	76.125945221687	0.001072978474
0	7905	76.127018200161	0.032924774278
0	7911	76.159942974439	0.031377465767
0	7916	76.191320440206	0.058942121995
0	7921	76.250262562201	0.043408072269
0	7926	76.29367063447	0.036595143193
0	7931	76.330265777663	0.001723220354
0	7935	76.331988998017	0.016615436211
0	7941	76.348604434228	0.03809334724
0	7946	76.386697781468	0.065342466179
0	7951	76.452040247647	0.043429135181
0	7956	76.495469382828	0.106778856682
0	7961	76.60224823951	0.003643917929
0	7965	76.605892157439	0.011828328277
0	7970	76.617720485716	0.111572710882
0	7976	76.729293196598	0.067563804345
0	7981	76.796857000943	0.005656043746
0	7985	76.802513044689	0.012163330618
0	7991	76.814676375307	0.01116652487
0	7996	76.825842900177	0.139023471581
0	8001	76.964866371758	0.02225924882
0	8006	76.987125620578	0.00631268024
0	8010	76.993438300818	0.049150918428
0	8016	77.042589219246	0.026933137184
0	8021	77.06952235643	0.020881590995
0	8026	77.090403947425	0.001974991704
0	8030	77.092378939129	0.039680040659
0	8036	77.132058979788	0.055402851306
0	8041	77.187461831094	0.039950199026
0	8046	77.22741203012	0.022744567141
0	8051	77.250156597261	0.017507219801
0	8056	77.267663817062	0.04414136718
0	8061	77.311805184242	0.022736338841
0	8066	77.334541523083	0.014643329333
0	8071	77.349184852416	0.11346878907
0	8076	77.462653641486	0.009882564577
0	8081	77.472536206063	0.021462549679
0	8086	77.493998755742	0.14366431274
0	8092	77.637663068482	0.114703206375
0	8097	77.752366274857	0.012468386652
0	8102	77.764834661509	0.16558768953
0	8107	77.930422351039	0.017646166775
0	8112	77.948068517814	0.073751881563
0	8117	78.021820399377	0.033229251922
0	8122	78.055049651299	0.030434364778
0	8127	78.085484016077	0.05736526569
0	8132	78.142849281767	0.146509231647
0	8137	78.289358513414	0.005525331589
0	8141	78.294883845003	0.012367634593
0	8147	78.307251479596	0.101748110973
0	8152	78.408999590569	0.129979752288
0	8157	78.538979342857	0.057558297531
0	8162	78.596537640388	0.076659333292
0	8167	78.67319697368	0.117128411939
0	8173	78.790325385619	0.047115932133
0	8178	78.837441317752	0.012223694046
0	8183	78.849665011798	0.096607889093
0	8188	78.946272900891	0.020168181554
0	8193	78.966441082445	0.021303258564
0	8198	78.987744341009	0.01775933976
0	8203	79.005503680769	0.007475407871
0	8207	79.01297908864	0.008382452305
0	8213	79.021361540945	0.000548456045
0	8217	79.02190999699	0.079528809863
0	8223	79.101438806853	0.023731631708
0	8228	79.125170438561	0.036135082985
0	8233	79.161305521546	0.028508510358
0	8239	79.189814031904	0.062710611903
0	8244	79.252524643807	0.06510928612
0	8249	79.317633929927	0.06982407968
0	8254	79.387458009607	0.009342549605
0	8259	79.396800559212	0.05531485331
0	8264	79.452115412522	0.026618671619
0	8269	79.478734084141	0.04558940092
0	8274	79.524323485061	0.031574352007
0	8279	79.555897837068	0.079716397711
0	8284	79.635614234779	0.102881670968
0	8289	79.738495905747	0.006051855311
0	8293	79.744547761058	0.015471030363
0	8299	79.760018791421	0.101264927701
0	8305	79.861283719122	0.036969251884
0	8310	79.898252971006	0.027283523107
0	8315	79.925536494113	0.004256318713
0	8319	79.929792812826	0.101022555746
0	8325	80.030815368572	0.012023554447
0	8330	80.042838923019	0.024672098347
0	8335	80.067511021366	0.011713760889
0	8340	80.079224782255	0.045651373033
0	8346	80.124876155288	0.023466527938
0	8351	80.148342683226	0.034661644087
0	8356	80.183004327313	0.068770890694
0	8361	80.251775218007	0.017919533544
0	8366	80.269694751551	0.037117667463
0	8371	80.306812419014	0.016261952864
0	8376	80.323074371878	0.022548496836
0	8381	80.345622868714	0.040986410971
0	8386	80.386609279685	0.025799973776
0	8391	80.412409253461	0.094099030508
0	8396	80.506508283969	0.137585901679
0	8401	80.644094185648	0.018511726772
0	8406	80.66260591242	0.040240588098
0	8412	80.702846500518	0.002511460576
0	8416	80.705357961094	0.013141923305
0	8422	80.718499884399	0.084715206397
0	8427	80.803215090796	0.008100191324
0	8432	80.81131528212	0.040043881032
0	8437	80.851359163152	0.081712419273
0	8442	80.933071582425	0.097458841821
0	8447	81.030530424246	0.004662213026
0	8451	81.035192637272	0.020805588742
0	8457	81.055998226014	0.014129001239
0	8462	81.070127227253	0.034663490883
0	8467	81.104790718136	0.126680142699
0	8472	81.231470860835	0.02141471367
0	8477	81.252885574505	0.007956697652
0	8482	81.260842272157	0.374753611217
0	8487	81.635595883374	0.047175870759
0	8492	81.682771754133	0.007683490739
0	8496	81.690455244872	0.033271822127
0	8502	81.723727066999	0.06901885092
0	8507	81.792745917919	0.005712387194
0	8511	81.798458305113	0.004710709819
0	8516	81.803169014932	0.060253118293
0	8522	81.863422133225	0.027291955138
0	8527	81.890714088363	0.087912471297
0	8532	81.97862655966	0.017783811328
0	8537	81.996410370988	0.110832293284
0	8542	82.107242664272	0.024692077936
0	8547	82.131934742208	0.012924615981
0	8552	82.144859358189	0.064023569314
0	8557	82.208882927503	0.025007973185
0	8562	82.233890900688	0.070253953731
0	8568	82.304144854419	0.004558368517
0	8572	82.308703222936	0.083950986281
0	8578	82.392654209217	0.114578274195
0	8583	82.507232483412	0.052132714162
0	8588	82.559365197574	0.005264186869
0	8592	82.564629384443	0.074329653854
0	8598	82.638959038297	0.118225988043
0	8603	82.75718502634	0.009624406299
0	8608	82.766809432639	0.002878636244
0	8612	82.769688068883	0.007048094095
0	8617	82.776736162978	0.024939785099
0	8624	82.801675948077	0.050280137138
0	8630	82.851956085215	0.024052499388
0	8635	82.876008584603	0.032826191533
0	8641	82.908834776136	0.036266188873
0	8646	82.945100965009	0.026212128626
0	8651	82.971313093635	0.031630355794
0	8656	83.002943449429	0.029008558468
0	8661	83.031952007897	0.0825803363
0	8666	83.114532344197	0.004812018437
0	8670	83.119344362634	0.072027820766
0	8676	83.1913721834	0.009313366477
0	8681	83.200685549877	0.058730328897
0	8686	83.259415878774	0.144081822096
0	8692	83.40349770087	0.117433095041
0	8697	83.520930795911	0.005421605383
0	8701	83.526352401294	0.002044900627
0	8704	83.528397301921	0.071621897509
0	8713	83.60001919943	0.043725204675
0	8719	83.643744404105	0.043053134005
0	8724	83.68679753811	0.029788913795
0	8729	83.716586451905	0.058927911667
0	8734	83.775514363572	0.169825159854
0	8739	83.945339523426	0.012744210879
0	8744	83.958083734305	0.00659755342
0	8748	83.964681287725	0.081450460154
0	8754	84.046131747879	0.012325141594
0	8759	84.058456889473	0.087589684587
0	8764	84.14604657406	0.032174037355
0	8769	84.178220611415	0.007096781209
0	8773	84.185317392624	0.004251371654
0	8778	84.189568764278	0.041816401363
0	8784	84.231385165641	0.021587176905
0	8789	84.252972342546	0.056173293181
0	8795	84.309145635727	0.018115094598
0	8800	84.327260730325	0.059243329824
0	8805	84.386504060149	0.074901326541
0	8810	84.46140538669	0.072094262085
0	8815	84.533499648775	0.038970060802
0	8820	84.572469709577	0.026970548145
0	8825	84.599440257722	0.001655125269
0	8829	84.601095382991	0.104052040086
0	8837	84.705147423077	0.053638830996
0	8842	84.758786254073	0.106858547215
0	8849	84.865644801288	0.07449921971
0	8854	84.940144020998	0.014009717464
0	8859	84.954153738462	0.139983662471
0	8864	85.094137400933	0.25589617194
0	8870	85.350033572873	0.084723823964
0	8875	85.434757396837	0.00301949926
0	8879	85.437776896097	0.057851577387
0	8885	85.495628473484	0.102952705468
0	8890	85.598581178952	0.01031315464
0	8895	85.608894333592	0.048822020622
0	8900	85.657716354214	0.123952973763
0	8905	85.781669327977	0.068160249464
0	8910	85.849829577441	0.007703720947
0	8914	85.857533298388	0.098122250605
0	8920	85.955655548993	0.111234401826
0	8925	86.066889950819	0.101585018803
0	8930	86.168474969622	0.036056289265
0	8935	86.204531258887	0.027462901107
0	8940	86.231994159994	0.078778485343
0	8945	86.310772645337	0.0807476398
0	8950	86.391520285137	0.024683331874
0	8955	86.416203617011	0.054557857524
0	8960	86.470761474535	0.08075629508
0	8965	86.551517769615	0.001679554812
0	8969	86.553197324427	0.043127833949
0	8975	86.596325158376	0.060439312462
0	8980	86.656764470838	0.026474525912
0	8985	86.68323899675	0.067804003995
0	8990	86.751043000745	0.024347437104
0	8995	86.775390437849	0.045173778572
0	9000	86.820564216421	0.128581829427
0	9005	86.949146045848	0.007395644137
0	9009	86.956541689985	0.099013153929
0	9015	87.055554843914	0.07533437414
0	9020	87.130889218054	0.037390841377
0	9025	87.168280059431	0.011127714426
0	9030	87.179407773857	0.015825270894
0	9035	87.195233044751	0.089689516926
0	9040	87.284922561677	0.038819054257
0	9045	87.323741615934	0.003413902108
0	9049	87.327155518042	0.057801981047
0	9055	87.384957499089	0.008170791239
0	9060	87.393128290328	0.048397118742
0	9065	87.44152540907	0.064292210908
0	9070	87.505817619978	0.046783351918
0	9075	87.552600971896	0.022257480979
0	9080	87.574858452875	0.072475877548
0	9085	87.647334330423	0.021138549827
0	9090	87.66847288025	0.015403830386
0	9095	87.683876710636	0.027410038989
0	9101	87.711286749625	0.085990977155
0	9106	87.79727772678	0.236459426874
0	9111	88.033737153654	0.017853015703
0	9116	88.051590169357	0.019086073043
0	9121	88.0706762424	0.119492264994
0	9126	88.190168507394	0.027967085213
0	9131	88.218135592607	0.019862159279
0	9136	88.237997751886	0.047073541962
0	9141	88.285071293848	0.014324380139
0	9146	88.299395673987	0.034196430024
0	9151	88.333592104011	0.074820488639
0	9156	88.40841259265	0.011486231935
0	9161	88.419898824585	0.006015257619
0	9165	88.425914082204	0.004551255708
0	9170	88.430465337912	0.070976739714
0	9176	88.501442077626	0.057968164692
0	9181	88.559410242318	0.036970412204
0	9186	88.596380654522	0.019748586968
0	9191	88.61612924149	0.053071325935
0	9196	88.669200567425	0.02398652958
0	9201	88.693187097005	0.027709917893
0	9206	88.720897014898	0.028224927159
0	9211	88.749121942057	0.024541364307
0	9216	88.773663306364	0.056919888578
0	9221	88.830583194942	0.121500868233
0	9226	88.952084063175	0.024093835683
0	9231	88.976177898858	0.052255027893
0	9236	89.028432926751	0.042254202826
0	9241	89.070687129577	0.015779379875
0	9246	89.086466509452	0.014912169973
0	9251	89.101378679425	0.00810401165
0	9256	89.109482691075	0.069167572361
0	9261	89.178650263436	0.001500626116
0	9265	89.180150889552	0.00347461497
0	9268	89.183625504522	0.049275379251
0	9276	89.232900883773	0.114976283718
0	9282	89.347877167491	0.025543826938
0	9287	89.373420994429	0.002463296203
0	9291	89.375884290632	0.060746750466
0	9297	89.436631041098	0.020816065791
0	9302	89.457447106889	0.015856644545
0	9307	89.473303751434	0.033162297412
0	9312	89.506466048846	0.081278287809
0	9317	89.587744336655	0.113296671834
0	9322	89.701041008489	0.128194124605
0	9327	89.829235133094	0.07163900283
0	9332	89.900874135924	0.058054530341
0	9337	89.958928666265	0.02722747835
0	9342	89.986156144615	0.030287260375
0	9347	90.01644340499	0.208851222567
0	9352	90.225294627557	0.039901489659
0	9357	90.265196117216	0.164335381357
0	9363	90.429531498573	0.010073534718
0	9368	90.439605033291	0.033707392193
0	9373	90.473312425484	0.009312364312
0	9378	90.482624789796	0.207442316947
0	9383	90.690067106743	0.003294372011
0	9387	90.693361478754	0.000916505676
0	9390	90.69427798443	0.058651034661
0	9398	90.752929019091	0.062130943867
0	9403	90.815059962958	0.01656867261
0	9408	90.831628635568	0.035863432769
0	9413	90.867492068337	0.189957828453
0	9418	91.05744989679	0.171106421255
0	9423	91.228556318045	0.069086060024
0	9428	91.297642378069	0.000876050495
0	9432	91.298518428564	0.056479873044
0	9438	91.354998301608	0.013897432412
0	9443	91.36889573402	0.055029517445
0	9448	91.423925251465	0.004248403078
0	9452	91.428173654543	0.046150097954
0	9458	91.474323752497	0.066586774836
0	9463	91.540910527333	0.006051077319
0	9467	91.546961604652	0.042354823701
0	9473	91.589316428353	0.165446712141
0	9478	91.754763140494	0.009824802696
0	9483	91.76458794319	0.037364727458
0	9488	91.801952670648	0.104495795544
0	9493	91.906448466192	0.056056037844
0	9498	91.962504504036	0.102767337013
0	9503	92.065271841049	0.046654313862
0	9508	92.111926154911	0.071897158746
0	9513	92.183823313657	0.036339640088
0	9518	92.220162953745	0.014824070529
0	9523	92.234987024274	0.015790758428
0	9528	92.250777782702	0.076902397941
0	9533	92.327680180643	0.046560355257
0	9538	92.3742405359	0.031298110357
0	9543	92.405538646257	0.061216617483
0	9548	92.46675526374	0.027896727472
0	9553	92.494651991212	0.023335311166
0	9558	92.517987302378	0.056997289714
0	9563	92.574984592092	0.061021789172
0	9568	92.636006381264	0.114266275244
0	9573	92.750272656508	0.007283703252
0	9578	92.75755635976	0.090010677756
0	9584	92.847567037516	0.061468109891
0	9589	92.909035147407	0.078595472018
0	9594	92.987630619425	0.075436792084
0	9599	93.063067411509	0.006785931619
0	9603	93.069853343128	0.205321537152
0	9609	93.27517488028	0.093524658473
0	9614	93.368699538753	0.066976920663
0	9619	93.435676459416	0.030159921106
0	9624	93.465836380522	0.145614232807
0	9629	93.611450613329	0.004792770026
0	9633	93.616243383355	0.013853378291
0	9639	93.630096761646	0.161088077111
0	9644	93.791184838757	0.093237114848
0	9649	93.884421953605	0.028183371029
0	9654	93.912605324634	0.058614183291
0	9659	93.971219507925	0.007575086991
0	9663	93.978794594916	0.109359283631
0	9669	94.088153878547	0.032990128132
0	9674	94.121144006679	0.004076163702
0	9678	94.125220170381	0.082459546839
0	9684	94.20767971722	0.040078171033
0	9689	94.247757888253	0.020677112865
0	9694	94.268435001118	0.010672380441
0	9699	94.279107381559	0.042421263905
0	9704	94.321528645464	0.01196452723
0	9709	94.333493172694	0.000641962556
0	9713	94.33413513525	0.014394970792
0	9718	94.348530106042	0.000994239992
0	9723	94.349524346034	0.005257263367
0	9726	94.354781609401	0.033990488323
0	9734	94.388772097724	0.006921167305
0	9738	94.395693265029	0.011289069174
0	9744	94.406982334203	0.066582388994
0	9749	94.473564723197	0.102444794662
0	9754	94.576009517859	0.043156132196
0	9759	94.619165650055	0.048275750101
0	9764	94.667441400156	0.103147231922
0	9769	94.770588632078	0.048350387833
0	9774	94.818939019911	0.00123329716
0	9778	94.820172317071	0.038991889883
0	9784	94.859164206954	0.039023207865
0	9789	94.898187414819	0.02023397558
0	9794	94.918421390399	0.081950142952
0	9799	95.000371533351	0.021093350486
0	9804	95.021464883837	0.046661521699
0	9809	95.068126405536	0.100159652438
0	9814	95.168286057974	0.013071351702
0	9819	95.181357409676	0.067675727855
0	9824	95.249033137531	0.000837173957
0	9828	95.249870311488	0.069021291092
0	9834	95.31889160258	0.066316764178
0	9839	95.385208366758	0.045386549981
0	9844	95.430594916739	0.081947183218
0	9849	95.512542099957	0.001184296494
0	9853	95.513726396451	0.003248135627
0	9856	95.516974532078	0.078042881702
0	9864	95.59501741378	0.030049265005
0	9869	95.625066678785	0.05866088672
0	9874	95.683727565505	0.017819750117
0	9879	95.701547315622	0.101162120757
0	9884	95.802709436379	0.03258622855
0	9889	95.835295664929	0.051106944219
0	9894	95.886402609148	0.073241576557
0	9899	95.959644185705	0.015798157745
0	9904	95.97544234345	0.041589290357
0	9909	96.017031633807	0.126594827171
0	9914	96.143626460978	0.024071347586
0	9919	96.167697808564	0.032235932821
0	9924	96.199933741385	0.060875244039
0	9929	96.260808985424	0.011482525968
0	9934	96.272291511392	0.045134866097
0	9939	96.317426377489	0.176879903224
0	9944	96.494306280713	0.103385982867
0	9949	96.59769226358	0.071501716553
0	9954	96.669193980133	0.00960561003
0	9959	96.678799590163	0.022455581905
0	9964	96.701255172068	0.030055258361
0	9969	96.731310430429	0.003255651837
0	9973	96.734566082266	0.048482734083
0	9979	96.783048816349	0.097449255953
0	9984	96.880498072302	0.020663550853
0	9989	96.901161623155	0.106654819337
0	9994	97.007816442492	0.043717966783
0	9999	97.051534409275	0.013885073192
0	10004	97.065419482467	0.003632097532
0	10008	97.069051579999	0.103720988031
0	10014	97.17277256803	0.005242370218
0	10018	97.178014938248	0.025570107248
0	10025	97.203585045496	0.032197719732
0	10030	97.235782765228	0.017723780831
0	10035	97.253506546059	0.038963500049
0	10040	97.292470046108	0.008204581574
0	10045	97.300674627682	0.206023771904
0	10050	97.506698399586	0.034604996976
0	10055	97.541303396562	0.054713014142
0	10060	97.596016410704	0.014143625676
0	10065	97.61016003638	0.058148604764
0	10070	97.668308641144	0.138876983797
0	10075	97.807185624941	0.048048057633
0	10080	97.855233682574	0.028044770858
0	10085	97.883278453432	0.257972583754
0	10090	98.141251037186	0.014274682118
0	10095	98.155525719304	0.097327186622
0	10100	98.252852905926	0.043638107505
0	10105	98.296491013431	0.182076385262
0	10110	98.478567398693	0.027356514314
0	10115	98.505923913007	0.080821023492
0	10120	98.586744936499	0.026268713023
0	10125	98.613013649522	0.042913699527
0	10130	98.655927349049	0.007027683294
0	10134	98.662955032343	0.07610713292
0	10140	98.739062165263	0.104936685879
0	10146	98.843998851142	0.044252241958
0	10151	98.8882510931	0.017122952754
0	10156	98.905374045854	0.024848849259
0	10161	98.930222895113	0.004371766701
0	10165	98.934594661814	0.013730126518
0	10171	98.948324788332	0.058751198293
0	10176	99.007075986625	0.047004000669
0	10181	99.054079987294	0.115194886634
0	10186	99.169274873928	0.005772361546
0	10190	99.175047235474	0.076836952671
0	10196	99.251884188145	0.072783097234
0	10201	99.324667285379	0.091023011009
0	10207	99.415690296388	0.022183923827
0	10212	99.437874220215	0.008718450561
0	10217	99.446592670776	0.221302659596
0	10222	99.667895330372	0.045867488757
0	10227	99.713762819129	0.021644888495
0	10232	99.735407707624	0.008545459122
0	10237	99.743953166746	0.093019154949
0	10242	99.836972321695	0.146775578527
0	10247	99.983747900222	0.063710221448
0	10252	100.04745812167	0.059628142818
0	10257	100.107086264488	0.010974855265
0	10262	100.118061119753	0.016305344209
0	10267	100.134366463962	0.002090789612
0	10271	100.136457253574	0.088747219768
0	10277	100.225204473342	0.020170510475
0	10283	100.245374983817	0.008209840583
0	10288	100.2535848244	0.0762057322
0	10293	100.3297905566	0.037279801116
0	10298	100.367070357716	0.049754934935
0	10303	100.416825292651	0.021287398085
0	10308	100.438112690736	0.031791398137
0	10313	100.469904088873	0.035141322344
0	10318	100.505045411217	0.030149678608
0	10323	100.535195089825	0.0283152643
0	10328	100.563510354125	0.041008399457
0	10333	100.604518753582	0.073977019105
0	10338	100.678495772687	0.00075582513
0	10342	100.679251597817	0.001769280576
0	10345	100.681020878393	0.110987484802
0	10353	100.792008363195	0.057219147172
0	10358	100.849227510367	0.026846841347
0	10363	100.876074351714	0.020176492341
0	10368	100.896250844055	0.013430832743
0	10373	100.909681676798	0.004140075105
0	10377	100.913821751903	0.007617353216
0	10382	100.921439105119	0.104973252386
0	10388	101.026412357505	0.288553436339
0	10393	101.314965793844	0.012586901462
0	10398	101.327552695306	0.026085095882
0	10403	101.353637791188	0.001619196865
0	10407	101.355256988053	0.047467792391
0	10413	101.402724780444	0.090358489225
0	10418	101.493083269669	0.010187396523
0	10423	101.503270666192	0.022582325228
0	10428	101.52585299142	0.002269670262
0	10432	101.528122661682	0.051115190574
0	10438	101.579237852256	0.018813245262
0	10443	101.598051097518	0.038808726533
0	10448	101.636859824051	0.022721338035
0	10453	101.659581162086	0.009587815123
0	10458	101.669168977209	0.063480445857
0	10463	101.732649423066	0.028491529424
0	10468	101.76114095249	0.000628902445
0	10472	101.761769854935	0.019334833957
0	10478	101.781104688892	0.131846698793
0	10483	101.912951387685	0.000367811318
0	10487	101.913319199003	0.048912259369
0	10493	101.962231458372	0.016829296228
0	10499	101.9790607546	0.006689477446
0	10503	101.985750232046	0.021185909549
0	10509	102.006936141595	0.119154909958
0	10514	102.126091051553	0.011035808563
0	10519	102.137126860116	0.005377619401
0	10523	102.142504479517	0.001135016118
0	10526	102.143639495635	0.065685805397
0	10534	102.209325301032	0.081154192076
0	10539	102.290479493108	0.088535513666
0	10544	102.379015006774	0.072775482246
0	10549	102.45179048902	0.058847259735
0	10554	102.510637748755	0.017936320925
0	10559	102.52857406968	0.01112600775
0	10564	102.53970007743	0.006071073145
0	10568	102.545771150575	0.020498678609
0	10574	102.566269829184	0.031590515321
0	10579	102.597860344505	0.005102201151
0	10583	102.602962545656	0.130148788039
0	10589	102.733111333695	0.037200162387
0	10594	102.770311496082	0.013353449953
0	10599	102.783664946035	0.03150586215
0	10604	102.815170808185	0.081662902699
0	10609	102.896833710884	0.068978749032
0	10615	102.965812459916	0.078258865481
0	10621	103.044071325397	0.028014548062
0	10626	103.072085873459	0.012308966302
0	10631	103.084394839761	0.045274370578
0	10636	103.129669210339	0.034347418049
0	10641	103.164016628388	0.012873455209
0	10646	103.176890083597	0.004931744554
0	10650	103.181821828151	0.011621767779
0	10656	103.19344359593	0.015230989669
0	10661	103.208674585599	0.005745159266
0	10665	103.214419744865	0.066645829593
0	10671	103.281065574458	0.009208632569
0	10676	103.290274207027	0.084939005702
0	10681	103.375213212729	0.001203467745
0	10685	103.376416680474	0.02680654138
0	10691	103.403223221854	0.024094893383
0	10697	103.427318115237	0.02317961547
0	10702	103.450497730707	0.235179529113
0	10707	103.68567725982	0.162812441751
0	10712	103.848489701571	0.093101162276
0	10717	103.941590863847	0.016281745227
0	10722	103.957872609074	0.139155773802
0	10727	104.097028382876	0.070576222042
0	10732	104.167604604918	0.027270573532
0	10737	104.19487517845	0.083955902435
0	10742	104.278831080885	0.124801779062
0	10747	104.403632859947	0.01556912579
0	10752	104.419201985737	0.048507805579
0	10757	104.467709791316	0.00300431856
0	10761	104.470714109876	0.007850896558
0	10766	104.478565006434	0.12080156531
0	10772	104.599366571744	0.024464994735
0	10777	104.623831566479	0.019287353439
0	10782	104.643118919918	0.021278841997
0	10787	104.664397761915	0.047514158489
0	10792	104.711911920404	0.005306141314
0	10796	104.717218061718	0.090874618149
0	10803	104.808092679867	0.006769363272
0	10807	104.814862043139	0.060656745945
0	10813	104.875518789084	0.054220360751
0	10818	104.929739149835	0.034692747441
0	10823	104.964431897276	0.03627168294
0	10829	105.000703580216	0.112006343923
0	10834	105.112709924139	0.011712979686
0	10839	105.124422903825	0.005211347158
0	10843	105.129634250983	0.000575820244
0	10846	105.130210071227	0.036878864019
0	10854	105.167088935246	0.029632816022
0	10859	105.196721751268	0.005990346491
0	10863	105.202712097759	0.09387448117
0	10870	105.296586578929	0.014891930636
0	10875	105.311478509565	0.166913159714
0	10880	105.478391669279	0.083390375451
0	10885	105.56178204473	0.038613674228
0	10890	105.600395718958	0.018214479724
0	10895	105.618610198682	0.100331791525
0	10900	105.718941990207	0.020432358466
0	10905	105.739374348673	0.094959856787
0	10910	105.83433420546	0.004596680688
0	10914	105.838930886148	0.014255709591
0	10921	105.853186595739	0.020729775132
0	10926	105.873916370871	0.167575799776
0	10931	106.041492170647	0.035878602296
0	10936	106.077370772943	0.040610981291
0	10941	106.117981754234	0.007755164128
0	10945	106.125736918362	0.047964086633
0	10951	106.173701004995	0.018880664291
0	10956	106.192581669286	0.16805965787
0	10961	106.360641327156	0.045508869859
0	10966	106.406150197015	0.018976141734
0	10971	106.425126338749	0.009488187534
0	10976	106.434614526283	0.176282031582
0	10981	106.610896557865	0.022329533854
0	10986	106.633226091719	0.053453982664
0	10991	106.686680074383	0.016904286672
0	10996	106.703584361055	0.089350219397
0	11001	106.792934580452	0.020577344982
0	11006	106.813511925434	0.084705277292
0	11011	106.898217202726	0.094420655336
0	11016	106.992637858062	0.0139232075
0	11021	107.006561065562	0.095416394961
0	11026	107.101977460523	0.010613231709
0	11031	107.112590692232	0.031977866213
0	11036	107.144568558445	0.018243996264
0	11041	107.162812554709	0.023277139482
0	11046	107.186089694191	0.031155007535
0	11051	107.217244701726	0.015551288349
0	11056	107.232795990075	0.008365274657
0	11061	107.241161264732	0.109756050444
0	11066	107.350917315176	0.009914468759
0	11071	107.360831783935	0.001456528091
0	11075	107.362288312026	0.022562480363
0	11081	107.384850792389	0.024114534652
0	11086	107.408965327041	0.110389923899
0	11091	107.51935525094	0.050044337373
0	11096	107.569399588313	0.005008933332
0	11100	107.574408521645	0.040394081846
0	11106	107.614802603491	0.056430982524
0	11111	107.671233586015	0.055569300605
0	11116	107.72680288662	0.050795303594
0	11121	107.777598190214	0.008964150616
0	11126	107.78656234083	0.077570789277
0	11131	107.864133130107	0.006008358938
0	11135	107.870141489045	0.000610910138
0	11138	107.870752399183	0.089052159687
0	11146	107.95980455887	0.023381284064
0	11151	107.983185842934	0.049068208136
0	11156	108.03225405107	0.075672890303
0	11161	108.107926941373	0.071635441586
0	11166	108.179562382959	0.04449070815
0	11171	108.224053091109	0.019732715423
0	11176	108.243785806532	0.028217435805
0	11181	108.272003242337	0.009756242868
0	11186	108.281759485205	0.130066020209
0	11191	108.411825505414	0.002871132006
0	11195	108.41469663742	0.003013376857
0	11198	108.417710014277	0.011856668311
0	11205	108.429566682588	0.009349787627
0	11210	108.438916470215	0.096095769847
0	11216	108.535012240062	0.005395449328
0	11220	108.54040768939	0.041757737785
0	11226	108.582165427175	0.062784277463
0	11231	108.644949704638	0.186459789587
0	11236	108.831409494225	0.061175910897
0	11241	108.892585405122	0.016888604016
0	11246	108.909474009138	0.099162932766
0	11251	109.008636941904	0.031722967159
0	11256	109.040359909063	0.105296448915
0	11261	109.145656357978	0.370270462429
0	11266	109.515926820407	0.067367874811
0	11271	109.583294695218	0.044568073502
0	11277	109.62786276872	0.006901748156
0	11281	109.634764516876	0.000442798907
0	11284	109.635207315783	0.035023269439
0	11292	109.670230585222	0.007409373712
0	11296	109.677639958934	0.028785815964
0	11302	109.706425774898	0.099059445816
0	11307	109.805485220714	0.010375628283
0	11312	109.815860848997	0.004459303745
0	11316	109.820320152742	0.036491250456
0	11322	109.856811403198	0.061234144997
0	11327	109.918045548195	0.067315207298
0	11332	109.985360755493	0.040621341706
0	11337	110.025982097199	0.031532771367
0	11342	110.057514868566	0.039418006034
0	11347	110.0969328746	0.130396846405
0	11352	110.227329721005	0.033489716292
0	11357	110.260819437297	0.116285577043
0	11362	110.37710501434	0.086308948844
0	11367	110.463413963184	0.049349125577
0	11372	110.512763088761	0.009342147539
0	11377	110.5221052363	0.029419863677
0	11382	110.551525099977	0.029997154366
0	11387	110.581522254343	0.010597040659
0	11392	110.592119295002	0.035237964396
0	11397	110.627357259398	0.063309016233
0	11402	110.690666275631	0.041668786423
0	11407	110.732335062054	0.074720865309
0	11412	110.807055927363	0.169889424239
0	11418	110.976945351602	0.034863180844
0	11423	111.011808532446	0.022720562503
0	11428	111.034529094949	0.067852242945
0	11433	111.102381337894	0.012247649306
0	11438	111.1146289872	0.085073864573
0	11443	111.199702851773	0.030249591039
0	11448	111.229952442812	0.070150085849
0	11453	111.300102528661	0.028078736467
0	11458	111.328181265128	0.101925225364
0	11463	111.430106490492	0.047706569308
0	11468	111.4778130598	0.035768432693
0	11473	111.513581492493	0.03111752323
0	11478	111.544699015723	0.02415618299
0	11483	111.568855198713	0.040687409892
0	11488	111.609542608605	0.19928362976
0	11493	111.808826238365	0.013185595244
[...]
4	40336	395.603038748005	0.007777777778
4	40341	395.615946918061	0.007777777778
4	40346	395.703259310717	0.007777777778
4	40351	395.725419690427	0.007777777778
4	40358	395.836429101775	0.007777777778
4	40363	395.844206879553	0.011909903452
4	40368	395.864782311592	0.007777777778
4	40373	395.911093066519	0.007777777778
4	40378	395.918870844297	0.008591445702
4	40383	395.929219824446	0.007777777778
4	40388	395.943254137431	0.007777777778
4	40393	395.951573129526	0.007777777778
4	40398	395.962890556815	0.007777777778
4	40403	396.010168966044	0.007777777778
4	40408	396.026052010071	0.007777777778
4	40413	396.117794117957	0.007777777778
4	40418	396.220727404322	0.007777777778
4	40423	396.2285051821	0.012059422715
4	40428	396.269327006653	0.007777777778
4	40433	396.374673326918	0.007777777778
4	40438	396.425535296797	0.007777777778
4	40443	396.468696326046	0.007777777778
4	40448	396.526048792319	0.007777777778
4	40453	396.533826570097	0.01408320999
4	40458	396.564262563741	0.007777777778
4	40463	396.587503452422	0.007777777778
4	40468	396.652829395455	0.007777777778
4	40473	396.660607173233	0.008810460543
4	40478	396.688297392658	0.007777777778
4	40483	396.696075170436	0.009561537424
4	40488	396.727256631128	0.007777777778
4	40493	396.737105241574	0.007777777778
4	40498	396.744883019352	0.01546482525
4	40503	396.80798795019	0.007777777778
4	40508	396.908201177305	0.007777777778
4	40513	397.062940002389	0.007777777778
4	40519	397.146821720742	0.007777777778
4	40524	397.223806008826	0.007777777778
4	40529	397.280365897106	0.007777777778
4	40534	397.288143674884	0.011354539791
4	40539	397.343198794474	0.007777777778
4	40544	397.417044487102	0.007777777778
4	40549	397.458016248688	0.007777777778
4	40554	397.469352373659	0.007777777778
4	40559	397.477130151437	0.012475460638
4	40564	397.518248502626	0.007777777778
4	40569	397.539497145594	0.007777777778
4	40574	397.575789112278	0.007777777778
4	40579	397.58664225466	0.007777777778
4	40584	397.612381947496	0.007777777778
4	40590	397.6743377513	0.007777777778
4	40595	397.728379264642	0.007777777778
4	40600	397.876545084938	0.007777777778
4	40605	397.888326421149	0.007777777778
4	40610	397.907702200604	0.007777777778
4	40615	397.940179314893	0.007777777778
4	40620	397.947957092671	0.009188834466
4	40625	397.98503115835	0.007777777778
4	40630	398.019647098018	0.007777777778
4	40635	398.066645100476	0.007777777778
4	40640	398.274743752896	0.007777777778
4	40646	398.390148916017	0.007777777778
4	40652	398.450885583719	0.007777777778
4	40657	398.460324657	0.007777777778
4	40662	398.471306896661	0.007777777778
4	40667	398.504101540518	0.007777777778
4	40672	398.511879318296	0.010856435171
4	40677	398.552319930096	0.007777777778
4	40682	398.563422244787	0.007777777778
4	40687	398.618791911245	0.007777777778
4	40692	398.655640726062	0.007777777778
4	40697	398.666346783039	0.007777777778
4	40702	398.68510338865	0.007777777778
4	40707	398.714416644194	0.007777777778
4	40712	398.752493474551	0.007777777778
4	40717	398.832017673496	0.007777777778
4	40722	398.915209163805	0.007777777778
4	40727	398.9475176221	0.007777777778
4	40732	398.955295399878	0.011188239531
4	40737	398.963073177656	0.014403161895
4	40742	399.15629355906	0.007777777778
4	40747	399.164071336838	0.008861887392
4	40752	399.174619057321	0.007777777778
4	40757	399.182396835099	0.011130267023
4	40762	399.242970770941	0.007777777778
4	40767	399.294428524207	0.007777777778
4	40772	399.377164645194	0.007777777778
4	40777	399.394333177856	0.007777777778
4	40782	399.413335764698	0.007777777778
4	40788	399.450960602059	0.007777777778
4	40793	399.458738379837	0.012530792038
4	40798	399.467036683003	0.007777777778
4	40803	399.484667429166	0.007777777778
4	40808	399.509490423012	0.007777777778
4	40813	399.57419431008	0.007777777778
4	40818	399.643841846576	0.007777777778
4	40823	399.651619624354	0.014011975864
4	40828	399.701452586078	0.007777777778
4	40833	399.75500863574	0.007777777778
4	40838	399.969444017132	0.007777777778
4	40843	399.980656975247	0.007777777778
5	1132	10.642383069302	1.7497427729428
5	1289	12.392125842245	2.8439842203271
5	1559	15.236110062572	0.097406112659524
5	1565	15.333516175232	1.9024346530278
5	1761	17.23595082826	2.2046256116711
5	1963	19.440576439931	1.3092017206219
5	2114	20.749778160553	1.2509314144624
5	2270	22.000709575015	0.11511467854468
5	2306	22.11582425356	0.72960066841699
5	2367	22.845424921977	2.2434125061577
5	2648	25.088837428135	1.5389268720193
5	2789	26.627764300154	1.9459898853209
5	2995	28.573754185475	0.88592121481619
5	3081	29.459675400291	0.18042729216097
5	3102	29.640102692452	1.3349786796181
5	3243	30.97508137207	1.0005804027031
5	3349	31.975661774773	1.116298497952
5	3490	33.091960272725	0.02069630988614
5	3491	33.112656582611	3.5089270982599
5	3806	36.621583680871	0.12413257123693
5	3818	36.745716252108	4.4723112063402
5	4219	41.218027458448	0.38033450614625
5	4265	41.598361964594	1.5055428670014
5	4376	43.103904831595	0.17187112607515
5	4402	43.27577595767	0.025470918055955
5	4418	43.301246875726	1.422873652184
5	4564	44.72412052791	2.5418419380455
5	4795	47.265962465955	1.7052626760283
5	4980	48.971225141983	0.52918017716548
5	5032	49.500405319148	0.42254691880841
5	5073	49.922952237956	0.21035406895806
5	5079	50.133306306914	0.38389757030556
5	5120	50.51720387722	0.22816787590492
5	5146	50.745371753125	0.11840210861385
5	5151	50.863773861739	1.9951315541003
5	5377	52.858905415839	0.087687767638471
5	5384	52.946593183477	0.16859012256878
5	5399	53.115183306046	1.2473185878872
5	5521	54.362501893933	1.4909023281008
5	5717	55.853404222034	0.91514986862631
5	5813	56.76855409066	0.65991791598564
5	5874	57.428472006646	0.057283491682193
5	5879	57.485755498328	1.5292838557287
5	6061	59.015039354057	0.65353670335052
5	6117	59.668576057408	0.045944283096809
5	6118	59.714520340505	0.51362367180087
5	6184	60.228144012306	0.97096383248146
5	6300	61.199107844787	1.8837366194409
5	6456	63.082844464228	0.58424342951512
5	6537	63.667087893743	1.2653135196012
5	6643	64.932401413344	2.2794847071428
5	6904	67.211886120487	0.92146422867286
5	7005	68.13335034916	0.071595688093434
5	7020	68.204946037253	0.80381916382911
5	7131	69.008765201082	0.70608122776897
5	7248	69.714846428851	2.9779394686791
5	7554	72.69278589753	0.62531286106851
5	7609	73.318098758599	4.3179877755612
5	8091	77.63608653416	1.1360247486375
5	8172	78.772111282798	0.41257137289339
5	8238	79.184682655691	0.66389680823002
5	8304	79.848579463921	0.27427196157561
5	8345	80.122851425497	0.55713518807078
5	8411	80.679986613568	1.5917736041295
5	8567	82.271760217698	0.50787843884845
5	8620	82.779638656546	0.065804853134166
5	8629	82.84544350968	0.043955581507785
5	8640	82.889399091188	0.45352518197583
5	8691	83.342924273164	0.21838956388903
5	8712	83.561313837053	0.072595209771538
5	8718	83.633909046825	0.6471287952059
5	8794	84.281037842031	0.38473307568657
5	8835	84.665770917718	0.037642398988547
5	8836	84.703413316707	0.072982174528276
5	8847	84.776395491235	0.006017754051277
5	8848	84.782413245286	0.34286173563175
5	8869	85.125274980918	2.5750482721488
5	9100	87.700323253067	1.5611293969924
5	9281	89.261452650059	1.1317476237225
5	9362	90.393200273782	2.3581011162172
5	9577	92.751301389999	4.4444802938786
5	10024	97.195781683878	1.5732090909297
5	10145	98.768990774808	0.63420075347324
5	10206	99.403191528281	0.82512253858391
5	10281	100.228314066865	1.734639157219
5	10497	101.962953224084	0.95716060495693
5	10614	102.920113829041	0.052009752306061
5	10619	102.972123581347	0.44860782272385
5	10696	103.420731404071	1.3622102113625
5	10802	104.782941615433	0.18490565171558
5	10827	104.967847267149	0.30548914389018
5	10869	105.273336411039	0.5731282964944
5	10919	105.846464707533	3.7782186159195
5	11276	109.624683323452	1.3198526449197
5	11417	110.944535968372	1.0950825980883
5	11513	112.03961856646	0.064952068659502
5	11514	112.10457063512	5.0997629911756
5	11975	117.204333626296	0.020950928780344
5	11976	117.225284555076	0.38581367817687
5	12022	117.611098233253	1.4720616936314
5	12188	119.083159926884	1.5559775795415
5	12399	120.639137506426	0.35660638837437
5	12435	120.9957438948	0.2418213815236
5	12476	121.237565276324	1.2078612656432
5	12602	122.445426541967	3.0181404047088
5	12933	125.463566946676	1.326772372875
5	13069	126.790339319551	0.40757784523991
5	13085	127.197917164791	2.7016402175793
5	13326	129.89955738237	0.69669869134307
5	13377	130.596256073713	0.51137315444106
5	13468	131.107629228154	1.2749874832774
5	13593	132.382616711431	0.44384933983179
5	13655	132.826466051263	0.4650819003227
5	13701	133.291547951586	1.6428229939472
5	13862	134.934370945533	0.17265215914776
5	13893	135.107023104681	1.4460065836175
5	14044	136.553029688299	0.055964835101308
5	14050	136.6089945234	1.0573208560959
5	14146	137.666315379496	1.0520548810886
5	14227	138.718370260585	1.665831432912
5	14418	140.384201693497	0.04102317586268
5	14419	140.42522486936	1.0278226418452
5	14505	141.453047511205	0.25885539649276
5	14551	141.711902907698	3.1569357487094
5	14866	144.868838656407	0.61140440050862
5	14928	145.480243056916	0.40627707014993
5	14964	145.886520127066	0.33474585468263
5	15020	146.221265981749	1.3403754351978
5	15116	147.561641416947	1.3048610566368
5	15226	148.866502473584	2.9924039900276
5	15473	151.858906463612	0.32127170303259
5	15508	152.180178166645	0.40701253597223
5	15535	152.587190702617	0.1011066662556
5	15536	152.688297368873	0.94580191175549
5	15662	153.634099280628	3.6439144827893
5	15998	157.278013763417	0.45518622129263
5	16056	157.73319998471	0.093854480607298
5	16065	157.827054465317	0.61904261392606
5	16161	158.446097079243	0.34314043029589
5	16202	158.789237509539	0.07796369705589
5	16218	158.867201206595	0.11712217534859
5	16224	158.984323381944	0.019532894061035
5	16225	159.003856276005	0.150300915603
5	16241	159.154157191608	1.4256568552378
5	16377	160.579814046846	0.94485087225729
5	16503	161.524664919103	0.60286629620259
5	16534	162.127531215306	0.49313995159448
5	16605	162.6206711669	0.9750698930848
5	16716	163.595741059985	0.55917393825374
5	16777	164.154914998239	1.3468871930431
5	16933	165.501802191282	0.79625466822216
5	17038	166.298056859504	0.54242539998946
5	17100	166.840482259493	0.50367343588591
5	17151	167.344155695379	0.45826103933845
5	17217	167.802416734717	0.52650766890223
5	17293	168.328924403619	0.18516015071007
5	17309	168.514084554329	2.5774579892069
5	17550	171.091542543536	1.5792599158814
5	17665	172.670802459417	1.3486747011212
5	17802	174.019477160538	1.7899854976471
5	17948	175.809462658185	0.38450072470919
5	18009	176.193963382894	1.3250600171879
5	18135	177.519023400082	0.024515396711686
5	18136	177.543538796794	2.0818009153801
5	18332	179.625339712174	1.9768337125867
5	18518	181.602173424761	1.0442844652451
5	18599	182.646457890006	0.2980793002922
5	18635	182.944537190298	1.1909452902543
5	18751	184.135482480552	0.72436655621845
5	18827	184.85984903677	0.21445401835126
5	18863	185.074303055121	0.21853466033951
5	18894	185.292837715461	1.4594339727723
5	19049	186.752271688233	0.71972970866103
5	19121	187.472001396894	0.40659008204422
5	19142	187.878591478938	0.0376230601503
5	19143	187.916214539088	0.57618083800869
5	19208	188.492395377097	0.90246161725736
5	19290	189.394856994354	0.38400245639277
5	19331	189.778859450747	0.11340525211801
5	19337	189.892264702865	0.84000045220311
5	19408	190.732265155068	0.234823855034
5	19428	190.967089010102	1.0749710067198
5	19570	192.042060016822	1.968449074182
5	19831	194.010509091004	0.85698118986788
5	19917	194.867490280872	1.2428117301702
5	20023	196.110302011042	0.38300014425266
5	20074	196.493302155295	0.29522620196636
5	20115	196.788528357261	0.24590485339701
5	20166	197.034433210658	1.2914954941471
5	20287	198.325928704805	1.8639336217754
5	20493	200.18986232658	2.4455470081453
5	20764	202.635409334725	0.35977214075771
5	20800	202.995181475483	2.092992662637
5	21031	205.08817413812	0.57664615782248
5	21102	205.664820295942	1.6491816032707
5	21268	207.314001899213	0.095866381041111
5	21284	207.409868280254	0.17819321978019
5	21315	207.588061500034	0.35807473783577
5	21370	207.94613623787	0.43290250422334
5	21407	208.379038742093	0.089590854708997
5	21413	208.468629596802	0.17974590259135
5	21419	208.648375499393	0.42115756209437
5	21460	209.069533061487	0.15499278579964
5	21480	209.224525847287	1.2354669850655
5	21582	210.459992832353	0.076200648548296
5	21583	210.536193480901	3.6484386711664
5	21979	214.184632152067	0.5672831001681
5	22015	214.751915252235	0.98142900215591
5	22091	215.733344254391	0.74136306063138
5	22172	216.474707315022	0.3137571506027
5	22207	216.788464465625	0.36401747580634
5	22249	217.152481941431	1.0691762313973
5	22350	218.221658172828	2.5801133956443
5	22601	220.801771568472	0.98617100513666
5	22727	221.787942573609	1.3976082514571
5	22848	223.185550825066	1.7467032926748
5	22999	224.932254117741	0.36271166750351
5	23045	225.294965785245	0.76291316352367
5	23121	226.057878948769	1.1953490774049
5	23247	227.253228026174	2.4204868437602
5	23418	229.673714869934	1.519282570898
5	23579	231.192997440832	0.53700477655505
5	23635	231.730002217387	0.61437590756028
5	23700	232.344378124947	0.33693488200154
5	23781	232.681313006949	1.0388970971092
5	23883	233.720210104058	0.73190410354563
5	23934	234.452114207604	2.2100669936639
5	24160	236.662181201268	2.556835511201
5	24416	239.219016712469	0.19088791414065
5	24437	239.40990462661	1.2870329525585
5	24588	240.696937579169	2.8545093420345
5	24888	243.551446921203	0.68104669136383
5	24964	244.232493612567	1.8438990063843
5	25181	246.076392618951	0.68815238274721
5	25272	246.764545001698	0.16742310587527
5	25283	246.931968107573	1.0461779107935
5	25404	247.978146018367	0.81404557128628
5	25495	248.792191589653	0.59379274947838
5	25531	249.385984339131	1.6513512845482
5	25687	251.037335623679	0.79992975413413
5	25767	251.837265377813	1.3407435436013
5	25914	253.178008921414	3.546519412285
5	26247	256.724528333699	0.38756056482902
5	26316	257.112088898528	2.6943502277727
5	26622	259.806439126301	2.4301287673818
5	26867	262.236567893683	1.8368746254136
5	27014	264.073442519097	0.56118263673512
5	27040	264.634625155832	0.13587499978734
5	27055	264.770500155619	3.0517266508347
5	27396	267.822226806454	0.81310506127079
5	27493	268.635331867725	0.53469654707385
5	27524	269.170028414799	0.45638038179184
5	27560	269.626408796591	1.3600986488686
5	27716	270.98650744546	2.4280971486718
5	27967	273.414604594132	0.35693350592393
5	27993	273.771538100056	0.37641005917311
5	28044	274.147948159229	0.28834412943154
5	28070	274.436292288661	2.6702621138134
5	28361	277.106554402474	0.53155111233632
5	28402	277.63810551481	0.27226302575806
5	28413	277.910368540568	0.20590174216981
5	28434	278.116270282738	0.54540114401112
5	28495	278.661671426749	1.1145676257351
5	28616	279.776239052484	3.2179424458082
5	28932	282.994181498292	0.67512008624611
5	28992	283.669301584538	0.90507063546827
5	29074	284.574372220006	1.0446652166736
5	29180	285.61903743668	2.6904355679545
5	29471	288.309473004635	0.17289553424752
5	29497	288.482368538883	0.77403254018779
5	29588	289.256401079071	2.3963653022232
5	29869	291.652766381294	0.25881849190014
5	29885	291.911584873194	0.084287698711557
5	29891	291.995872571906	1.2481438837819
5	30002	293.244016455688	0.35942610195392
5	30018	293.603442557642	0.73725266740287
5	30089	294.340695225045	0.00017226737112894
5	30090	294.340867492416	0.7041538706097
5	30151	295.045021363026	0.29716654891721
5	30192	295.342187911943	0.14674344863426
5	30198	295.488931360577	0.32344049781518
5	30274	295.812371858392	0.15655960986413
5	30285	295.968931468256	2.5233059769547
5	30511	298.492237445211	2.653634700773
5	30776	301.145872145984	0.4865721766089
5	30833	301.632444322593	3.1248908265159
5	31244	304.757335149109	0.036856100265045
5	31250	304.794191249374	3.3793643634277
5	31585	308.173555612802	0.44626364683142
5	31637	308.619819259633	0.44283875066109
5	31692	309.062658010294	0.072106721015444
5	31694	309.134764731309	0.046955561295024
5	31705	309.181720292604	1.2859234563088
5	31821	310.467643748913	0.80727327424291
5	31912	311.274917023156	0.035989330243977
5	31913	311.3109063534	1.3329791014808
5	32054	312.643885454881	0.52335330945181
5	32100	313.167238764333	1.0442561364623
5	32163	314.211494900795	0.31148160237899
5	32177	314.522976503174	0.05438528076063
5	32187	314.577361783935	1.3654995125959
5	32303	315.942861296531	0.26511573053246
5	32330	316.207977027063	1.1574308527079
5	32411	317.365407879771	1.2237819129032
5	32492	318.589189792674	0.55104650879716
5	32503	319.140236301471	0.056660132481977
5	32509	319.196896433953	0.012578844169285
5	32510	319.209475278122	1.8740350223149
5	32691	321.083510300437	0.032096022254917
5	32692	321.115606322692	4.517265769797
5	33098	325.632872092489	0.37801831032794
5	33104	326.010890402817	0.28475255875747
5	33140	326.295642961574	0.013397030253942
5	33141	326.309039991828	0.055634606666467
5	33147	326.364674598494	0.24422858621021
5	33163	326.608903184704	3.8968045745812
5	33539	330.505707759285	3.8815145051858
5	33922	334.387222264471	1.457645527289
5	34111	335.84486779176	0.93017622430314
5	34177	336.775044016063	0.6054986403983
5	34233	337.380542656461	1.5879596316856
5	34414	338.968502288147	0.65057945553797
5	34479	339.619081743685	1.0583289650098
5	34626	340.677410708695	2.4710393435757
5	34852	343.148450052271	0.20738934538092
5	34863	343.355839397652	0.4397927275199
5	34913	343.795632125172	2.0652782945952
5	35175	345.860910419767	0.054646097332417
5	35181	345.915556517099	1.5805872326662
5	35337	347.496143749765	0.95184104232238
5	35458	348.447984792087	1.0434762683305
5	35549	349.491461060417	0.37475855371792
5	35600	349.866219614135	0.67144452296538
5	35661	350.5376641371	1.1443182097428
5	35732	351.681982346843	0.2864516259746
5	35808	351.968433972818	2.955551109083
5	36044	354.923985081901	0.28883805810682
5	36060	355.212823140008	0.44719358233423
5	36110	355.660016722342	0.041790938660708
5	36112	355.701807661003	0.28368759390611
5	36148	355.985495254909	2.1064087703794
5	36389	358.091904025288	0.054405361488727
5	36390	358.146309386777	0.56364897775769
5	36471	358.709958364535	1.7817691944155
5	36646	360.49172755895	0.80385130692133
5	36763	361.295578865871	0.081622073993641
5	36764	361.377200939865	1.2471334381115
5	36915	362.624334377976	3.0402168214605
5	37221	365.664551199437	0.97392510929286
5	37327	366.63847630873	1.2246777917109
5	37453	367.863154100441	0.27394749844421
5	37484	368.137101598885	2.4251239192052
5	37720	370.56222551809	1.1735034073549
5	37841	371.735728925445	1.6843817062207
5	38037	373.420110631666	0.33485666397333
5	38058	373.754967295639	0.21161230964626
5	38074	373.966579605285	0.8155633609452
5	38130	374.78214296623	0.1934676234422
5	38156	374.975610589672	1.0922750218939
5	38271	376.067885611566	3.2541862017122
5	38607	379.322071813278	0.60187617542478
5	38659	379.923947988703	0.34395331079869
5	38709	380.267901299502	2.0718045033315
5	38886	382.339705802834	1.5635735801071
5	39097	383.903279382941	0.20109608529845
5	39138	384.104375468239	0.18728201992852
5	39174	384.291657488168	0.93211642814992
5	39275	385.223773916318	0.35537611953993
5	39296	385.579150035858	0.19454037174839
5	39312	385.773690407606	1.1192951441349
5	39453	386.892985551741	2.5322262084868
5	39674	389.425211760228	0.28557720389302
5	39690	389.710788964121	0.41726996886984
5	39745	390.128058932991	1.3937910675294
5	39862	391.52185000052	0.2266873003839
5	39893	391.748537300904	2.1140831923442
5	40149	393.862620493248	0.1200430175164
5	40165	393.982663510764	0.38621034861411
5	40206	394.368873859378	0.3726247133898
5	40237	394.741498572768	0.35483075889559
5	40283	395.096329331664	0.6962216720257
5	40354	395.79255100369	0.028124467658638
5	40355	395.820675471349	1.2672008186239
5	40516	397.087876289973	0.5493238895804
5	40587	397.637200179553	0.72066397458925
5	40643	398.357864154142	0.067686490025652
5	40649	398.425550644168	1.0125991278631
5	40785	399.438149772031	0.85485689790091

