file 3816 1612439762                                            
version 2
run non-monitoring-9-20210204-12:56:02-17472
attr configname non-monitoring
attr datetime 20210204-12:56:02
attr experiment non-monitoring
attr inifile aerocom.ini
attr iterationvars ""
attr iterationvarsf ""
attr measurement ""
attr network Aerocom
attr processid 17472
attr repetition 9
attr replication #9
attr resultdir results
attr runnumber 9
attr seedset 9
param **.t 1s
param **.k 1s
param **.nA 10
param **.nDL 10
param **.dataLink[*].s "70 byte"
param **.dataLink[*].X 5s
param **.dataLink[*].dimPoolMax 9000
param **.dataLink[*].dimPoolMin 9000
param **.dataLink[*].tDistribution "\"exponential\""
param **.aircraft[*].m 1s
param **.aircraft[*].linkSelector.DLMaxCapacity 0
param **.aircraft[*].linkSelector.trasmitting false
param **.operationMode 1

vector 0 Aerocom.aircraft[0].packetGenerator arrivalTime:vector ETV
attr "" ""
attr source computeArrivalTime
vector 1 Aerocom.aircraft[0].dataLink[0] serviceTime:vector ETV
attr "" ""
attr source computeServiceTime
vector 2 Aerocom.aircraft[0].dataLink[0] tDistribution:vector ETV
attr "" ""
attr source computeTDistribution
vector 3 Aerocom.aircraft[0].dataLink[1] serviceTime:vector ETV
attr "" ""
attr source computeServiceTime
vector 4 Aerocom.aircraft[0].dataLink[1] tDistribution:vector ETV
attr "" ""
attr source computeTDistribution
vector 5 Aerocom.aircraft[0].dataLink[2] serviceTime:vector ETV
attr "" ""
attr source computeServiceTime
vector 6 Aerocom.aircraft[0].dataLink[2] tDistribution:vector ETV
attr "" ""
attr source computeTDistribution
vector 7 Aerocom.aircraft[0].dataLink[3] serviceTime:vector ETV
attr "" ""
attr source computeServiceTime
vector 8 Aerocom.aircraft[0].dataLink[3] tDistribution:vector ETV
attr "" ""
attr source computeTDistribution
vector 9 Aerocom.aircraft[0].dataLink[4] serviceTime:vector ETV
attr "" ""
attr source computeServiceTime
vector 10 Aerocom.aircraft[0].dataLink[4] tDistribution:vector ETV
attr "" ""
attr source computeTDistribution
vector 11 Aerocom.aircraft[0].dataLink[5] serviceTime:vector ETV
attr "" ""
attr source computeServiceTime
vector 12 Aerocom.aircraft[0].dataLink[5] tDistribution:vector ETV
attr "" ""
attr source computeTDistribution
vector 13 Aerocom.aircraft[0].dataLink[6] serviceTime:vector ETV
attr "" ""
attr source computeServiceTime
vector 14 Aerocom.aircraft[0].dataLink[6] tDistribution:vector ETV
attr "" ""
attr source computeTDistribution
vector 15 Aerocom.aircraft[0].dataLink[7] serviceTime:vector ETV
attr "" ""
attr source computeServiceTime
vector 16 Aerocom.aircraft[0].dataLink[7] tDistribution:vector ETV
attr "" ""
attr source computeTDistribution
vector 17 Aerocom.aircraft[0].dataLink[8] serviceTime:vector ETV
attr "" ""
attr source computeServiceTime
vector 18 Aerocom.aircraft[0].dataLink[8] tDistribution:vector ETV
attr "" ""
attr source computeTDistribution
vector 19 Aerocom.aircraft[0].dataLink[9] serviceTime:vector ETV
attr "" ""
attr source computeServiceTime
vector 20 Aerocom.aircraft[0].dataLink[9] tDistribution:vector ETV
attr "" ""
attr source computeTDistribution
vector 21 Aerocom.aircraft[1].packetGenerator arrivalTime:vector ETV
attr "" ""
attr source computeArrivalTime
0	3261 22 0 0 0 0 1 0.554640654343 0.554640654343 0.554640654343 0.30762625545003
1	3283 26 0 0 0 0 1 0.0077777777777778 0.0077777777777778 0.0077777777777778 6.0493827160494e-005
2	3309 23 0 0 0 0 1 1.9933371288221 1.9933371288221 1.9933371288221 3.9733929091406
3	3332 26 0 0 0 0 1 0.0077777777777778 0.0077777777777778 0.0077777777777778 6.0493827160494e-005
4	3358 23 0 0 0 0 1 1.6120880606872 1.6120880606872 1.6120880606872 2.5988279154102
5	3381 26 0 0 0 0 1 0.0077777777777778 0.0077777777777778 0.0077777777777778 6.0493827160494e-005
6	3407 24 0 0 0 0 1 0.33534122806855 0.33534122806855 0.33534122806855 0.11245373924252
7	3431 26 0 0 0 0 1 0.0077777777777778 0.0077777777777778 0.0077777777777778 6.0493827160494e-005
8	3457 24 0 0 0 0 1 0.42541134534935 0.42541134534935 0.42541134534935 0.18097481275195
9	3481 26 0 0 0 0 1 0.0077777777777778 0.0077777777777778 0.0077777777777778 6.0493827160494e-005
10	3507 26 0 0 0 0 1 0.076078322674164 0.076078322674164 0.076078322674164 0.0057879111809142
11	3533 27 0 0 0 0 1 0.0077777777777778 0.0077777777777778 0.0077777777777778 6.0493827160494e-005
12	3560 24 0 0 0 0 1 3.5094063560002 3.5094063560002 3.5094063560002 12.315932971534
13	3584 27 0 0 0 0 1 0.0077777777777778 0.0077777777777778 0.0077777777777778 6.0493827160494e-005
14	3611 24 0 0 0 0 1 1.4406964857686 1.4406964857686 1.4406964857686 2.075606364106
15	3635 27 0 0 0 0 1 0.0077777777777778 0.0077777777777778 0.0077777777777778 6.0493827160494e-005
16	3662 25 0 0 0 0 1 0.67389886295292 0.67389886295292 0.67389886295292 0.45413967748924
17	3687 27 0 0 0 0 1 0.0077777777777778 0.0077777777777778 0.0077777777777778 6.0493827160494e-005
18	3714 25 0 0 0 0 1 0.60279300525426 0.60279300525426 0.60279300525426 0.36335940718347
19	3739 27 0 0 0 0 1 0.0077777777777778 0.0077777777777778 0.0077777777777778 6.0493827160494e-005
20	3766 25 0 0 0 0 1 0.40540630333587 0.40540630333587 0.40540630333587 0.16435427078446
21	3791 23 0 0 0 0 1 0.655469014151 0.655469014151 0.655469014151 0.42963962851208

