version 2
run Non-monitoring-6-20210208-19:10:41-5260
attr configname Non-monitoring
attr datetime 20210208-19:10:41
attr experiment Non-monitoring
attr inifile aerocom.ini
attr iterationvars ""
attr iterationvarsf ""
attr measurement ""
attr network Aerocom
attr processid 5260
attr repetition 6
attr replication #6
attr resultdir results
attr runnumber 6
attr seedset 6
param **.t 1s
param **.k 15ms
param **.nA 1
param **.nDL 10
param **.s "70 byte"
param **.X 5s
param **.dimPoolMax 10000
param **.dimPoolMin 8000
param **.tDistribution "\"lognormal\""
param **.m 1s
param **.DLMaxCapacity 0
param **.trasmitting false
param **.operationMode 1

vector 0 Aerocom.aircraft[0].packetGenerator arrivalTime:vector ETV
attr "" ""
attr source computeArrivalTime
vector 1 Aerocom.aircraft[0].dataLink[0] serviceTime:vector ETV
attr "" ""
attr source computeServiceTime
vector 2 Aerocom.aircraft[0].dataLink[0] tDistribution:vector ETV
attr "" ""
attr source computeTDistribution
vector 3 Aerocom.aircraft[0].dataLink[1] serviceTime:vector ETV
attr "" ""
attr source computeServiceTime
vector 4 Aerocom.aircraft[0].dataLink[1] tDistribution:vector ETV
attr "" ""
attr source computeTDistribution
vector 5 Aerocom.aircraft[0].dataLink[2] serviceTime:vector ETV
attr "" ""
attr source computeServiceTime
vector 6 Aerocom.aircraft[0].dataLink[2] tDistribution:vector ETV
attr "" ""
attr source computeTDistribution
vector 7 Aerocom.aircraft[0].dataLink[3] serviceTime:vector ETV
attr "" ""
attr source computeServiceTime
vector 8 Aerocom.aircraft[0].dataLink[3] tDistribution:vector ETV
attr "" ""
attr source computeTDistribution
vector 9 Aerocom.aircraft[0].dataLink[4] serviceTime:vector ETV
attr "" ""
attr source computeServiceTime
vector 10 Aerocom.aircraft[0].dataLink[4] tDistribution:vector ETV
attr "" ""
attr source computeTDistribution
vector 11 Aerocom.aircraft[0].dataLink[5] serviceTime:vector ETV
attr "" ""
attr source computeServiceTime
vector 12 Aerocom.aircraft[0].dataLink[5] tDistribution:vector ETV
attr "" ""
attr source computeTDistribution
vector 13 Aerocom.aircraft[0].dataLink[6] serviceTime:vector ETV
attr "" ""
attr source computeServiceTime
vector 14 Aerocom.aircraft[0].dataLink[6] tDistribution:vector ETV
attr "" ""
attr source computeTDistribution
vector 15 Aerocom.aircraft[0].dataLink[7] serviceTime:vector ETV
attr "" ""
attr source computeServiceTime
vector 16 Aerocom.aircraft[0].dataLink[7] tDistribution:vector ETV
attr "" ""
attr source computeTDistribution
vector 17 Aerocom.aircraft[0].dataLink[8] serviceTime:vector ETV
attr "" ""
attr source computeServiceTime
vector 18 Aerocom.aircraft[0].dataLink[8] tDistribution:vector ETV
attr "" ""
attr source computeTDistribution
vector 19 Aerocom.aircraft[0].dataLink[9] serviceTime:vector ETV
attr "" ""
attr source computeServiceTime
vector 20 Aerocom.aircraft[0].dataLink[9] tDistribution:vector ETV
attr "" ""
attr source computeTDistribution
vector 21 Aerocom.aircraft[0].dataLink[6] queueLength:vector ETV
attr "" ""
attr source computeQueueLength
vector 22 Aerocom.aircraft[0].dataLink[6] waitingTime:vector ETV
attr "" ""
attr source computeWaitingTime
vector 23 Aerocom.aircraft[0].dataLink[6] responseTime:vector ETV
attr "" ""
attr source computeResponseTime
0	0	0	0.015763379456
0	12	0.015763379456	0.005858913173
0	16	0.021622292629	0.028190418199
0	22	0.049812710828	0.01213546339
0	27	0.061948174218	0.019987017603
0	33	0.081935191821	0.005108071746
0	37	0.087043263567	0.001775050595
0	40	0.088818314162	0.015140399509
0	47	0.103958713671	0.005301426326
0	52	0.109260139997	0.003413901767
0	57	0.112674041764	0.01742185283
0	63	0.130095894594	0.005039626595
0	67	0.135135521189	0.029666932996
0	73	0.164802454185	0.01459854119
0	78	0.179400995375	0.003321569315
0	82	0.18272256469	0.007473158276
0	87	0.190195722966	0.01605864122
0	93	0.206254364186	0.012147014216
0	98	0.218401378402	0.018042383157
0	103	0.236443761559	0.035423874175
0	108	0.271867635734	0.006517056381
0	112	0.278384692115	0.011040479474
0	118	0.289425171589	0.023406898409
0	123	0.312832069998	0.04189137925
0	128	0.354723449248	0.025233995393
0	133	0.379957444641	0.020042853347
0	138	0.400000297988	0.00329888009
0	142	0.403299178078	0.004612516033
0	147	0.407911694111	0.044773457059
0	153	0.45268515117	0.008289209438
0	158	0.460974360608	0.009711150395
0	163	0.470685511003	0.053049299369
0	168	0.523734810372	0.016476200338
0	173	0.54021101071	0.003162573219
0	177	0.543373583929	0.003560767838
0	180	0.546934351767	0.011613221378
0	187	0.558547573145	0.024716938399
0	193	0.583264511544	0.010020065781
0	198	0.593284577325	0.005778014984
0	202	0.599062592309	0.022331731138
0	208	0.621394323447	0.005220740277
0	212	0.626615063724	0.018156883672
0	218	0.644771947396	0.005391284266
0	222	0.650163231662	0.028073377114
0	228	0.678236608776	0.026394270013
0	233	0.704630878789	0.011859820799
0	238	0.716490699588	0.01206231051
0	243	0.728553010098	0.006722526125
0	247	0.735275536223	0.003191910648
0	252	0.738467446871	0.024066570369
0	258	0.76253401724	0.018789923256
0	263	0.781323940496	0.043503119848
0	268	0.824827060344	0.015319367729
0	273	0.840146428073	0.012340220588
0	278	0.852486648661	0.011427938804
0	283	0.863914587465	0.024462922974
0	288	0.888377510439	0.012747994259
0	293	0.901125504698	0.020684511148
0	298	0.921810015846	0.000186138238
0	302	0.921996154084	0.002640902135
0	305	0.924637056219	0.01782336066
0	312	0.942460416879	0.030299331648
0	318	0.972759748527	0.011474778898
0	323	0.984234527425	0.009528896801
0	328	0.993763424226	0.001236622857
0	332	0.995000047083	0.048171958113
0	338	1.043172005196	0.00020597021
0	342	1.043377975406	0.010388075241
0	347	1.053766050647	0.00488289915
0	352	1.058648949797	0.02097336197
0	358	1.079622311767	0.089198984463
0	363	1.16882129623	0.01214711602
0	368	1.18096841225	0.003835013615
0	372	1.184803425865	0.000951019235
0	375	1.1857544451	0.00166423077
0	378	1.18741867587	0.001811720547
0	383	1.189230396417	0.000246526484
0	386	1.189476922901	0.009953593265
0	391	1.199430516166	0.006269764895
0	396	1.205700281061	0.009516499043
0	401	1.215216780104	0.024769380003
0	411	1.239986160107	0.000544052833
0	414	1.24053021294	0.040909635055
0	424	1.281439847995	0.006793543604
0	428	1.288233391599	0.066978354512
0	434	1.355211746111	0.000855560526
0	438	1.356067306637	0.000166167357
0	441	1.356233473994	0.020998101386
0	448	1.37723157538	0.023049975741
0	454	1.400281551121	0.006049111412
0	458	1.406330662533	0.0173450646
0	464	1.423675727133	0.022101322958
0	469	1.445777050091	0.010874026161
0	474	1.456651076252	0.009829809527
0	479	1.466480885779	0.004702449746
0	483	1.471183335525	0.006007719698
0	488	1.477191055223	0.01639458934
0	494	1.493585644563	0.014770822759
0	499	1.508356467322	0.02251712625
0	504	1.530873593572	0.008367875193
0	509	1.539241468765	0.009684387466
0	514	1.548925856231	0.004336437766
0	518	1.553262293997	0.066077883629
0	524	1.619340177626	0.002185792701
0	528	1.621525970327	0.010284990078
0	533	1.631810960405	0.021480546521
0	539	1.653291506926	0.016699285144
0	544	1.66999079207	0.037451292399
0	549	1.707442084469	0.008438608523
0	554	1.715880692992	0.00327084749
0	558	1.719151540482	0.00453640853
0	563	1.723687949012	0.017672064722
0	569	1.741360013734	0.043288744045
0	574	1.784648757779	0.010015578805
0	579	1.794664336584	0.01742957514
0	584	1.812093911724	0.0002320462
0	588	1.812325957924	0.016166949569
0	594	1.828492907493	0.009298267178
0	599	1.837791174671	0.000540142702
0	603	1.838331317373	0.010786140006
0	608	1.849117457379	0.035498658652
0	614	1.884616116031	0.003693981279
0	618	1.88831009731	0.008138494077
0	623	1.896448591387	0.016324999232
0	629	1.912773590619	0.009692336486
0	634	1.922465927105	0.013440835238
0	639	1.935906762343	0.002186379877
0	643	1.93809314222	0.010459583279
0	648	1.948552725499	0.006746965902
0	653	1.955299691401	0.025898733928
0	659	1.981198425329	0.005921520762
0	663	1.987119946091	0.003549586006
0	668	1.990669532097	0.002402845382
0	671	1.993072377479	0.004176041268
0	676	1.997248418747	0.023836127153
0	684	2.0210845459	0.052661945616
0	689	2.073746491516	0.01111119745
0	694	2.084857688966	0.016087080981
0	699	2.100944769947	0.033689430135
0	704	2.134634200082	0.017631599863
0	709	2.152265799945	0.023728488183
0	714	2.175994288128	0.066698139979
0	719	2.242692428107	0.014887582689
0	724	2.257580010796	0.020461013847
0	729	2.278041024643	0.001042292929
0	733	2.279083317572	0.012605106891
0	738	2.291688424463	0.023215974025
0	744	2.314904398488	0.009940861568
0	749	2.324845260056	0.007144576215
0	753	2.331989836271	0.005197545974
0	759	2.337187382245	0.001236068354
0	762	2.338423450599	0.013699732571
0	769	2.35212318317	0.002498195782
0	772	2.354621378952	0.037032619678
0	780	2.39165399863	0.007102566958
0	784	2.398756565588	0.002809173229
0	789	2.401565738817	0.006490696864
0	794	2.408056435681	0.007947811914
0	799	2.416004247595	0.000730057815
0	802	2.41673430541	0.039412784386
0	811	2.456147089796	0.00328064367
0	815	2.459427733466	0.009420197119
0	820	2.468847930585	0.007327418457
0	825	2.476175349042	0.010394842648
0	831	2.48657019169	0.026917620148
0	836	2.513487811838	0.022855076146
0	841	2.536342887984	0.0223712427
0	846	2.558714130684	0.000155093484
0	850	2.558869224168	0.024409006185
0	856	2.583278230353	0.012814236965
0	861	2.596092467318	0.003188299631
0	865	2.599280766949	0.022935478092
0	872	2.622216245041	0.011533103566
0	877	2.633749348607	0.019737456364
0	882	2.653486804971	0.009694711777
0	887	2.663181516748	0.05013768202
0	892	2.713319198768	0.015635911245
0	898	2.728955110013	0.002887247947
0	902	2.73184235796	0.011626591597
0	907	2.743468949557	0.024697034935
0	913	2.768165984492	0.037720503846
0	918	2.805886488338	0.002527676282
0	922	2.80841416462	0.009119860895
0	927	2.817534025515	0.024027262488
0	933	2.841561288003	0.015189648597
0	938	2.8567509366	0.05057858523
0	943	2.90732952183	0.013870880404
0	948	2.921200402234	0.004485346997
0	952	2.925685749231	0.00444283747
0	957	2.930128586701	0.006466131946
0	962	2.936594718647	0.021355499506
0	968	2.957950218153	0.008163059772
0	973	2.966113277925	0.011683355428
0	978	2.977796633353	0.016588113478
0	983	2.994384746831	0.005167871637
0	987	2.999552618468	0.004898291114
0	992	3.004450909582	0.030271610967
0	998	3.034722520549	0.011579631043
0	1003	3.046302151592	0.000175762763
0	1007	3.046477914355	0.001353725621
0	1010	3.047831639976	0.005204849598
0	1013	3.053036489574	0.029410915196
0	1023	3.08244740477	0.067489300339
0	1028	3.149936705109	0.003350797582
0	1032	3.153287502691	0.009961226472
0	1037	3.163248729163	0.013455062486
0	1043	3.176703791649	0.013156784892
0	1048	3.189860576541	0.034856060421
0	1053	3.224716636962	0.000274965732
0	1057	3.224991602694	0.006962624461
0	1060	3.231954227155	0.033191632733
0	1068	3.265145859888	0.040554935353
0	1073	3.305700795241	0.001940009808
0	1077	3.307640805049	0.023548226276
0	1083	3.331189031325	0.015164698525
0	1088	3.34635372985	0.004432547275
0	1093	3.350786277125	0.002450600184
0	1096	3.353236877309	0.008192538998
0	1101	3.361429416307	0.007531137439
0	1106	3.368960553746	0.021523430104
0	1114	3.39048398385	0.011941727605
0	1119	3.402425711455	0.021616355396
0	1124	3.424042066851	0.009593316487
0	1129	3.433635383338	0.002273483935
0	1133	3.435908867273	0.020577353312
0	1139	3.456486220585	0.017280715941
0	1144	3.473766936526	0.012923760456
0	1149	3.486690696982	0.000663488862
0	1153	3.487354185844	0.011619819578
0	1158	3.498974005422	0.010215911816
0	1163	3.509189917238	0.00804771383
0	1169	3.517237631068	0.002982638333
0	1173	3.520220269401	0.004587534207
0	1176	3.524807803608	0.000678394525
0	1181	3.525486198133	0.000619612726
0	1184	3.526105810859	0.008284930872
0	1189	3.534390741731	0.025391288496
0	1198	3.559782030227	0.025119489099
0	1204	3.584901519326	0.016154847867
0	1209	3.601056367193	0.005514851671
0	1213	3.606571218864	0.004173045868
0	1218	3.610744264732	0.004025496232
0	1221	3.614769760964	0.016383232793
0	1228	3.631152993757	0.000539429535
0	1233	3.631692423292	0.021972371737
0	1239	3.653664795029	0.004277001314
0	1243	3.657941796343	0.011318272108
0	1249	3.669260068451	0.022738846967
0	1254	3.691998915418	0.028052951318
0	1259	3.720051866736	0.018321114948
0	1264	3.738372981684	0.005927022482
0	1268	3.744300004166	0.013173553952
0	1274	3.757473558118	0.002415589484
0	1278	3.759889147602	0.062752782834
0	1284	3.822641930436	0.022954154765
0	1289	3.845596085201	0.014282192895
0	1294	3.859878278096	0.032022087677
0	1299	3.891900365773	0.047813470379
0	1304	3.939713836152	0.025671282811
0	1309	3.965385118963	0.010013082178
0	1314	3.975398201141	0.010376132312
0	1319	3.985774333453	0.045568511571
0	1324	4.031342845024	0.008495433573
0	1329	4.039838278597	0.020773998569
0	1334	4.060612277166	0.005958676714
0	1338	4.06657095388	0.009273490861
0	1345	4.075844444741	0.052201064626
0	1350	4.128045509367	0.012735003305
0	1355	4.140780512672	0.039937857418
0	1360	4.18071837009	0.03189062813
0	1365	4.21260899822	0.030967810539
0	1370	4.243576808759	0.004557419709
0	1374	4.248134228468	0.006223919668
0	1379	4.254358148136	0.017249498031
0	1385	4.271607646167	0.025167143652
0	1390	4.296774789819	0.011280697792
0	1395	4.308055487611	0.007170093504
0	1399	4.315225581115	0.00216952802
0	1404	4.317395109135	0.0001161535
0	1407	4.317511262635	0.034823537637
0	1415	4.352334800272	0.001813016126
0	1419	4.354147816398	0.022794331007
0	1425	4.376942147405	0.017656053143
0	1430	4.394598200548	0.008484645556
0	1435	4.403082846104	0.020270348897
0	1440	4.423353195001	0.010555737011
0	1445	4.433908932012	0.007476675295
0	1449	4.441385607307	0.018153235482
0	1456	4.459538842789	0.015460216142
0	1461	4.474999058931	0.006102223417
0	1465	4.481101282348	0.035036581491
0	1471	4.516137863839	0.011342570483
0	1476	4.527480434322	0.021794119233
0	1481	4.549274553555	0.001270636953
0	1485	4.550545190508	0.080669606657
0	1491	4.631214797165	0.019726744848
0	1496	4.650941542013	0.060631731273
0	1501	4.711573273286	0.03182330678
0	1506	4.743396580066	0.03120299514
0	1511	4.774599575206	0.001318307646
0	1515	4.775917882852	0.043653300972
0	1521	4.819571183824	0.008437260677
0	1526	4.828008444501	0.018361452389
0	1532	4.84636989689	0.041738208618
0	1537	4.888108105508	0.006107945367
0	1541	4.894216050875	0.013902516134
0	1547	4.908118567009	0.010890215839
0	1552	4.919008782848	0.001286034297
0	1556	4.920294817145	0.007203723735
0	1561	4.92749854088	0.033813804794
0	1567	4.961312345674	0.030680279851
0	1573	4.991992625525	0.0050639894
0	1577	4.997056614925	0.103084662814
0	1594	5.100141277739	0.020744478229
0	1599	5.120885755968	0.041701797736
0	1604	5.162587553704	0.002315670265
0	1608	5.164903223969	0.01807632852
0	1614	5.182979552489	0.006564263921
0	1618	5.18954381641	0.012418873409
0	1624	5.201962689819	0.007825786104
0	1629	5.209788475923	0.014477793895
0	1634	5.224266269818	0.02016777295
0	1639	5.244434042768	0.000627182365
0	1643	5.245061225133	0.017959176723
0	1649	5.263020401856	0.023963091764
0	1654	5.28698349362	0.00137209791
0	1658	5.28835559153	0.011561592442
0	1663	5.299917183972	0.001191165183
0	1666	5.301108349155	0.005699846029
0	1671	5.306808195184	0.002065193768
0	1674	5.308873388952	0.014364816627
0	1681	5.323238205579	0.018936348858
0	1689	5.342174554437	0.086924556579
0	1694	5.429099111016	0.01214031812
0	1699	5.441239429136	0.007305973107
0	1703	5.448545402243	0.017660232002
0	1709	5.466205634245	0.008869073872
0	1714	5.475074708117	5.4668828e-005
0	1718	5.475129376945	0.002034343379
0	1721	5.477163720324	0.013760442746
0	1728	5.49092416307	0.007246022646
0	1733	5.498170185716	0.008373658367
0	1738	5.506543844083	0.036878137165
0	1744	5.543421981248	0.000192218973
0	1748	5.543614200221	0.005813150205
0	1751	5.549427350426	0.008683064015
0	1756	5.558110414441	0.009997056704
0	1763	5.568107471145	0.004831403882
0	1766	5.572938875027	0.003136150528
0	1771	5.576075025555	0.010823392573
0	1776	5.586898418128	0.005077052297
0	1781	5.591975470425	0.041755747854
0	1789	5.633731218279	0.008758851152
0	1794	5.642490069431	0.010103354781
0	1799	5.652593424212	0.044446799375
0	1804	5.697040223587	0.009652621938
0	1809	5.706692845525	0.001475128663
0	1813	5.708167974188	0.003892453421
0	1816	5.712060427609	0.003768073386
0	1821	5.715828500995	0.01127513468
0	1826	5.727103635675	0.012674454188
0	1833	5.739778089863	0.027904435386
0	1839	5.767682525249	0.053408068204
0	1844	5.821090593453	0.010501008703
0	1849	5.831591602156	0.001843317076
0	1853	5.833434919232	0.020351584059
0	1859	5.853786503291	0.018406745434
0	1864	5.872193248725	0.001907419565
0	1868	5.87410066829	0.021269553263
0	1875	5.895370221553	0.010786825751
0	1880	5.906157047304	0.020134024859
0	1885	5.926291072163	0.00421026038
0	1889	5.930501332543	0.039797638121
0	1895	5.970298970664	0.041654565565
0	1900	6.011953536229	0.00375459621
0	1904	6.015708132439	0.023204182788
0	1910	6.038912315227	0.014842192144
0	1915	6.053754507371	0.003396031486
0	1919	6.057150538857	0.018060045635
0	1926	6.075210584492	0.00294602254
0	1930	6.078156607032	0.050378937948
0	1936	6.12853554498	0.000985099718
0	1940	6.129520644698	0.001954557609
0	1943	6.131475202307	0.009402633617
0	1948	6.140877835924	0.000730534123
0	1951	6.141608370047	0.005402105975
0	1956	6.147010476022	0.009891614912
0	1961	6.156902090934	0.001822275422
0	1964	6.158724366356	0.0038664273
0	1969	6.162590793656	0.00434700967
0	1974	6.166937803326	0.05201489735
0	1987	6.218952700676	0.002626052965
0	1991	6.221578753641	0.000333339001
0	1994	6.221912092642	0.009903493111
0	1999	6.231815585753	0.000485712942
0	2002	6.232301298695	0.002148112752
0	2007	6.234449411447	0.006109284289
0	2010	6.240558695736	0.006177006606
0	2015	6.246735702342	0.019703513071
0	2024	6.266439215413	0.048405995705
0	2032	6.314845211118	0.001025705223
0	2036	6.315870916341	0.002600869394
0	2039	6.318471785735	0.005723876932
0	2044	6.324195662667	0.027487349141
0	2052	6.351683011808	0.003220296705
0	2056	6.354903308513	0.010796911524
0	2061	6.365700220037	0.005220976231
0	2066	6.370921196268	0.03380483559
0	2072	6.404726031858	0.011060527273
0	2077	6.415786559131	0.003730251204
0	2081	6.419516810335	0.008827058091
0	2086	6.428343868426	0.010629017158
0	2092	6.438972885584	0.00020531473
0	2096	6.439178200314	0.008765581483
0	2101	6.447943781797	0.01374687117
0	2106	6.461690652967	0.014829528277
0	2112	6.476520181244	0.006808432026
0	2116	6.48332861327	0.000107652538
0	2119	6.483436265808	0.000287902872
0	2122	6.48372416868	0.001887534303
0	2127	6.485611702983	0.000144336339
0	2130	6.485756039322	0.012768688056
0	2135	6.498524727378	0.002297758448
0	2140	6.500822485826	0.066708301313
0	2152	6.567530787139	0.031618759706
0	2157	6.599149546845	0.002073858183
0	2161	6.601223405028	0.01933307535
0	2167	6.620556480378	0.001298858218
0	2171	6.621855338596	0.010909352213
0	2176	6.632764690809	0.005096170152
0	2181	6.637860860961	0.044700611989
0	2187	6.68256147295	0.02170340878
0	2192	6.70426488173	0.003804194906
0	2196	6.708069076636	0.003672914909
0	2199	6.711741991545	0.013012038108
0	2206	6.724754029653	0.009547226985
0	2211	6.734301256638	0.001191184712
0	2216	6.73549244135	0.001277499146
0	2219	6.736769940496	0.023079615761
0	2227	6.759849556257	0.015497055584
0	2232	6.775346611841	0.010205520625
0	2237	6.785552132466	0.005285405629
0	2241	6.790837538095	0.011712866428
0	2247	6.802550404523	0.010262782006
0	2252	6.812813186529	0.019638350258
0	2257	6.832451536787	0.017255546202
0	2262	6.849707082989	0.000305232677
0	2266	6.850012315666	0.010390395732
0	2271	6.860402711398	0.047074047399
0	2277	6.907476758797	0.006833515642
0	2281	6.914310274439	0.016477247086
0	2287	6.930787521525	0.006322907362
0	2291	6.937110428887	0.001403429808
0	2296	6.938513858695	0.002029849273
0	2299	6.940543707968	0.016809018088
0	2306	6.957352726056	0.005496619193
0	2311	6.962849345249	0.021573745083
0	2317	6.984423090332	0.01528154813
0	2322	6.999704638462	0.019402781789
0	2327	7.019107420251	0.00227098383
0	2331	7.021378404081	0.003323713762
0	2334	7.024702117843	0.00793240619
0	2339	7.032634524033	0.017088607392
0	2347	7.049723131425	0.005525264246
0	2351	7.055248395671	0.037171636248
0	2357	7.092420031919	0.022513311279
0	2363	7.114933343198	0.012486802555
0	2368	7.127420145753	0.022529477648
0	2373	7.149949623401	0.005687439227
0	2377	7.155637062628	0.003518327006
0	2382	7.159155389634	0.005891845578
0	2385	7.165047235212	0.00468097429
0	2390	7.169728209502	0.018585918753
0	2398	7.188314128255	0.005697636387
0	2402	7.194011764642	0.02628862021
0	2408	7.220300384852	0.012359865118
0	2413	7.23266024997	0.002458101993
0	2417	7.235118351963	0.0584036212
0	2423	7.293521973163	0.004970242178
0	2427	7.298492215341	0.001550099256
0	2430	7.300042314597	0.016436526448
0	2438	7.316478841045	0.018841348521
0	2443	7.335320189566	0.006719752942
0	2447	7.342039942508	0.027464792088
0	2453	7.369504734596	0.005158714914
0	2457	7.37466344951	0.008399505779
0	2462	7.383062955289	0.031230177894
0	2468	7.414293133183	0.001219169024
0	2472	7.415512302207	0.011217965789
0	2477	7.426730267996	0.082708287759
0	2483	7.509438555755	0.017534296585
0	2488	7.52697285234	0.013227330363
0	2493	7.540200182703	0.027731028397
0	2498	7.5679312111	0.009441745739
0	2503	7.577372956839	0.004241502037
0	2507	7.581614458876	0.004794983071
0	2512	7.586409441947	0.002963522175
0	2515	7.589372964122	0.016180608334
0	2522	7.605553572456	0.004268833359
0	2527	7.609822405815	0.001435589256
0	2530	7.611257995071	0.006830181925
0	2535	7.618088176996	0.005754251182
0	2540	7.623842428178	0.03437612826
0	2549	7.658218556438	0.003509308347
0	2553	7.661727864785	0.043448735912
0	2559	7.705176600697	0.006425327849
0	2563	7.711601928546	0.013538764834
0	2569	7.72514069338	0.029028321742
0	2574	7.754169015122	0.003683748879
0	2578	7.757852764001	0.019875224873
0	2584	7.777727988874	0.006918109756
0	2588	7.78464609863	0.00204634145
0	2593	7.78669244008	0.018287771385
0	2600	7.804980211465	0.000381724886
0	2604	7.805361936351	0.011713351135
0	2609	7.817075287486	0.006652580799
0	2614	7.823727868285	0.015522104848
0	2620	7.839249973133	0.001214474744
0	2624	7.840464447877	0.037241640526
0	2630	7.877706088403	0.039338657341
0	2635	7.917044745744	0.003246426158
0	2639	7.920291171902	0.012887063681
0	2645	7.933178235583	0.016556858187
0	2650	7.94973509377	0.018951129445
0	2655	7.968686223215	0.019115959619
0	2660	7.987802182834	0.005982630077
0	2664	7.993784812911	0.00524073297
0	2669	7.999025545881	0.001272780182
0	2672	8.000298326063	0.003245444855
0	2677	8.003543770918	0.004817052064
0	2680	8.008360822982	0.01083425171
0	2687	8.019195074692	0.007502813072
0	2692	8.026697887764	0.012915163732
0	2697	8.039613051496	0.011920460544
0	2704	8.05153351204	0.014007988921
0	2710	8.065541500961	0.000620736074
0	2714	8.066162237035	0.015024990513
0	2720	8.081187227548	0.021495977825
0	2725	8.102683205373	0.027852942306
0	2730	8.130536147679	0.006189426921
0	2734	8.1367255746	0.003067321101
0	2739	8.139792895701	0.009123547483
0	2744	8.148916443184	0.012300022879
0	2750	8.161216466063	0.010662774447
0	2755	8.17187924051	0.000615530761
0	2759	8.172494771271	0.006611181482
0	2762	8.179105952753	0.008963682734
0	2769	8.188069635487	0.043370496715
0	2775	8.231440132202	0.006976319152
0	2779	8.238416451354	0.007212097799
0	2784	8.245628549153	0.018528482022
0	2790	8.264157031175	0.019337757709
0	2795	8.283494788884	0.01170552607
0	2800	8.295200314954	0.007082570979
0	2804	8.302282885933	0.025802189242
0	2810	8.328085075175	0.003455797203
0	2814	8.331540872378	0.03184505445
0	2820	8.363385926828	0.038906105754
0	2825	8.402292032582	0.001999792952
0	2829	8.404291825534	0.004343000549
0	2832	8.408634826083	0.005962523297
0	2837	8.41459734938	0.041980290958
0	2845	8.456577640338	0.018033181168
0	2850	8.474610821506	0.012554290765
0	2855	8.487165112271	0.009128104818
0	2860	8.496293217089	0.00391274914
0	2864	8.500205966229	0.005478302412
0	2869	8.505684268641	0.023631829398
0	2875	8.529316098039	0.022437971793
0	2880	8.551754069832	0.009209624647
0	2885	8.560963694479	0.07768335956
0	2890	8.638647054039	0.008594360434
0	2895	8.647241414473	0.001327150719
0	2899	8.648568565192	0.023482618682
0	2905	8.672051183874	0.023677117308
0	2910	8.695728301182	0.012141627305
0	2915	8.707869928487	0.02012648883
0	2920	8.727996417317	0.001932850039
0	2924	8.729929267356	0.001826085405
0	2927	8.731755352761	0.006174214481
0	2932	8.737929567242	0.003398399348
0	2935	8.74132796659	0.012558305507
0	2942	8.753886272097	0.012611983254
0	2949	8.766498255351	0.001712399206
0	2952	8.768210654557	0.01559716512
0	2959	8.783807819677	0.041154502125
0	2965	8.824962321802	0.029111148612
0	2970	8.854073470414	0.003597088366
0	2974	8.85767055878	0.011491627269
0	2979	8.869162186049	0.031732467361
0	2985	8.90089465341	0.000354807493
0	2989	8.901249460903	0.012617647941
0	2994	8.913867108844	0.020881141239
0	3000	8.934748250083	0.011630603306
0	3005	8.946378853389	0.005471677975
0	3009	8.951850531364	0.015945764621
0	3015	8.967796295985	0.010720598474
0	3020	8.978516894459	0.00657876562
0	3024	8.985095660079	0.024520457554
0	3030	9.009616117633	0.019612493238
0	3035	9.029228610871	0.009489361434
0	3040	9.038717972305	0.012485798707
0	3045	9.051203771012	0.039095857277
0	3050	9.090299628289	0.016216673097
0	3055	9.106516301386	0.002914996653
0	3059	9.109431298039	0.006264086433
0	3064	9.115695384472	0.003388811228
0	3067	9.1190841957	0.003577416837
0	3072	9.122661612537	0.002930209171
0	3075	9.125591821708	0.018277066673
0	3082	9.143868888381	0.000494003486
0	3085	9.144362891867	0.017246597643
0	3094	9.16160948951	0.006562340227
0	3099	9.168171829737	0.012442105215
0	3104	9.180613934952	0.004482731524
0	3109	9.185096666476	0.059028227588
0	3115	9.244124894064	0.021552913921
0	3120	9.265677807985	0.0086158869
0	3125	9.274293694885	0.000129065334
0	3129	9.274422760219	0.000445936482
0	3132	9.274868696701	0.013409320474
0	3137	9.288278017175	0.005396555586
0	3142	9.293674572761	0.01381555199
0	3149	9.307490124751	0.018732930176
0	3155	9.326223054927	0.0010037907
0	3159	9.327226845627	0.014712417198
0	3165	9.341939262825	0.01829665467
0	3170	9.360235917495	0.004338160825
0	3174	9.36457407832	0.012568917979
0	3180	9.377142996299	0.04372807742
0	3185	9.420871073719	0.065495904556
0	3190	9.486366978275	0.033163238705
0	3195	9.51953021698	0.009062721358
0	3200	9.528592938338	0.010693472418
0	3205	9.539286410756	0.009056830441
0	3210	9.548343241197	0.013633741813
0	3215	9.56197698301	0.000564348361
0	3219	9.562541331371	0.010398816841
0	3224	9.572940148212	0.000516211098
0	3227	9.57345635931	0.020585183827
0	3235	9.594041543137	0.009365202457
0	3240	9.603406745594	0.024144609481
0	3245	9.627551355075	0.028294154114
0	3250	9.655845509189	0.016517434696
0	3255	9.672362943885	0.013254738664
0	3260	9.685617682549	0.023702657871
0	3265	9.70932034042	0.00425393482
0	3269	9.71357427524	0.00235545016
0	3272	9.7159297254	0.047508991568
0	3280	9.763438716968	0.020571809036
0	3285	9.784010526004	0.040587964145
0	3290	9.824598490149	0.012572010398
0	3295	9.837170500547	0.008916100627
0	3300	9.846086601174	0.044089918634
0	3305	9.890176519808	0.008935999068
0	3310	9.899112518876	0.010667146175
0	3315	9.909779665051	0.005223415972
0	3319	9.915003081023	0.007688978508
0	3324	9.922692059531	0.00013058352
0	3327	9.922822643051	0.016969238948
0	3334	9.939791881999	0.000618068167
0	3339	9.940409950166	0.009150858627
0	3344	9.949560808793	0.028555336159
0	3350	9.978116144952	0.000280473768
0	3354	9.97839661872	0.101534439948
0	3360	10.079931058668	0.062025767225
0	3365	10.141956825893	0.013487446736
0	3370	10.155444272629	0.002880738301
0	3374	10.15832501093	0.009530715523
0	3379	10.167855726453	0.012455599547
0	3385	10.180311326	0.023374260902
0	3390	10.203685586902	0.025699141586
0	3395	10.229384728488	0.009955713034
0	3400	10.239340441522	0.020057122652
0	3405	10.259397564174	0.006564511387
0	3409	10.265962075561	0.022887920542
0	3415	10.288849996103	0.000762004497
0	3419	10.2896120006	0.005078011639
0	3422	10.294690012239	0.072173226828
0	3430	10.366863239067	0.019938553092
0	3435	10.386801792159	0.048188421344
0	3440	10.434990213503	0.00369058599
0	3444	10.438680799493	0.002562900471
0	3447	10.441243699964	0.006535561525
0	3452	10.447779261489	0.004682842301
0	3457	10.45246210379	0.022719366671
0	3465	10.475181470461	0.006378274694
0	3469	10.481559745155	0.027796221817
0	3475	10.509355966972	0.012285751994
0	3480	10.521641718966	0.003434458603
0	3484	10.525076177569	0.001421036124
0	3487	10.526497213693	0.017487185596
0	3494	10.543984399289	0.019509999408
0	3500	10.563494398697	0.049781970298
0	3505	10.613276368995	0.000177209385
0	3509	10.61345357838	0.013449604003
0	3514	10.626903182383	0.009351953587
0	3520	10.63625513597	0.009196848752
0	3525	10.645451984722	0.005453191744
0	3529	10.650905176466	0.002546897789
0	3534	10.653452074255	0.015495299677
0	3540	10.668947373932	0.047614663605
0	3545	10.716562037537	0.068258983441
0	3550	10.784821020978	0.012272553878
0	3555	10.797093574856	0.00234547281
0	3559	10.799439047666	0.009172657525
0	3564	10.808611705191	0.01466815775
0	3570	10.823279862941	0.026770044319
0	3575	10.85004990726	0.008529265701
0	3580	10.858579172961	0.028117329486
0	3585	10.886696502447	0.069454572808
0	3590	10.956151075255	0.013248625832
0	3595	10.969399701087	0.030093523609
0	3600	10.999493224696	0.008375474197
0	3605	11.007868698893	0.018608309656
0	3610	11.026477008549	0.004991568322
0	3614	11.031468576871	0.016193111704
0	3620	11.047661688575	0.01472388568
0	3625	11.062385574255	0.00453531508
0	3629	11.066920889335	0.025320435234
0	3635	11.092241324569	0.00348747181
0	3639	11.095728796379	0.025140203418
0	3645	11.120868999797	0.008884136156
0	3650	11.129753135953	0.004226032022
0	3654	11.133979167975	0.007157167926
0	3659	11.141136335901	0.006070015103
0	3664	11.147206351004	0.005299444107
0	3669	11.152505795111	0.000241581948
0	3672	11.152747377059	0.002718394143
0	3675	11.155465771202	0.003202203179
0	3678	11.158667974381	0.015073080996
0	3685	11.173741055377	0.008451129198
0	3690	11.182192184575	0.005218670435
0	3695	11.18741085501	0.001487815271
0	3698	11.188898670281	0.010046058662
0	3705	11.198944728943	0.017254289257
0	3712	11.2161990182	0.003636591035
0	3715	11.219835609235	0.012364630363
0	3722	11.232200239598	0.01831900191
0	3729	11.250519241508	0.005417701927
0	3734	11.255936943435	0.005391033291
0	3739	11.261327976726	0.010886043285
0	3744	11.272214020011	0.004552260794
0	3749	11.276766280805	0.008801379829
0	3754	11.285567660634	0.021287526438
0	3760	11.306855187072	0.014906351916
0	3765	11.321761538988	0.027745423882
0	3770	11.34950696287	0.001878003706
0	3774	11.351384966576	0.013812719916
0	3780	11.365197686492	0.004150848125
0	3784	11.369348534617	0.003414938396
0	3787	11.372763473013	0.002915217781
0	3792	11.375678690794	0.003880289636
0	3795	11.37955898043	0.009018444078
0	3802	11.388577424508	0.000930134179
0	3805	11.389507558687	0.000598932698
0	3808	11.390106491385	0.000944800213
0	3811	11.391051291598	0.005649576727
0	3816	11.396700868325	0.009393469045
0	3821	11.40609433737	0.016057965189
0	3828	11.422152302559	0.013500478518
0	3835	11.435652781077	0.008277466412
0	3840	11.443930247489	0.000600601881
0	3843	11.44453084937	0.01299938357
0	3850	11.45753023294	0.003988386975
0	3853	11.461518619915	0.018888003198
0	3862	11.480406623113	0.002455485605
0	3865	11.482862108718	0.021083762052
0	3874	11.50394587077	0.024134209787
0	3880	11.528080080557	0.002028098866
0	3884	11.530108179423	0.001387300075
0	3887	11.531495479498	0.015497854667
0	3894	11.546993334165	0.001007741039
0	3897	11.548001075204	0.036117250621
0	3905	11.584118325825	0.001597089693
0	3909	11.585715415518	0.009219126298
0	3914	11.594934541816	0.010832693408
0	3919	11.605767235224	0.018181759874
0	3925	11.623948995098	0.000562414609
0	3929	11.624511409707	0.003310964937
0	3932	11.627822374644	0.043259398216
0	3940	11.67108177286	0.007858603968
0	3945	11.678940376828	0.07426090066
0	3950	11.753201277488	0.007572660831
0	3954	11.760773938319	0.002516759066
0	3959	11.763290697385	0.002445851933
0	3962	11.765736549318	0.000901254594
0	3965	11.766637803912	0.038057087915
0	3975	11.804694891827	0.010211955032
0	3980	11.814906846859	0.003112507425
0	3984	11.818019354284	0.027534620301
0	3990	11.845553974585	0.053014074207
0	3995	11.898568048792	0.003625921863
0	3999	11.902193970655	0.00040053597
0	4002	11.902594506625	0.001524453641
0	4005	11.904118960266	0.004586504687
0	4010	11.908705464953	0.005826467637
0	4015	11.91453193259	0.001578118484
0	4018	11.916110051074	0.025346411791
0	4027	11.941456462865	0.01349266114
0	4034	11.954949124005	0.006692289318
0	4039	11.961641413323	0.02543210503
0	4045	11.987073518353	0.006376177469
0	4049	11.993449695822	0.026430976598
0	4055	12.01988067242	0.02356232945
0	4060	12.04344300187	0.015467855532
0	4065	12.058910857402	0.014848465461
0	4070	12.073759322863	0.0106801349
0	4075	12.084439457763	0.009116329661
0	4080	12.093555787424	0.027771525659
0	4085	12.121327313083	0.004743644799
0	4089	12.126070957882	0.008728994486
0	4094	12.134799952368	0.021578417682
0	4100	12.15637837005	0.001162909664
0	4104	12.157541279714	0.016781958368
0	4110	12.174323238082	0.004247234428
0	4114	12.17857047251	0.010258907892
0	4119	12.188829380402	0.008765716877
0	4125	12.197595097279	0.009166438424
0	4130	12.206761535703	0.020821790811
0	4135	12.227583326514	0.005883706475
0	4139	12.233467032989	0.003106552695
0	4144	12.236573585684	0.01233528264
0	4149	12.248908868324	0.028156769411
0	4155	12.277065637735	0.010339944351
0	4160	12.287405582086	0.027048906436
0	4165	12.314454488522	0.010633768236
0	4170	12.325088256758	0.013003423749
0	4175	12.338091680507	0.012919654967
0	4180	12.351011335474	0.004631484013
0	4184	12.355642819487	0.026731979578
0	4190	12.382374799065	7.042647e-006
0	4194	12.382381841712	0.01368135553
0	4199	12.396063197242	0.001671612264
0	4204	12.397734809506	0.011278023851
0	4209	12.409012833357	0.006885607553
0	4214	12.41589844091	0.027639889495
0	4220	12.443538330405	0.005069990756
0	4224	12.448608321161	0.002548330639
0	4229	12.4511566518	0.017086994853
0	4235	12.468243646653	0.023685892571
0	4240	12.491929539224	0.002767869057
0	4244	12.494697408281	0.024380028466
0	4250	12.519077436747	0.009734176686
0	4255	12.528811613433	0.022749452043
0	4260	12.551561065476	0.01301644181
0	4265	12.564577507286	0.016276868078
0	4270	12.580854375364	0.010298584134
0	4275	12.591152959498	0.000461054043
0	4279	12.591614013541	0.021010131004
0	4285	12.612624144545	0.007004811945
0	4289	12.61962895649	0.007677858312
0	4294	12.627306814802	0.012703849005
0	4300	12.640010663807	0.093138876503
0	4306	12.73314954031	0.03070037102
0	4311	12.76384991133	0.004541482012
0	4315	12.768391393342	0.036547770029
0	4321	12.804939163371	0.018650511664
0	4326	12.823589675035	0.00387553352
0	4330	12.827465208555	0.018874715455
0	4336	12.84633992401	0.014684176876
0	4341	12.861024100886	0.020020566693
0	4346	12.881044667579	0.012795861125
0	4351	12.893840528704	0.008920177575
0	4356	12.902760706279	0.013315740355
0	4361	12.916076446634	0.012939631526
0	4366	12.92901607816	0.060377172953
0	4371	12.989393251113	0.002171317323
0	4375	12.991564568436	0.001567790794
0	4378	12.99313235923	0.000858309031
0	4381	12.993990668261	0.041774483719
0	4391	13.03576515198	0.017769727993
0	4396	13.053534879973	0.003501568505
0	4400	13.057036448478	0.010955558743
0	4405	13.067992007221	0.013290510805
0	4411	13.081282518026	0.012721027024
0	4416	13.09400354505	0.006013367845
0	4420	13.100016912895	0.001328148864
0	4423	13.101345061759	0.003135655021
0	4428	13.10448071678	0.005992154739
0	4433	13.110472871519	0.005669911202
0	4436	13.116142782721	0.00369835689
0	4441	13.119841139611	0.012898675862
0	4448	13.132739815473	0.014475477132
0	4455	13.147215292605	0.005989662652
0	4458	13.153204955257	0.014598500401
0	4465	13.167803455658	0.014115770047
0	4471	13.181919225705	0.006017080187
0	4475	13.187936305892	0.006256179488
0	4480	13.19419248538	0.003208073642
0	4485	13.197400559022	0.029231603173
0	4491	13.226632162195	0.017974864616
0	4496	13.244607026811	0.000532512033
0	4500	13.245139538844	0.005331039467
0	4503	13.250470578311	0.026940838629
0	4511	13.27741141694	0.013035063499
0	4516	13.290446480439	0.000267047596
0	4520	13.290713528035	0.008321932576
0	4525	13.299035460611	0.005562545101
0	4528	13.304598005712	0.0013530129
0	4533	13.305951018612	7.6960571e-005
0	4536	13.306027979183	0.001378783247
0	4539	13.30740676243	0.020367786071
0	4546	13.327774548501	0.008592772689
0	4553	13.33636732119	0.009952578542
0	4558	13.346319899732	0.000970722086
0	4561	13.347290621818	0.010924306696
0	4566	13.358214928514	0.012799013684
0	4573	13.371013942198	0.002005275587
0	4576	13.373019217785	0.002674895434
0	4581	13.375694113219	0.021880046355
0	4590	13.397574159574	0.006563912355
0	4595	13.404138071929	0.013596524432
0	4600	13.417734596361	0.01283227196
0	4606	13.430566868321	0.010765264228
0	4611	13.441332132549	0.014540751548
0	4616	13.455872884097	0.045960093031
0	4621	13.501832977128	0.005364577985
0	4625	13.507197555113	0.004104656397
0	4630	13.51130221151	0.007521610298
0	4635	13.518823821808	0.005326461578
0	4638	13.524150283386	0.002387698085
0	4643	13.526537981471	0.045696977397
0	4652	13.572234958868	0.003974763013
0	4656	13.576209721881	0.02270964408
0	4662	13.598919365961	0.019177481767
0	4667	13.618096847728	0.001003763351
0	4671	13.619100611079	0.001876516595
0	4674	13.620977127674	0.011976406513
0	4679	13.632953534187	0.007805772889
0	4684	13.640759307076	0.001150602006
0	4689	13.641909909082	0.012113907458
0	4694	13.65402381654	0.023014252341
0	4702	13.677038068881	0.004286363138
0	4706	13.681324432019	0.014675191923
0	4712	13.695999623942	0.017923177036
0	4717	13.713922800978	0.004436275941
0	4721	13.718359076919	0.000509533684
0	4724	13.718868610603	0.041458862745
0	4732	13.760327473348	0.002148759656
0	4736	13.762476233004	0.006773232805
0	4741	13.769249465809	0.001363211822
0	4744	13.770612677631	0.005312998641
0	4749	13.775925676272	0.001969554279
0	4752	13.777895230551	0.000226953475
0	4755	13.778122184026	0.011453694047
0	4760	13.789575878073	0.013481894117
0	4767	13.80305777219	0.006917909251
0	4772	13.809975681441	0.017394244638
0	4779	13.827369926079	0.001910454982
0	4784	13.829280381061	0.00767190774
0	4789	13.836952288801	0.007734324191
0	4794	13.844686612992	0.000308601854
0	4797	13.844995214846	0.004467618259
0	4800	13.849462833105	0.008559837705
0	4805	13.85802267081	0.004313070285
0	4810	13.862335741095	0.017218136084
0	4817	13.879553877179	0.047707675321
0	4827	13.9272615525	0.01042926064
0	4832	13.93769081314	0.015334903194
0	4837	13.953025716334	0.008091830359
0	4842	13.961117546693	0.007020648379
0	4846	13.968138195072	0.029626972184
0	4852	13.997765167256	0.017990463667
0	4857	14.015755630923	0.024883679226
0	4862	14.040639310149	0.000731017014
0	4866	14.041370327163	0.008436559078
0	4871	14.049806886241	0.005209463975
0	4874	14.055016350216	0.051855112721
0	4882	14.106871462937	0.014164900817
0	4887	14.121036363754	0.000532098884
0	4891	14.121568462638	0.054333228603
0	4897	14.175901691241	0.046572257464
0	4902	14.222473948705	0.008518342549
0	4907	14.230992291254	0.000993529052
0	4911	14.231985820306	0.002264579148
0	4914	14.234250399454	0.005545915903
0	4919	14.239796315357	0.004487862026
0	4922	14.244284177383	0.008339436881
0	4927	14.252623614264	0.01231586657
0	4934	14.264939480834	0.020565521765
0	4942	14.285505002599	0.006028150495
0	4946	14.291533153094	0.001922356522
0	4951	14.293455509616	0.004927192647
0	4954	14.298382702263	0.005758457069
0	4959	14.304141159332	0.012035977739
0	4966	14.316177137071	0.028303439953
0	4972	14.344480577024	0.003650099481
0	4976	14.348130676505	0.000232114166
0	4979	14.348362790671	0.001052940426
0	4982	14.349415731097	0.038748003777
0	4992	14.388163734874	0.015460702961
0	4997	14.403624437835	0.007449065732
0	5001	14.411073503567	0.002589872087
0	5006	14.413663375654	0.016684486728
0	5012	14.430347862382	0.011938616397
0	5017	14.442286478779	0.016687729373
0	5022	14.458974208152	0.037809768166
0	5027	14.496783976318	0.001733329096
0	5031	14.498517305414	0.027396583368
0	5037	14.525913888782	0.004981691133
0	5041	14.530895579915	0.008267836976
0	5046	14.539163416891	0.006058731229
0	5051	14.54522214812	0.043924348493
0	5057	14.589146496613	0.028349543991
0	5062	14.617496040604	0.013980360136
0	5067	14.63147640074	0.03586348646
0	5072	14.6673398872	0.00093822948
0	5076	14.66827811668	0.003563461088
0	5079	14.671841577768	0.072387838884
0	5087	14.744229416652	0.008422510077
0	5092	14.752651926729	0.002435101885
0	5096	14.755087028614	0.011556085252
0	5101	14.766643113866	0.005947395655
0	5106	14.772590509521	0.000465282039
0	5109	14.77305579156	0.031972795952
0	5117	14.805028587512	0.005614266519
0	5121	14.810642854031	0.002654406032
0	5126	14.813297260063	0.00250676221
0	5129	14.815804022273	0.017685831635
0	5136	14.833489853908	0.009761007045
0	5142	14.843250860953	0.003807429174
0	5146	14.847058290127	0.037263497271
0	5152	14.884321787398	0.044530682216
0	5157	14.928852469614	0.001117750191
0	5161	14.929970219805	0.041590147577
0	5167	14.971560367382	0.044585892774
0	5172	15.016146260156	0.009461928786
0	5177	15.025608188942	0.02482776884
0	5182	15.050435957782	0.032386655573
0	5187	15.082822613355	0.00664867274
0	5191	15.089471286095	0.004714133545
0	5196	15.09418541964	0.027056057345
0	5202	15.121241476985	0.006521036276
0	5206	15.127762513261	0.004141124672
0	5211	15.131903637933	0.005114191146
0	5216	15.137017829079	0.002341859026
0	5219	15.139359688105	0.002298987563
0	5222	15.141658675668	0.011010121803
0	5229	15.152668797471	0.011748675624
0	5234	15.164417473095	0.001181795902
0	5237	15.165599268997	0.006606205667
0	5242	15.172205474664	0.037462566555
0	5252	15.209668041219	0.018326922206
0	5257	15.227994963425	0.041874308692
0	5262	15.269869272117	0.021926812238
0	5267	15.291796084355	0.003085873269
0	5271	15.294881957624	0.010388161928
0	5276	15.305270119552	0.003838545996
0	5281	15.309108665548	0.003734675622
0	5284	15.31284334117	0.0207499232
0	5292	15.33359326437	0.006420999571
0	5296	15.340014263941	0.017444849426
0	5302	15.357459113367	0.001056349948
0	5306	15.358515463315	0.009839308409
0	5311	15.368354771724	0.001747036201
0	5314	15.370101807925	0.057794449148
0	5322	15.427896257073	0.011899977719
0	5327	15.439796234792	0.016363992992
0	5332	15.456160227784	0.013672594371
0	5337	15.469832822155	0.012710180263
0	5342	15.482543002418	0.01254057303
0	5347	15.495083575448	0.013578196188
0	5352	15.508661771636	0.015923051087
0	5357	15.524584822723	0.004016115891
0	5361	15.528600938614	0.005119812881
0	5366	15.533720751495	0.003955737503
0	5369	15.537676488998	0.021762369823
0	5377	15.559438858821	0.005915977
0	5381	15.565354835821	0.007708086396
0	5386	15.573062922217	0.001537180042
0	5391	15.574600102259	0.006486569573
0	5394	15.581086671832	0.034295284002
0	5402	15.615381955834	0.007223734894
0	5406	15.622605690728	0.005119064112
0	5411	15.62772475484	0.006096680475
0	5416	15.633821435315	0.017457507157
0	5422	15.651278942472	0.01138331164
0	5427	15.662662254112	0.036700808673
0	5432	15.699363062785	0.004733101285
0	5436	15.70409616407	0.000745916998
0	5439	15.704842081068	0.016862795412
0	5446	15.72170487648	0.001733323533
0	5451	15.723438200013	0.007547066771
0	5456	15.730985266784	0.023990685026
0	5462	15.75497595181	0.012154216283
0	5467	15.767130168093	0.018166354298
0	5472	15.785296522391	0.008066114272
0	5477	15.793362636663	0.004708869658
0	5481	15.798071506321	0.000723436243
0	5484	15.798794942564	0.029999081219
0	5492	15.828794023783	0.009165889305
0	5497	15.837959913088	0.012170037049
0	5502	15.850129950137	0.002898216113
0	5506	15.85302816625	0.021252827432
0	5512	15.874280993682	0.012001965566
0	5517	15.886282959248	0.000242537278
0	5521	15.886525496526	0.007801267971
0	5526	15.894326764497	0.00123736959
0	5529	15.895564134087	0.002435315715
0	5532	15.897999449802	0.017160317853
0	5539	15.915159767655	0.009830385481
0	5546	15.924990153136	0.001267857568
0	5549	15.926258010704	0.002509704378
0	5552	15.928767715082	0.024159269416
0	5561	15.952926984498	0.031938047861
0	5567	15.984865032359	0.000939717589
0	5571	15.985804749948	0.00116832594
0	5574	15.986973075888	0.008926305887
0	5579	15.995899381775	0.041928295365
0	5587	16.03782767714	0.003021100669
0	5591	16.040848777809	0.001955098236
0	5594	16.042803876045	0.000202659595
0	5597	16.04300653564	0.01989396735
0	5606	16.06290050299	0.007088176692
0	5611	16.069988679682	0.016350786532
0	5617	16.086339466214	0.023446220441
0	5622	16.109785686655	0.013479902909
0	5627	16.123265589564	0.007888929057
0	5632	16.131154518621	0.011445976413
0	5637	16.142600495034	0.014685269235
0	5642	16.157285764269	5.8924681e-005
0	5646	16.15734468895	0.002473052282
0	5649	16.159817741232	0.007283649268
0	5654	16.1671013905	0.021683979902
0	5662	16.188785370402	0.007713787312
0	5667	16.196499157714	0.00117845786
0	5671	16.197677615574	0.010946604595
0	5676	16.208624220169	0.020510218093
0	5682	16.229134438262	0.002172530312
0	5686	16.231306968574	0.018686287055
0	5692	16.249993255629	0.005900553252
0	5696	16.255893808881	0.014602985636
0	5702	16.270496794517	0.013277447832
0	5707	16.283774242349	0.025379003987
0	5712	16.309153246336	0.001434324438
0	5716	16.310587570774	0.002764301681
0	5719	16.313351872455	0.030531936376
0	5727	16.343883808831	0.030667901391
0	5732	16.374551710222	0.009980984593
0	5737	16.384532694815	0.006194138154
0	5741	16.390726832969	0.004840718371
0	5746	16.39556755134	0.00863833712
0	5751	16.40420588846	0.011368841863
0	5757	16.415574730323	0.003827891161
0	5761	16.419402621484	0.018780288267
0	5767	16.438182909751	0.042371344642
0	5772	16.480554254393	0.01217879188
0	5777	16.492733046273	0.002097662217
0	5781	16.49483070849	0.026182339071
0	5787	16.521013047561	0.00206010549
0	5791	16.523073153051	0.003324028533
0	5794	16.526397181584	0.016789998999
0	5801	16.543187180583	0.003957057122
0	5806	16.547144237705	0.017255257965
0	5812	16.56439949567	0.005480461591
0	5816	16.569879957261	0.01934167652
0	5822	16.589221633781	0.03600301645
0	5827	16.625224650231	0.006984977746
0	5831	16.632209627977	0.020427202251
0	5837	16.652636830228	0.009692623919
0	5842	16.662329454147	0.061032123
0	5847	16.723361577147	0.000382480794
0	5851	16.723744057941	0.003203082208
0	5854	16.726947140149	0.04186128139
0	5862	16.768808421539	0.003251633518
0	5866	16.772060055057	0.014393747414
0	5872	16.786453802471	0.023743445749
0	5877	16.81019724822	0.011622626256
0	5882	16.821819874476	2.9253497e-005
0	5886	16.821849127973	0.001316348961
0	5889	16.823165476934	0.07315429443
0	5897	16.896319771364	0.0018171005
0	5901	16.898136871864	0.013779662072
0	5907	16.911916533936	0.019800024272
0	5912	16.931716558208	0.002365830034
0	5916	16.934082388242	0.003697272666
0	5919	16.937779660908	0.032782889348
0	5927	16.970562550256	0.008188126327
0	5932	16.978750676583	0.004716141052
0	5936	16.983466817635	0.004863235116
0	5941	16.988330052751	0.003337640076
0	5944	16.991667692827	0.052754695263
0	5952	17.04442238809	0.011903927546
0	5957	17.056326315636	0.026972191188
0	5962	17.083298506824	0.033993823644
0	5968	17.117292330468	0.004505937523
0	5972	17.121798267991	0.006195405188
0	5977	17.127993673179	0.033838322755
0	5983	17.161831995934	0.024310168114
0	5988	17.186142164048	0.00115493631
0	5992	17.187297100358	0.002655046147
0	5995	17.189952146505	0.027500368184
0	6003	17.217452514689	0.033973768009
0	6008	17.251426282698	0.001615246686
0	6012	17.253041529384	0.060821902109
0	6018	17.313863431493	0.004340590978
0	6022	17.318204022471	0.010091948959
0	6027	17.32829597143	0.000215075521
0	6030	17.328511046951	0.000335983911
0	6033	17.328847030862	0.025602506294
0	6043	17.354449537156	0.014320509146
0	6048	17.368770046302	0.004490167873
0	6052	17.373260214175	0.020760744658
0	6058	17.394020958833	0.016423893162
0	6063	17.410444851995	0.002354809861
0	6067	17.412799661856	0.008686437077
0	6072	17.421486098933	0.015618394477
0	6078	17.43710449341	0.010632972773
0	6083	17.447737466183	0.004197229168
0	6087	17.451934695351	0.025462517977
0	6093	17.477397213328	0.0028690124
0	6097	17.480266225728	0.014163970813
0	6103	17.494430196541	0.041644819074
0	6108	17.536075015615	0.016599955831
0	6113	17.552674971446	0.016532993908
0	6118	17.569207965354	0.041603601037
0	6123	17.610811566391	0.00016177086
0	6127	17.610973337251	0.008309806128
0	6132	17.619283143379	0.015212504598
0	6138	17.634495647977	0.054614934106
0	6143	17.689110582083	0.027863471076
0	6148	17.716974053159	0.00438314969
0	6152	17.721357202849	0.009692297633
0	6157	17.731049500482	0.008943858241
0	6163	17.739993358723	0.001239354666
0	6167	17.741232713389	0.00729556404
0	6172	17.748528277429	0.043056664898
0	6178	17.791584942327	0.001333683455
0	6182	17.792918625782	0.000513196432
0	6185	17.793431822214	0.011194525826
0	6190	17.80462634804	0.045820356772
0	6198	17.850446704812	0.040947543307
0	6203	17.891394248119	0.001040088364
0	6207	17.892434336483	0.007382794268
0	6212	17.899817130751	0.002233964031
0	6215	17.902051094782	0.012163441315
0	6222	17.914214536097	0.047661820026
0	6228	17.961876356123	0.007610804457
0	6233	17.96948716058	0.001271249041
0	6237	17.970758409621	0.005085872234
0	6240	17.975844281855	0.031308956416
0	6248	18.007153238271	0.009500120845
0	6253	18.016653359116	0.06053756019
0	6258	18.077190919306	0.003737327135
0	6262	18.080928246441	0.004042362986
0	6267	18.084970609427	0.011349745706
0	6272	18.096320355133	0.000950922127
0	6275	18.09727127726	0.020002784088
0	6283	18.117274061348	0.007648942756
0	6288	18.124923004104	0.058822981724
0	6293	18.183745985828	0.005341467424
0	6297	18.189087453252	0.01289364971
0	6303	18.201981102962	0.049581676474
0	6308	18.251562779436	0.041102870123
0	6313	18.292665649559	0.005105460506
0	6317	18.297771110065	0.008396421999
0	6322	18.306167532064	0.021207217098
0	6328	18.327374749162	0.020115780274
0	6333	18.347490529436	0.022398535454
0	6338	18.36988906489	0.026295580243
0	6343	18.396184645133	0.010423354711
0	6348	18.406607999844	0.017908506839
0	6353	18.424516506683	0.025244216521
0	6358	18.449760723204	0.013091665953
0	6363	18.462852389157	0.003061094609
0	6367	18.465913483766	0.002032618754
0	6370	18.46794610252	0.003131009484
0	6375	18.471077112004	0.001670932406
0	6378	18.47274804441	0.000925938918
0	6381	18.473673983328	0.024437350675
0	6390	18.498111334003	0.002944721547
0	6395	18.50105605555	0.002478962855
0	6398	18.503535018405	0.001916908134
0	6401	18.505451926539	0.024571828434
0	6410	18.530023754973	0.004781421127
0	6415	18.5348051761	0.008454582101
0	6420	18.543259758201	0.003622955025
0	6425	18.546882713226	0.007486427757
0	6430	18.554369140983	0.004286805198
0	6433	18.558655946181	0.004779548768
0	6438	18.563435494949	0.029011229853
0	6448	18.592446724802	0.013124718389
0	6453	18.605571443191	0.02439368586
0	6458	18.629965129051	0.00455097087
0	6462	18.634516099921	0.021586985474
0	6468	18.656103085395	0.007150259201
0	6472	18.663253344596	0.017076495742
0	6478	18.680329840338	0.027111580053
0	6483	18.707441420391	0.023005126021
0	6488	18.730446546412	0.003267029664
0	6492	18.733713576076	0.016076735614
0	6498	18.74979031169	0.002641546317
0	6502	18.752431858007	0.015048733362
0	6508	18.767480591369	0.002091932351
0	6512	18.76957252372	0.007694387654
0	6517	18.777266911374	0.004046245461
0	6520	18.781313156835	0.00101659711
0	6523	18.782329753945	0.0226413386
0	6532	18.804971092545	0.020413264858
0	6538	18.825384357403	0.047550430649
0	6543	18.872934788052	0.009714638231
0	6548	18.882649426283	0.020796840162
0	6553	18.903446266445	0.018311529679
0	6558	18.921757796124	0.05365177654
0	6563	18.975409572664	0.021135079407
0	6568	18.996544652071	0.014337564549
0	6573	19.01088221662	0.034519026537
0	6578	19.045401243157	0.013744440942
0	6583	19.059145684099	0.020123027924
0	6588	19.079268712023	0.009173057805
0	6593	19.088441769828	0.019805105482
0	6598	19.10824687531	0.030299209258
0	6603	19.138546084568	0.010506780258
0	6608	19.149052864826	0.035938674431
0	6613	19.184991539257	0.013725508653
0	6618	19.19871704791	0.005174441857
0	6622	19.203891489767	0.001000043977
0	6625	19.204891533744	0.002085396843
0	6630	19.206976930587	0.001226394308
0	6633	19.208203324895	0.024828589292
0	6642	19.233031914187	0.007555842628
0	6647	19.240587756815	0.005593133896
0	6652	19.246180890711	0.018369599231
0	6658	19.264550489942	0.013497320115
0	6663	19.278047810057	0.04143776646
0	6668	19.319485576517	0.049442881572
0	6673	19.368928458089	0.016627313529
0	6678	19.385555771618	0.004676709403
0	6682	19.390232481021	0.000398074483
0	6685	19.390630555504	0.006335590045
0	6690	19.396966145549	0.016362401054
0	6697	19.413328546603	0.028638024403
0	6703	19.441966571006	0.006286749067
0	6707	19.448253320073	0.003275880264
0	6712	19.451529200337	0.036661332843
0	6718	19.48819053318	0.008176482866
0	6723	19.496367016046	0.018631464379
0	6728	19.514998480425	0.006289023151
0	6732	19.521287503576	0.002672286171
0	6737	19.523959789747	0.002975657369
0	6740	19.526935447116	0.000660000617
0	6743	19.527595447733	0.007453822656
0	6748	19.535049270389	0.03539096432
0	6758	19.570440234709	0.009498645639
0	6763	19.579938880348	0.022203177963
0	6768	19.602142058311	0.011221648594
0	6773	19.613363706905	0.007033654809
0	6777	19.620397361714	0.024755261668
0	6783	19.645152623382	0.002704398083
0	6787	19.647857021465	0.028613958867
0	6793	19.676470980332	0.007445911575
0	6797	19.683916891907	0.021625439842
0	6803	19.705542331749	0.000591919256
0	6807	19.706134251005	0.004678178752
0	6810	19.710812429757	0.006703229772
0	6815	19.717515659529	0.058067821599
0	6823	19.775583481128	0.004085150509
0	6827	19.779668631637	0.000669607781
0	6830	19.780338239418	0.008169237285
0	6835	19.788507476703	0.038448242066
0	6843	19.826955718769	0.061011576248
0	6848	19.887967295017	0.017995587112
0	6853	19.905962882129	0.025408161429
0	6858	19.931371043558	0.022476366064
0	6863	19.953847409622	0.061835090116
0	6868	20.015682499738	0.006472182162
0	6872	20.0221546819	0.006693010944
0	6877	20.028847692844	0.01397561798
0	6883	20.042823310824	0.013158506379
0	6888	20.055981817203	0.036290323226
0	6893	20.092272140429	0.01549772482
0	6898	20.107769865249	0.017479718045
0	6903	20.125249583294	0.003212435568
0	6907	20.128462018862	0.001500615864
0	6910	20.129962634726	0.003744531224
0	6915	20.13370716595	0.018623556052
0	6922	20.152330722002	0.024943541979
0	6928	20.177274263981	0.008582626151
0	6933	20.185856890132	0.001421857054
0	6937	20.187278747186	0.003682554764
0	6940	20.19096130195	0.038957056287
0	6948	20.229918358237	0.061217000284
0	6953	20.291135358521	0.022828581536
0	6958	20.313963940057	0.001696148137
0	6962	20.315660088194	0.043761247991
0	6968	20.359421336185	0.01775142274
0	6973	20.377172758925	0.030539362882
0	6978	20.407712121807	0.054309048265
0	6983	20.462021170072	0.006173914701
0	6987	20.468195084773	0.010913442103
0	6993	20.479108526876	0.015106471442
0	6998	20.494214998318	0.03461277141
0	7003	20.528827769728	0.002687785718
0	7007	20.531515555446	0.010966994902
0	7012	20.542482550348	0.002244675706
0	7017	20.544727226054	0.006966310756
0	7022	20.55169353681	0.003131761848
0	7025	20.554825298658	0.002829759644
0	7028	20.557655058302	0.048454406104
0	7038	20.606109464406	0.053050564846
0	7043	20.659160029252	0.027194368808
0	7048	20.68635439806	0.009669976265
0	7053	20.696024374325	0.008765675289
0	7058	20.704790049614	0.001822987343
0	7062	20.706613036957	0.005960585914
0	7067	20.712573622871	0.007851174258
0	7072	20.720424797129	0.028190963736
0	7078	20.748615760865	0.02615949619
0	7083	20.774775257055	0.0071733384
0	7087	20.781948595455	0.008899182861
0	7093	20.790847778316	0.000857456559
0	7097	20.791705234875	0.032813247105
0	7103	20.82451848198	0.03310396078
0	7108	20.85762244276	0.003463414643
0	7112	20.861085857403	0.00724699861
0	7117	20.868332856013	0.020430055822
0	7123	20.888762911835	0.004361638236
0	7127	20.893124550071	0.02396873834
0	7133	20.917093288411	0.014538482919
0	7138	20.93163177133	0.000569671286
0	7142	20.932201442616	0.019117478957
0	7148	20.951318921573	0.008595327994
0	7153	20.959914249567	0.030613868325
0	7159	20.990528117892	0.013256723074
0	7164	21.003784840966	0.038040531921
0	7169	21.041825372887	0.00707674977
0	7173	21.048902122657	0.07618426602
0	7179	21.125086388677	0.006497716247
0	7183	21.131584104924	0.006883495804
0	7188	21.138467600728	0.026006656648
0	7194	21.164474257376	0.033343093487
0	7199	21.197817350863	0.001323851794
0	7203	21.199141202657	0.004849555765
0	7206	21.203990758422	0.000702061272
0	7209	21.204692819694	0.013758646179
0	7216	21.218451465873	0.004294393892
0	7221	21.222745859765	0.000609853758
0	7224	21.223355713523	0.002093997018
0	7227	21.225449710541	0.054973814892
0	7239	21.280423525433	0.097677135704
0	7244	21.378100661137	0.009322566124
0	7249	21.387423227261	0.008852892667
0	7254	21.396276119928	0.033147778271
0	7259	21.429423898199	0.006997513343
0	7263	21.436421411542	0.009708109105
0	7269	21.446129520647	0.005658086544
0	7273	21.451787607191	0.006735371266
0	7278	21.458522978457	0.006135896613
0	7283	21.46465887507	0.005561973881
0	7288	21.470220848951	0.012277372839
0	7293	21.48249822179	0.011373053396
0	7299	21.493871275186	0.001243146463
0	7303	21.495114421649	0.024418729167
0	7309	21.519533150816	0.003475453528
0	7313	21.523008604344	0.010006167529
0	7318	21.533014771873	0.014525566478
0	7324	21.547540338351	0.002242144145
0	7328	21.549782482496	0.031704253168
0	7334	21.581486735664	0.003631116949
0	7338	21.585117852613	0.006373834105
0	7343	21.591491686718	0.008922616703
0	7348	21.600414303421	0.006537187933
0	7353	21.606951491354	0.030051063085
0	7359	21.637002554439	0.008011393903
0	7364	21.645013948342	0.007346787566
0	7368	21.652360735908	0.012905887694
0	7374	21.665266623602	0.020852037851
0	7379	21.686118661453	0.007055931896
0	7383	21.693174593349	0.034962800726
0	7389	21.728137394075	0.031980025036
0	7394	21.760117419111	0.048435503784
0	7399	21.808552922895	0.028604092348
0	7404	21.837157015243	0.017833896732
0	7409	21.854990911975	0.012111627173
0	7414	21.867102539148	0.020431527134
0	7419	21.887534066282	0.032971711136
0	7424	21.920505777418	0.040687467302
0	7429	21.96119324472	0.008415423195
0	7434	21.969608667915	0.044600691508
0	7439	22.014209359423	0.003892696013
0	7443	22.018102055436	0.006234831867
0	7448	22.024336887303	0.004007003191
0	7451	22.028343890494	0.003720749484
0	7456	22.032064639978	0.007062408158
0	7461	22.039127048136	0.007978220903
0	7466	22.047105269039	0.007558094165
0	7471	22.054663363204	0.033997858979
0	7479	22.088661222183	0.01653927704
0	7484	22.105200499223	0.013803864282
0	7489	22.119004363505	0.00731376309
0	7493	22.126318126595	0.010325594807
0	7499	22.136643721402	0.003339285952
0	7503	22.139983007354	0.007386984124
0	7508	22.147369991478	0.000538277862
0	7511	22.14790826934	0.002161982447
0	7514	22.150070251787	0.006743859221
0	7519	22.156814111008	0.001048256371
0	7522	22.157862367379	0.006480089285
0	7527	22.164342456664	0.041500098884
0	7539	22.205842555548	0.017114464156
0	7544	22.222957019704	0.013141425066
0	7549	22.23609844477	0.009700271691
0	7554	22.245798716461	0.008483296365
0	7559	22.254282012826	0.035578559282
0	7564	22.289860572108	0.009179057139
0	7570	22.299039629247	0.002686758475
0	7574	22.301726387722	0.00350826495
0	7577	22.305234652672	2.1479477e-005
0	7580	22.305256132149	0.018426529163
0	7589	22.323682661312	0.029371371125
0	7595	22.353054032437	0.020820914126
0	7600	22.373874946563	0.00326400492
0	7604	22.377138951483	0.096512066538
0	7610	22.473651018021	0.003682217692
0	7614	22.477333235713	0.029419479151
0	7620	22.506752714864	0.030291746693
0	7625	22.537044461557	0.02290687717
0	7630	22.559951338727	0.010759601283
0	7635	22.57071094001	0.004792274961
0	7639	22.575503214971	0.01036471947
0	7644	22.585867934441	0.013956717502
0	7650	22.599824651943	0.014213426576
0	7655	22.614038078519	0.029448344753
0	7660	22.643486423272	0.000856347405
0	7664	22.644342770677	0.027501992587
0	7670	22.671844763264	0.01001563164
0	7675	22.681860394904	0.027678237101
0	7680	22.709538632005	0.001613050711
0	7684	22.711151682716	0.008619598698
0	7689	22.719771281414	0.005778940062
0	7694	22.725550221476	0.036541738479
0	7700	22.762091959955	0.0179648456
0	7705	22.780056805555	0.009696523805
0	7710	22.78975332936	0.005393416444
0	7714	22.795146745804	0.012257582786
0	7720	22.80740432859	0.009326948602
0	7725	22.816731277192	0.018674233542
0	7730	22.835405510734	0.001790124618
0	7734	22.837195635352	0.015063044153
0	7740	22.852258679505	0.000276286697
0	7744	22.852534966202	0.072579428996
0	7751	22.925114395198	0.007986651777
0	7756	22.933101046975	0.006824545077
0	7760	22.939925592052	0.021163229002
0	7766	22.961088821054	0.051603238609
0	7771	23.012692059663	0.013894741571
0	7776	23.026586801234	0.025684947092
0	7781	23.052271748326	0.001046086385
0	7785	23.053317834711	0.046801344241
0	7791	23.100119178952	0.00930194952
0	7796	23.109421128472	0.002665521832
0	7800	23.112086650304	0.002118408405
0	7803	23.114205058709	0.019350712678
0	7812	23.133555771387	0.011827815336
0	7817	23.145383586723	0.019366267352
0	7822	23.164749854075	0.01149789435
0	7827	23.176247748425	0.017063671561
0	7832	23.193311419986	0.004629023085
0	7836	23.197940443071	0.009881249865
0	7841	23.207821692936	0.002099791868
0	7846	23.209921484804	0.001433514091
0	7849	23.211354998895	0.030306508892
0	7857	23.241661507787	0.002992390415
0	7861	23.244653898202	0.027765183075
0	7867	23.272419081277	0.005039420727
0	7871	23.277458502004	0.004240774449
0	7876	23.281699276453	0.013487307522
0	7881	23.295186583975	0.040469519495
0	7887	23.33565610347	0.005456267927
0	7891	23.341112371397	0.011342290143
0	7898	23.35245466154	0.002459566076
0	7902	23.354914227616	0.010472399534
0	7907	23.36538662715	0.018760558528
0	7913	23.384147185678	0.003356086445
0	7917	23.387503272123	0.031054711127
0	7923	23.41855798325	0.064678256616
0	7928	23.483236239866	0.00657061269
0	7932	23.489806852556	0.028026804494
0	7938	23.51783365705	0.005704594952
0	7942	23.523538252002	0.007960939876
0	7947	23.531499191878	0.031138299785
0	7953	23.562637491663	0.004696006248
0	7957	23.567333497911	0.006361871335
0	7963	23.573695369246	0.011359824648
0	7968	23.585055193894	0.006698007128
0	7973	23.591753201022	0.027053057687
0	7981	23.618806258709	0.005949812393
0	7985	23.624756071102	0.017741927975
0	7991	23.642497999077	0.005092657363
0	7995	23.64759065644	0.016390431369
0	8001	23.663981087809	0.001738713284
0	8005	23.665719801093	0.01040919686
0	8011	23.676128997953	0.010590681702
0	8016	23.686719679655	0.000256078404
0	8021	23.686975758059	0.017208408993
0	8027	23.704184167052	0.004974103948
0	8031	23.709158271	0.001635105676
0	8034	23.710793376676	0.008673258984
0	8041	23.71946663566	0.004801935706
0	8044	23.724268571366	0.001622810259
0	8047	23.725891381625	0.028985481261
0	8057	23.754876862886	0.015216432286
0	8062	23.770093295172	0.014089571596
0	8067	23.784182866768	0.004932757933
0	8071	23.789115624701	0.0192613416
0	8077	23.808376966301	0.015492169265
0	8082	23.823869135566	0.009660881217
0	8087	23.833530016783	0.024761376894
0	8092	23.858291393677	0.010076399416
0	8097	23.868367793093	0.010518610053
0	8102	23.878886403146	0.036790155252
0	8107	23.915676558398	0.001808541639
0	8111	23.917485100037	0.008247146768
0	8116	23.925732246805	0.011637758669
0	8121	23.937370005474	0.023163851043
0	8127	23.960533856517	0.033055498291
0	8132	23.993589354808	0.01458171808
0	8137	24.008171072888	0.003595573247
0	8141	24.011766646135	0.003109956429
0	8144	24.014876602564	0.005295739237
0	8149	24.020172341801	0.054414183409
0	8158	24.07458652521	0.002908328571
0	8162	24.077494853781	0.006388984315
0	8167	24.083883838096	0.001349496867
0	8170	24.085233334963	0.003131246209
0	8173	24.088364581172	7.3125645e-005
0	8176	24.088437706817	0.02958421068
0	8187	24.118021917497	0.039452866936
0	8193	24.157474784433	0.052924080795
0	8198	24.210398865228	0.007694462261
0	8203	24.218093327489	0.05006128181
0	8208	24.268154609299	0.003572675753
0	8212	24.271727285052	0.013942748708
0	8218	24.28567003376	0.005846547081
0	8222	24.291516580841	0.011771371533
0	8228	24.303287952374	0.01127509668
0	8233	24.314563049054	0.008300031917
0	8238	24.322863080971	0.002529286675
0	8242	24.325392367646	0.002763890006
0	8245	24.328156257652	0.004558385596
0	8250	24.332714643248	0.000847849053
0	8253	24.333562492301	0.009156476286
0	8258	24.342718968587	0.008191685035
0	8263	24.350910653622	0.020853780273
0	8272	24.371764433895	0.006630275334
0	8277	24.378394709229	0.026633372855
0	8283	24.405028082084	0.005808954616
0	8287	24.4108370367	0.016423291637
0	8293	24.427260328337	0.015842397777
0	8298	24.443102726114	0.029619864627
0	8303	24.472722590741	0.005149617821
0	8307	24.477872208562	0.000576727323
0	8310	24.478448935885	0.005068279489
0	8315	24.483517215374	0.036288210331
0	8323	24.519805425705	0.009443362352
0	8328	24.529248788057	0.032334132317
0	8333	24.561582920374	0.022494563511
0	8339	24.584077483885	0.010914136621
0	8344	24.594991620506	0.003189354615
0	8348	24.598180975121	0.036746179414
0	8354	24.634927154535	0.011964096934
0	8359	24.646891251469	0.010972371094
0	8364	24.657863622563	0.012998852176
0	8369	24.670862474739	0.005455959531
0	8373	24.67631843427	0.015881049502
0	8379	24.692199483772	0.005100883312
0	8383	24.697300367084	0.003872367733
0	8388	24.701172734817	0.014857706239
0	8394	24.716030441056	0.039094760937
0	8399	24.755125201993	0.010487023418
0	8404	24.765612225411	0.033309922947
0	8409	24.798922148358	0.007038765655
0	8413	24.805960914013	0.009353518689
0	8419	24.815314432702	0.008900987717
0	8424	24.824215420419	0.007481503428
0	8429	24.831696923847	0.001185220692
0	8433	24.832882144539	0.004672030082
0	8436	24.837554174621	0.006837064658
0	8441	24.844391239279	8.1717547e-005
0	8444	24.844472956826	0.009363499826
0	8449	24.853836456652	0.005882101059
0	8454	24.859718557711	0.010239851808
0	8461	24.869958409519	0.03079436864
0	8469	24.900752778159	0.004467458845
0	8473	24.905220237004	0.020372252806
0	8479	24.92559248981	0.00207510795
0	8483	24.92766759776	0.012309823715
0	8488	24.939977421475	0.006178191974
0	8493	24.946155613449	0.002813247632
0	8498	24.948968861081	0.008308387238
0	8503	24.957277248319	0.001581069137
0	8506	24.958858317456	0.023064862266
0	8514	24.981923179722	0.012772876219
0	8519	24.994696055941	0.010678135617
0	8524	25.005374191558	0.004209302737
0	8528	25.009583494295	0.010532787712
0	8533	25.020116282007	0.01986134803
0	8539	25.039977630037	0.017649048516
0	8544	25.057626678553	0.013703949524
0	8549	25.071330628077	0.012614519224
0	8554	25.083945147301	0.00197494626
0	8558	25.085920093561	0.023597333205
0	8564	25.109517426766	0.016736937485
0	8569	25.126254364251	0.013297084967
0	8574	25.139551449218	0.039702559655
0	8579	25.179254008873	0.013251610978
0	8584	25.192505619851	0.006984247222
0	8588	25.199489867073	0.011309210395
0	8594	25.210799077468	0.005708342924
0	8598	25.216507420392	0.017690809284
0	8604	25.234198229676	0.008139625151
0	8609	25.242337854827	0.028352815613
0	8614	25.27069067044	7.5641089e-005
0	8618	25.270766311529	0.009889737082
0	8623	25.280656048611	0.026441513519
0	8629	25.30709756213	0.018677726
0	8634	25.32577528813	0.013344440175
0	8639	25.339119728305	0.002245731906
0	8643	25.341365460211	0.00109229026
0	8646	25.342457750471	0.044768632001
0	8654	25.387226382472	0.002735429893
0	8658	25.389961812365	0.006615866583
0	8663	25.396577678948	0.006482320244
0	8668	25.403059999192	0.019410065073
0	8674	25.422470064265	0.002091672081
0	8678	25.424561736346	0.05150469662
0	8684	25.476066432966	0.017344810135
0	8689	25.493411243101	0.00084940699
0	8693	25.494260650091	0.002051837881
0	8696	25.496312487972	0.008589758341
0	8701	25.504902246313	0.000708640984
0	8704	25.505610887297	0.005465432632
0	8709	25.511076319929	0.005484896781
0	8714	25.51656121671	0.01981368713
0	8721	25.53637490384	0.004667906443
0	8726	25.541042810283	0.006091647979
0	8731	25.547134458262	0.030144143344
0	8739	25.577278601606	0.001376000978
0	8743	25.578654602584	0.004776365656
0	8746	25.58343096824	0.017360292074
0	8754	25.600791260314	0.009725054181
0	8759	25.610516314495	0.001324680397
0	8763	25.611840994892	0.003294707532
0	8766	25.615135702424	0.059600431921
0	8775	25.674736134345	0.009873873157
0	8780	25.684610007502	0.032310910072
0	8785	25.716920917574	0.000899064844
0	8789	25.717819982418	0.069781021196
0	8796	25.787601003614	0.001471098259
0	8800	25.789072101873	0.000150470892
0	8803	25.789222572765	0.010577586394
0	8808	25.799800159159	0.0030683385
0	8813	25.802868497659	0.012653997685
0	8818	25.815522495344	0.017221866592
0	8826	25.832744361936	0.014075434415
0	8831	25.846819796351	0.002939200744
0	8835	25.849758997095	0.014749211096
0	8841	25.864508208191	0.004396999013
0	8845	25.868905207204	0.043355630131
0	8851	25.912260837335	0.003649594053
0	8855	25.915910431388	0.001403995991
0	8858	25.917314427379	0.014562191005
0	8865	25.931876618384	0.002783275514
0	8870	25.934659893898	0.017059773682
0	8876	25.95171966758	0.013141422793
0	8881	25.964861090373	0.007494076901
0	8886	25.972355167274	0.026642390662
0	8891	25.998997557936	0.031618638884
0	8897	26.03061619682	0.001677939947
0	8901	26.032294136767	0.03720145652
0	8907	26.069495593287	0.000273279252
0	8911	26.069768872539	0.011365508679
0	8916	26.081134381218	0.005159100661
0	8921	26.086293481879	0.008931908969
0	8926	26.095225390848	0.040989310266
0	8932	26.136214701114	5.3310052e-005
0	8936	26.136268011166	0.018434208089
0	8942	26.154702219255	0.040916117971
0	8947	26.195618337226	0.016012503708
0	8952	26.211630840934	0.037621023149
0	8957	26.249251864083	0.000840190362
0	8961	26.250092054445	0.041114955457
0	8967	26.291207009902	0.002351762508
0	8971	26.29355877241	0.005275541117
0	8976	26.298834313527	0.024143327299
0	8982	26.322977640826	0.010867359222
0	8987	26.333845000048	0.00464442714
0	8991	26.338489427188	0.05240813164
0	8997	26.390897558828	0.009158131918
0	9002	26.400055690746	0.035351657955
0	9007	26.435407348701	0.002181671906
0	9011	26.437589020607	0.02363801267
0	9017	26.461227033277	0.001639731412
0	9021	26.462866764689	0.004597980255
0	9024	26.467464744944	0.011725894709
0	9031	26.479190639653	0.000553792242
0	9034	26.479744431895	0.00775265966
0	9039	26.487497091555	0.014245557828
0	9046	26.501742649383	0.003834508028
0	9051	26.505577157411	0.006632817141
0	9054	26.512209974552	0.002591249219
0	9059	26.514801223771	0.010441956774
0	9064	26.525243180545	0.017589139705
0	9072	26.54283232025	0.017311795181
0	9077	26.560144115431	0.012757431634
0	9082	26.572901547065	0.016414408278
0	9087	26.589315955343	0.001144635551
0	9091	26.590460590894	0.009373003887
0	9096	26.599833594781	0.005320405512
0	9101	26.605154000293	0.008846172406
0	9106	26.614000172699	0.018087229044
0	9112	26.632087401743	0.017997574489
0	9117	26.650084976232	0.024160871374
0	9122	26.674245847606	0.002898380673
0	9126	26.677144228279	0.00882126509
0	9131	26.685965493369	0.008447389302
0	9136	26.694412882671	0.019921803589
0	9142	26.71433468626	0.008093602996
0	9147	26.722428289256	0.002423373441
0	9151	26.724851662697	0.00667347073
0	9156	26.731525133427	0.006805893055
0	9161	26.738331026482	0.012348011985
0	9166	26.750679038467	0.005657313341
0	9171	26.756336351808	0.007413466367
0	9176	26.763749818175	0.022764266005
0	9182	26.78651408418	0.000816087064
0	9186	26.787330171244	0.010589279504
0	9191	26.797919450748	0.00100587508
0	9194	26.798925325828	0.006063271477
0	9199	26.804988597305	0.043321724542
0	9207	26.848310321847	0.012386638254
0	9213	26.860696960101	0.008480123609
0	9218	26.86917708371	0.006938170049
0	9222	26.876115253759	0.005456951356
0	9227	26.881572205115	0.011898773761
0	9233	26.893470978876	0.01400926778
0	9238	26.907480246656	0.014678776139
0	9243	26.922159022795	0.001860314449
0	9247	26.924019337244	0.003425129752
0	9250	26.927444466996	0.004256724522
0	9255	26.931701191518	0.018243604384
0	9262	26.949944795902	0.013204360373
0	9268	26.963149156275	0.025460663341
0	9273	26.988609819616	0.000993129603
0	9277	26.989602949219	0.008609651158
0	9282	26.998212600377	0.008865510796
0	9287	27.007078111173	0.013298357989
0	9293	27.020376469162	0.025881400852
0	9298	27.046257870014	0.000157072383
0	9302	27.046414942397	0.000566760781
0	9305	27.046981703178	0.007394224625
0	9310	27.054375927803	0.008053466585
0	9315	27.062429394388	0.006009376069
0	9320	27.068438770457	0.003005927929
0	9323	27.071444698386	0.02942240666
0	9333	27.100867105046	0.023768953087
0	9338	27.124636058133	0.000516212562
0	9342	27.125152270695	0.001723728082
0	9345	27.126875998777	0.00672260481
0	9350	27.133598603587	0.019733806169
0	9357	27.153332409756	0.01531996205
0	9363	27.168652371806	4.1409329e-005
0	9367	27.168693781135	0.000744112894
0	9370	27.169437894029	0.015579788194
0	9377	27.185017682223	0.029518397234
0	9383	27.214536079457	0.009706972927
0	9388	27.224243052384	0.004316559752
0	9392	27.228559612136	0.00618158895
0	9397	27.234741201086	0.010050520509
0	9402	27.244791721595	0.002224447147
0	9407	27.247016168742	0.01216880424
0	9412	27.259184972982	0.003706829242
0	9417	27.262891802224	0.006448495845
0	9422	27.269340298069	0.0353782622
0	9428	27.304718560269	0.009640576641
0	9433	27.31435913691	0.009663277426
0	9438	27.324022414336	0.028549861334
0	9443	27.35257227567	0.003116688897
0	9447	27.355688964567	0.003928284219
0	9450	27.359617248786	0.016344057502
0	9458	27.375961306288	0.000133565822
0	9462	27.37609487211	0.000215670899
0	9465	27.376310543009	0.013953100181
0	9470	27.39026364319	0.016672321221
0	9478	27.406935964411	0.009165497929
0	9483	27.41610146234	0.011852414003
0	9488	27.427953876343	0.015985241271
0	9493	27.443939117614	0.011532037192
0	9498	27.455471154806	0.005660354977
0	9502	27.461131509783	0.002505219346
0	9507	27.463636729129	0.010056710492
0	9512	27.473693439621	0.046774843433
0	9518	27.520468283054	0.006714283988
0	9522	27.527182567042	0.000777139678
0	9527	27.52795970672	0.003364818089
0	9530	27.531324524809	0.00041733127
0	9533	27.531741856079	0.009686112633
0	9538	27.541427968712	0.012299390995
0	9545	27.553727359707	0.010528233935
0	9550	27.564255593642	0.006731316973
0	9555	27.570986910615	0.002943795694
0	9560	27.573930706309	0.036521748923
0	9568	27.610452455232	0.010577459647
0	9573	27.621029914879	0.056342498145
0	9578	27.677372413024	0.003684178795
0	9582	27.681056591819	0.005033728348
0	9587	27.686090320167	0.011137206422
0	9592	27.697227526589	0.019803878182
0	9598	27.717031404771	0.023888512893
0	9603	27.740919917664	0.013042018502
0	9608	27.753961936166	0.023837472015
0	9613	27.777799408181	0.012214102299
0	9618	27.79001351048	0.015008051944
0	9623	27.805021562424	0.017210287211
0	9628	27.822231849635	0.010317761431
0	9633	27.832549611066	0.001455297899
0	9637	27.834004908965	0.003469792955
0	9640	27.83747470192	0.004347287889
0	9645	27.841821989809	0.007035949792
0	9650	27.848857939601	0.014401834952
0	9657	27.863259774553	0.049394228595
0	9663	27.912654003148	0.016336801768
0	9668	27.928990804916	0.029233390617
0	9673	27.958224195533	0.006068895351
0	9677	27.964293090884	0.000821461169
0	9680	27.965114552053	0.006706125118
0	9685	27.971820677171	0.020769810512
0	9693	27.992590487683	0.0162367947
0	9698	28.008827282383	0.017784813664
0	9703	28.026612096047	0.004280686339
0	9707	28.030892782386	0.030783193042
0	9713	28.061675975428	0.000600063978
0	9717	28.062276039406	0.007399437438
0	9722	28.069675476844	0.007619917374
0	9727	28.077295394218	0.031266792423
0	9733	28.108562186641	0.018434334229
0	9738	28.12699652087	0.003245700377
0	9742	28.130242221247	0.008579391682
0	9747	28.138821612929	0.001662240353
0	9750	28.140483853282	0.013024771364
0	9757	28.153508624646	0.057725444586
0	9763	28.211234069232	0.014373660445
0	9768	28.225607729677	0.017320467118
0	9773	28.242928196795	0.049840811555
0	9778	28.29276900835	0.001944261087
0	9782	28.294713269437	0.014561934108
0	9788	28.309275203545	0.015371740039
0	9793	28.324646943584	0.009403918141
0	9798	28.334050861725	0.004560356967
0	9802	28.338611218692	0.004932521977
0	9807	28.343543740669	0.058313733944
0	9813	28.401857474613	0.007279905772
0	9817	28.409137380385	0.049077304358
0	9823	28.458214684743	0.004971478537
0	9827	28.46318616328	0.001022360501
0	9830	28.464208523781	0.001333215717
0	9833	28.465541739498	0.004717862113
0	9838	28.470259601611	0.070237006833
0	9848	28.540496608444	0.003902331315
0	9852	28.544398939759	0.005934719242
0	9857	28.550333659001	0.014076125661
0	9863	28.564409784662	0.015525400485
0	9868	28.579935185147	0.057113014365
0	9873	28.637048199512	0.016115287374
0	9878	28.653163486886	0.025912670022
0	9883	28.679076156908	0.025648196184
0	9888	28.704724353092	0.051947425582
0	9893	28.756671778674	0.004009103492
0	9897	28.760680882166	0.023600906759
0	9903	28.784281788925	0.0084174904
0	9908	28.792699279325	0.000741419807
0	9912	28.793440699132	0.012550517796
0	9917	28.805991216928	0.011165372591
0	9923	28.817156589519	0.014030812512
0	9928	28.831187402031	0.001108516358
0	9932	28.832295918389	0.010009030605
0	9937	28.842304948994	0.007179957217
0	9942	28.849484906211	0.037265818219
0	9948	28.88675072443	0.025918803246
0	9953	28.912669527676	0.001793039632
0	9957	28.914462567308	0.008397885474
0	9962	28.922860452782	0.028577225776
0	9968	28.951437678558	0.047428146968
0	9973	28.998865825526	0.006060867057
0	9977	29.004926692583	0.006851248722
0	9982	29.011777941305	0.001937729255
0	9987	29.01371567056	0.011302608581
0	9992	29.025018279141	0.001824008576
0	9995	29.026842287717	0.001668196236
0	10000	29.028510483953	0.013281647063
0	10005	29.041792131016	0.026475109647
0	10013	29.068267240663	0.006642178421
0	10017	29.074909419084	0.000491152188
0	10020	29.075400571272	0.00426322236
0	10025	29.079663793632	0.020099898034
0	10033	29.099763691666	0.061841329181
0	10038	29.161605020847	0.006639730525
0	10042	29.168244751372	0.017072574189
0	10048	29.185317325561	0.019341908001
0	10053	29.204659233562	0.023694367253
0	10058	29.228353600815	0.015265311569
0	10063	29.243618912384	0.002309056632
0	10067	29.245927969016	0.006327587039
0	10072	29.252255556055	0.016249290368
0	10078	29.268504846423	0.000853286367
0	10082	29.26935813279	0.007444680152
0	10087	29.276802812942	0.015384613414
0	10093	29.292187426356	0.016547446472
0	10098	29.308734872828	0.000686324598
0	10102	29.309421197426	0.029792821558
0	10108	29.339214018984	0.034867299596
0	10113	29.37408131858	0.002694357234
0	10117	29.376775675814	0.003770853162
0	10120	29.380546528976	0.039620893069
0	10128	29.420167422045	0.006450580941
0	10132	29.426618002986	0.014719947218
0	10138	29.441337950204	0.01155072495
0	10143	29.452888675154	0.004796996706
0	10147	29.45768567186	0.017773572532
0	10153	29.475459244392	0.006477926066
0	10157	29.481937170458	0.03401419012
0	10163	29.515951360578	0.007057489889
0	10167	29.523008850467	0.000681573012
0	10172	29.523690423479	0.013502527574
0	10177	29.537192951053	0.014693996827
0	10183	29.55188694788	0.009869337754
0	10188	29.561756285634	0.018730279046
0	10193	29.58048656468	0.000846862389
0	10197	29.581333427069	0.026343161767
0	10203	29.607676588836	0.003016253738
0	10207	29.610692842574	0.005563421571
0	10212	29.616256264145	0.023495438153
0	10218	29.639751702298	0.011286836601
0	10223	29.651038538899	0.02980796846
0	10228	29.680846507359	0.001998925598
0	10232	29.682845432957	0.013060235227
0	10238	29.695905668184	0.003299722774
0	10242	29.699205390958	0.019776751559
0	10248	29.718982142517	0.001000651947
0	10252	29.719982794464	0.009135023517
0	10257	29.729117817981	0.015412532259
0	10263	29.74453035024	0.001763392908
0	10267	29.746293743148	0.015120006553
0	10273	29.761413749701	0.007360139712
0	10277	29.768773889413	0.009823698041
0	10283	29.778597587454	0.093733897146
0	10288	29.8723314846	0.001381966535
0	10292	29.873713451135	0.013269826093
0	10297	29.886983277228	0.001670255073
0	10302	29.888653532301	0.00416857637
0	10305	29.892822108671	0.044257006435
0	10313	29.937079115106	0.004082434998
[...]
23	18147	52.764819016868	0.007307652156
23	18152	52.77553488795	0.007307652156
23	18157	52.812994413462	0.007306889353
23	18162	52.837600765197	0.007306889353
23	18167	52.84490765455	0.008754462947
23	18172	52.852214543903	0.012092703011
23	18177	52.868038980316	0.007306889353
23	18182	52.875345869669	0.013194246692
23	18187	52.882651996378	0.008414744875
23	18192	52.889958123087	0.008246087334
23	18197	52.905237058196	0.007306126709
23	18202	52.912543184905	0.011521498675
23	18207	52.920376950462	0.007306126709
23	18212	52.929875114016	0.007306126709
23	18217	52.944376250213	0.007306126709
23	18222	52.960903708557	0.007305364225
23	18227	52.968209072782	0.013542224351
23	18232	52.978269110007	0.007305364225
23	18237	53.024117944963	0.007304601899
23	18242	53.057686331326	0.007304601899
23	18247	53.065841963679	0.007304601899
23	18252	53.073146565578	0.010518623625
23	18257	53.086083795562	0.007304601899
23	18262	53.093388397461	0.011768957046
23	18267	53.102846742396	0.007303839733
23	18275	53.110150582129	0.01111267833
23	18280	53.117454421862	0.017864921464
23	18282	53.124758261595	0.015486727429
23	18287	53.132062101328	0.013490455135
23	18292	53.150299580793	0.007303839733
23	18297	53.157603420526	0.013121915103
23	18302	53.164907260259	0.010380054857
23	18307	53.175779785273	0.007303839733
23	18312	53.201106233319	0.007303077726
23	18317	53.208409311045	0.007888083185
23	18322	53.232852895806	0.007303077726
23	18327	53.240155973532	0.009404441204
23	18332	53.247459051258	0.009899200962
23	18337	53.264827569629	0.007302315877
23	18345	53.272129885506	0.013307079824
23	18350	53.279432201383	0.01722239127
23	18352	53.28673451726	0.020668902414
23	18357	53.305157376079	0.007302315877
23	18362	53.3426930364	0.007301554188
23	18367	53.349994590588	0.01325756017
23	18372	53.357970316844	0.007301554188
23	18377	53.381602849128	0.007301554188
23	18382	53.388904403316	0.010420223897
23	18387	53.410942157981	0.007300792657
23	18392	53.418242950638	0.012248885237
23	18397	53.425543743295	0.009874292042
23	18405	53.432844535952	0.009944173557
23	18407	53.440145328609	0.015044478907
23	18412	53.459188560405	0.007300792657
23	18417	53.482587401912	0.007300792657
23	18422	53.496135239112	0.007300031286
23	18427	53.514201818711	0.007300031286
23	18432	53.521501849997	0.014086364753
23	18437	53.546944946736	0.007300031286
23	18442	53.561414228403	0.007300031286
23	18450	53.568714259689	0.01295100763
23	18452	53.576013529762	0.018732151812
23	18457	53.613751717847	0.007299270073
23	18462	53.624650639377	0.007299270073
23	18467	53.64609673765	0.007298509019
23	18472	53.663021325389	0.007298509019
23	18477	53.689731183428	0.007298509019
23	18482	53.697029692447	0.010495898521
23	18487	53.706219974325	0.007298509019
23	18492	53.717092352857	0.007298509019
23	18497	53.727568438235	0.007297748123
23	18502	53.735466958629	0.007297748123
23	18507	53.742764706752	0.011526338072
23	18513	53.789110158089	0.007297748123
23	18518	53.810835235568	0.007296987387
23	18523	53.818163609791	0.007296987387
23	18528	53.839292995635	0.007296987387
23	18533	53.846589983022	0.011239508844
23	18538	53.863892625818	0.007296987387
23	18543	53.872940642318	0.007296987387
23	18548	53.880674030785	0.007296226808
23	18553	53.912334245351	0.007296226808
23	18558	53.919630472159	0.011780469837
23	18563	53.931126844677	0.007296226808
23	18568	53.944981224097	0.007296226808
23	18573	53.952908913193	0.007295466389
23	18578	53.963645973136	0.007295466389
23	18583	53.970941439525	0.011174515999
23	18588	53.981643899777	0.007295466389
23	18593	54.010595088203	0.007295466389
23	18598	54.0404846843	0.007294706128
23	18603	54.050061128594	0.007294706128
23	18608	54.109924218795	0.007293946025
23	18613	54.13369318401	0.007293946025
23	18618	54.140987130035	0.01138546
23	18626	54.14828107606	0.010702250611
23	18640	54.155575022085	0.016453728216
23	18642	54.16286896811	0.021856984897
23	18644	54.170162914135	0.028953505392
23	18646	54.17745686016	0.034223193365
23	18648	54.184750806185	0.038701360972
23	18653	54.192043992265	0.011254629994
23	18658	54.234722980589	0.00729318608
23	18663	54.25623043914	0.00729318608
23	18668	54.271001001423	0.007292426294
23	18673	54.281518111342	0.007292426294
23	18678	54.295460230288	0.007292426294
23	18686	54.302752656582	0.0138825544
23	18688	54.310045082876	0.020234639135
23	18693	54.31733750917	0.013971719746
23	18701	54.324629935464	0.011528667603
23	18703	54.331922361758	0.016966266848
23	18711	54.339214788052	0.014321995677
23	18713	54.346506454719	0.014864997745
23	18718	54.366057184104	0.007291666667
23	18723	54.373348850771	0.011517113893
23	18728	54.380640517438	0.011816121544
23	18733	54.392997891425	0.007291666667
23	18738	54.417462146282	0.007290907197
23	18743	54.424753053479	0.008779197395
23	18748	54.452138791078	0.007290907197
23	18753	54.500429126901	0.007290147886
23	18758	54.510462282518	0.007290147886
23	18763	54.524749638403	0.007290147886
23	18768	54.548846584454	0.007290147886
23	18773	54.560017231807	0.007290147886
23	18778	54.567722734444	0.007290147886
23	18783	54.583351266183	0.007289388733
23	18788	54.600714620466	0.007289388733
23	18793	54.608004009199	0.009340538483
23	18798	54.64539662884	0.007289388733
23	18803	54.653998461346	0.007288629738
23	18811	54.661287091084	0.010596275409
23	18813	54.668575720822	0.015487096508
23	18818	54.67586435056	0.011346640174
23	18823	54.683152980298	0.013575057333
23	18831	54.690441610036	0.010548993996
23	18833	54.697730239774	0.015896834454
23	18841	54.705018869512	0.010315892889
23	18843	54.71230749925	0.016728723897
23	18848	54.719596128988	0.012007724102
23	18853	54.750291744186	0.007287870901
23	18858	54.757579615087	0.010117622583
23	18863	54.766720103037	0.007287870901
23	18868	54.774007973938	0.012855981488
23	18873	54.790911488945	0.007287870901
23	18878	54.798199359846	0.011647379368
23	18883	54.818556084657	0.007287112222
23	18888	54.8276260438	0.007287112222
23	18896	54.834913156022	0.01414066184
23	18901	54.842200268244	0.015216718636
23	18903	54.849487380466	0.015658608483
23	18908	54.856774492688	0.011528574722
23	18913	54.868066559488	0.007287112222
23	18918	54.883919438361	0.0072863537
23	18926	54.891205792061	0.007879413239
23	18928	54.898492145761	0.014944053034
23	18933	54.906083138913	0.0072863537
23	18938	54.942623689764	0.0072863537
23	18943	54.949910043464	0.012715045015
23	18948	55.00835106093	0.007285595337
23	18953	55.045777240707	0.007284837132
23	18958	55.053062077839	0.012636633571
23	18963	55.063352556489	0.007284837132
23	18968	55.076896055963	0.007284837132
23	18973	55.084180893095	0.008301955969
23	18978	55.093531803643	0.007284837132
23	18983	55.100816640775	0.010009473875
23	18991	55.108101477907	0.010751524381
23	18993	55.115386315039	0.017584562945
23	18998	55.122670394123	0.010121531069
23	19003	55.132446921752	0.007284079084
23	19008	55.157368909951	0.007284079084
23	19013	55.164652989035	0.012583514971
23	19018	55.203494161793	0.007283321194
23	19023	55.220081325201	0.007283321194
23	19028	55.232201056057	0.007283321194
23	19033	55.239484377251	0.011495428588
23	19038	55.277776565836	0.007282563462
23	19043	55.286817867794	0.007282563462
23	19048	55.296067591321	0.007282563462
23	19053	55.303350154783	0.007937620349
23	19058	55.361138154425	0.007281805888
23	19063	55.373211311179	0.007281805888
23	19068	55.380493117067	0.012850809629
23	19073	55.387774922955	0.013340043896
23	19078	55.397558708016	0.007281805888
23	19083	55.404840513904	0.012489570622
23	19088	55.412740905089	0.007281805888
23	19093	55.431076369095	0.007281048471
23	19098	55.45433993219	0.007281048471
23	19103	55.461620980661	0.008064944223
23	19108	55.468902029132	0.012550267192
23	19113	55.483164411856	0.007281048471
23	19118	55.491834473713	0.007281048471
23	19123	55.524881750457	0.007280291212
23	19128	55.538068107198	0.007280291212
23	19133	55.557604835504	0.007280291212
23	19138	55.581085887571	0.00727953411
23	19143	55.589742554837	0.00727953411
23	19148	55.615027362299	0.00727953411
23	19153	55.622306896409	0.011308931919
23	19158	55.650994411735	0.00727953411
23	19163	55.658273945845	0.01129807826
23	19168	55.68579629093	0.007278777165
23	19182	55.693075068095	0.014124490263
23	19190	55.70035384526	0.019019940204
23	19192	55.707632622425	0.025730471165
23	19194	55.71491139959	0.030097016811
23	19196	55.722190176755	0.035466562532
23	19204	55.72946895392	0.038847634445
23	19207	55.736746974298	0.016615354204
23	19209	55.744024994676	0.022777718937
23	19214	55.802397558196	0.007278020378
23	19219	55.809675578574	0.013543530167
23	19224	55.816952842323	0.007398923829
23	19229	55.828343000636	0.007277263749
23	19234	55.835620264385	0.00997518935
23	19239	55.870821704529	0.007277263749
23	19244	55.911106549346	0.007276507277
23	19249	55.918383056623	0.00747570508
23	19257	55.9256595639	0.011514139323
23	19259	55.932936071177	0.015183884625
23	19264	55.941127548654	0.007276507277
23	19269	55.950436571138	0.007276507277
23	19274	55.957713078415	0.009352911169
23	19279	55.964989585692	0.011348777202
23	19284	56.023693226067	0.007275750961
23	19289	56.040416284573	0.007274994804
23	19294	56.057919105723	0.007274994804
23	19299	56.106024545325	0.007274994804
23	19304	56.134234571767	0.007274238803
23	19309	56.165282242742	0.007274238803
23	19314	56.172556481545	0.013397464182
23	19319	56.189490651912	0.007274238803
23	19324	56.205582135052	0.007273482959
23	19329	56.238160982026	0.007273482959
23	19334	56.24999625851	0.007273482959
23	19339	56.257269741469	0.012821757294
23	19344	56.283404119087	0.007272727273
23	19349	56.300326227012	0.007272727273
23	19354	56.320388056703	0.007272727273
23	19359	56.328068650195	0.007272727273
23	19364	56.362561643838	0.007271971743
23	19369	56.369833615581	0.013388712619
23	19374	56.377105587324	0.011820889174
23	19379	56.38844912661	0.007271971743
23	19384	56.395721098353	0.008135754759
23	19395	56.402993070096	0.012512903038
23	19397	56.410265041839	0.019335970229
23	19399	56.417537013582	0.025965271726
23	19404	56.424808985325	0.01202300536
23	19409	56.455920704656	0.007271216371
23	19414	56.47213523474	0.007271216371
23	19419	56.479406451111	0.011960618468
23	19424	56.506435856027	0.007270461155
23	19429	56.513706317182	0.010214539222
23	19434	56.536896051273	0.007270461155
23	19439	56.545929826043	0.007270461155
23	19444	56.562849611446	0.007270461155
23	19449	56.59552408494	0.007269706096
23	19454	56.602793791036	0.008332590003
23	19459	56.610672263739	0.007269706096
23	19464	56.627534807675	0.007269706096
23	19469	56.637968089637	0.007269706096
23	19474	56.645237795733	0.009058316348
23	19479	56.652507501829	0.011045482713
23	19484	56.718011850079	0.007268951194
23	19489	56.754895038921	0.007268196449
23	19494	56.76216323537	0.009995979761
23	19499	56.773052063594	0.007268196449
23	19504	56.784486857157	0.007268196449
23	19509	56.811151023881	0.00726744186
23	19517	56.818418465741	0.012248665913
23	19522	56.825685907601	0.014794365252
23	19524	56.832953349461	0.017492373928
23	19529	56.859257564164	0.00726744186
23	19534	56.897898998429	0.007266687429
23	19539	56.935589458695	0.007266687429
23	19544	56.942856146124	0.009162149914
23	19549	56.963321543788	0.007266687429
23	19554	56.970588231217	0.013556295947
23	19559	56.981762142401	0.007265933153
23	19564	56.993308600984	0.007265933153
23	19569	57.021002796172	0.007265933153
23	19574	57.030255454827	0.007265933153
23	19585	57.03752138798	0.012879938562
23	19587	57.044787321133	0.017371223003
23	19589	57.052052500168	0.023387746906
23	19594	57.085418666432	0.007265179035
23	19599	57.092683845467	0.007716157906
23	19604	57.104233104627	0.007265179035
23	19609	57.111498283662	0.007618986005
23	19614	57.143197653404	0.007264425073
23	19619	57.154947266047	0.007264425073
23	19624	57.16221169112	0.011778391678
23	19629	57.169476116193	0.012430146908
23	19634	57.181806911845	0.007264425073
23	19639	57.195461017861	0.007264425073
23	19644	57.202725442934	0.01058828133
23	19652	57.209989114201	0.012427019213
23	19654	57.217252785468	0.018763515736
23	19659	57.24141863654	0.007263671267
23	19664	57.254669190248	0.007263671267
23	19669	57.261932861515	0.010589468083
23	19675	57.295285335385	0.007262917618
23	19680	57.302548253003	0.008830177051
23	19685	57.309811170621	0.012504709951
23	19690	57.32567479913	0.007262917618
23	19695	57.336131911213	0.007262917618
23	19700	57.346331021015	0.007262917618
23	19705	57.353593938633	0.010539842748
23	19710	57.399021909254	0.007262164125
23	19715	57.412938487107	0.007262164125
23	19720	57.420200651232	0.012419791826
23	19725	57.427462815357	0.00943068412
23	19730	57.458348216506	0.007261410788
23	19735	57.484601779712	0.007261410788
23	19740	57.498296851802	0.007261410788
23	19745	57.518822467402	0.007260657608
23	19753	57.52608312501	0.012316677952
23	19755	57.533343782618	0.016003778953
23	19760	57.540604440226	0.012614165709
23	19765	57.547865097834	0.009083377586
23	19770	57.555250901719	0.007260657608
23	19775	57.586994012303	0.007259904584
23	19780	57.594253916887	0.009296311121
23	19788	57.601513821471	0.008911546545
23	19790	57.608773726055	0.015905080889
23	19795	57.621718056368	0.007259904584
23	19800	57.628977960952	0.007548299735
23	19805	57.644059238638	0.007259904584
23	19810	57.684059768955	0.007259151716
23	19815	57.691318920671	0.014117333381
23	19820	57.698578072387	0.010942635199
23	19825	57.705837224103	0.010245045977
23	19830	57.730616673558	0.007259151716
23	19835	57.764290137738	0.007258399005
23	19840	57.78361496668	0.007258399005
23	19851	57.790873365685	0.010555503539
23	19856	57.79813176469	0.016796952974
23	19861	57.805390163695	0.022959662889
23	19863	57.8126485627	0.027999327096
23	19865	57.819906961705	0.02792015958
23	19870	57.848279066907	0.007257646449
23	19875	57.855536713356	0.011445915258
23	19880	57.873628218573	0.007257646449
23	19885	57.888220809436	0.007257646449
23	19890	57.895478455885	0.008420151867
23	19898	57.902735349934	0.010953717779
23	19909	57.909992243983	0.014816937575
23	19911	57.917249138032	0.019115482449
23	19913	57.924506032081	0.025418924563
23	19921	57.93176292613	0.031703449556
23	19923	57.939019820179	0.017214794638
23	19928	57.946276714228	0.022398980006
23	19930	57.953533608277	0.020262557589
23	19935	57.960790502326	0.01155912122
23	19940	57.971430266876	0.007256141806
23	19945	57.978686408682	0.011412926655
23	19950	57.996554183128	0.007256141806
23	19955	58.005291052098	0.007256141806
23	19960	58.020495731478	0.007256141806
23	19968	58.027751873284	0.014009341709
23	19973	58.03500801509	0.015047677215
23	19975	58.042264156896	0.018369163905
23	19980	58.049520298702	0.012523979831
23	19985	58.081090620227	0.007255389718
23	19990	58.088346009945	0.007455581533
23	19995	58.095601399663	0.009069000947
23	20000	58.111237141162	0.007255389718
23	20005	58.120199056339	0.007255389718
23	20010	58.149544052448	0.007254637786
23	20015	58.203022575466	0.00725388601
23	20020	58.210886404635	0.00725388601
23	20025	58.253706228983	0.00725388601
23	20030	58.266477027982	0.00725388601
23	20035	58.274916408354	0.00725388601
23	20040	58.284541577985	0.00725313439
23	20045	58.291794712375	0.008001470289
23	20050	58.301129351324	0.00725313439
23	20055	58.329217296801	0.00725313439
23	20069	58.336470431191	0.014377371711
23	20071	58.343723565581	0.020548943032
23	20073	58.350976699971	0.025565871099
23	20075	58.358229834361	0.030813336532
23	20080	58.372039861053	0.007252382926
23	20085	58.385986493641	0.007252382926
23	20090	58.402001238014	0.007252382926
23	20095	58.418888829136	0.007252382926
23	20100	58.431517672251	0.007252382926
23	20105	58.472671415551	0.007251631617
23	20110	58.495131929388	0.007251631617
23	20115	58.525878175105	0.007250880464
23	20120	58.533129055569	0.012083891346
23	20125	58.540379936033	0.011243543763
23	20130	58.547630816497	0.009242817211
23	20135	58.554881696961	0.013831989183
23	20140	58.568143087799	0.007250880464
23	20145	58.579097588663	0.007250880464
23	20150	58.604110165902	0.007250129467
23	20155	58.636683556739	0.007250129467
23	20160	58.660169294498	0.007250129467
23	20165	58.669615672816	0.007249378625
23	20170	58.696107059981	0.007249378625
23	20175	58.7037145453	0.007249378625
23	20180	58.729465338335	0.007249378625
23	20185	58.760673982913	0.007248627938
23	20190	58.810782990558	0.007248627938
23	20195	58.818141777769	0.007248627938
23	20200	58.82774925702	0.007247877407
23	20205	58.835957298444	0.007247877407
23	20210	58.857289200854	0.007247877407
23	20215	58.864537078261	0.0126539838
23	20220	58.902275678448	0.007247127032
23	20225	58.940947881161	0.007247127032
23	20230	58.953500440079	0.007247127032
23	20235	58.960747567111	0.008795711867
23	20240	58.967994694143	0.012827620422
23	20245	59.007217292547	0.007246376812
23	20250	59.015033879188	0.007246376812
23	20255	59.022571152244	0.007246376812
23	20260	59.03151662014	0.007246376812
23	20265	59.038762996952	0.0075935962
23	20270	59.047772803903	0.007246376812
23	20278	59.055019180715	0.008204628221
23	20283	59.062264807462	0.014712091604
23	20285	59.069510434209	0.021569998313
23	20290	59.076756060956	0.013135548115
23	20295	59.098385671805	0.007245626747
23	20300	59.106325234916	0.007245626747
23	20305	59.141599842403	0.007244876837
23	20313	59.14884471924	0.010141207446
23	20318	59.156089596077	0.016936746289
23	20320	59.163334472914	0.017783246132
23	20325	59.170579349751	0.012483451658
23	20330	59.177824226588	0.008931848913
23	20335	59.186059740898	0.007244876837
23	20340	59.193304617735	0.011890512385
23	20348	59.200549494572	0.012361727501
23	20350	59.207794371409	0.016765445033
23	20355	59.232136083685	0.007244127083
23	20360	59.243457305628	0.007244127083
23	20365	59.250701432711	0.012340862104
23	20370	59.269722564487	0.007244127083
23	20375	59.308435510764	0.007243377483
23	20380	59.329040215024	0.007243377483
23	20385	59.336283592507	0.010483074124
23	20390	59.34352696999	0.011173801595
23	20395	59.350770347473	0.013704475588
23	20400	59.358013724956	0.012012744431
23	20405	59.365257102439	0.012767210928
23	20410	59.378441396	0.007242628039
23	20418	59.385684024039	0.012850768422
23	20420	59.392926652078	0.017327506321
23	20425	59.400169280117	0.010988872188
23	20430	59.408063738083	0.007242628039
23	20435	59.419940124932	0.007242628039
23	20440	59.428581185251	0.007242628039
23	20445	59.437780336789	0.007242628039
23	20450	59.448333535198	0.00724187875
23	20455	59.455575413948	0.012109993497
23	20460	59.483590347529	0.00724187875
23	20468	59.490832226279	0.014320679468
23	20473	59.498074105029	0.020114914129
23	20481	59.505315983779	0.019564260875
23	20483	59.512557862529	0.019921644998
23	20488	59.519799741279	0.024168671208
23	20490	59.527040870895	0.015191593325
23	20495	59.534282000511	0.010358023996
23	20500	59.549385261125	0.007241129616
23	20505	59.556626390741	0.014263815788
23	20510	59.569422019968	0.007241129616
23	20515	59.576663149584	0.009124298286
23	20523	59.5839042792	0.011169799175
23	20525	59.591145408816	0.018367186147
23	20530	59.598386538432	0.013151999646
23	20535	59.605626919069	0.013789940897
23	20540	59.623172033389	0.007240380637
23	20545	59.660751765597	0.007240380637
23	20550	59.667992146234	0.011871612571
23	20555	59.675232526871	0.007541070978
23	20560	59.692522914038	0.007239631813
23	20565	59.703304300336	0.007239631813
23	20570	59.721003220218	0.007239631813
23	20575	59.735423939876	0.007239631813
23	20580	59.787824488346	0.007238883144
23	20591	59.79506337149	0.010567365817
23	20596	59.802302254634	0.016257266075
23	20601	59.809541137778	0.022210751281
23	20603	59.816780020922	0.025636575189
23	20605	59.824018904066	0.022608769484
23	20610	59.837602323241	0.007238134629
23	20615	59.892452507654	0.007238134629
23	20620	59.899690642283	0.014138114025
23	20625	59.906928776912	0.009046295262
23	20630	59.914166163182	0.009898609647
23	20635	59.945825993976	0.00723738627
23	20640	59.953063380246	0.008268971609
23	20645	59.971938835503	0.00723738627
23	20650	59.984309833502	0.007236638065
23	20655	59.991546471567	0.01165420821

