file 3815 1612439760                                            
version 2
run non-monitoring-5-20210204-12:56:00-13204
attr configname non-monitoring
attr datetime 20210204-12:56:00
attr experiment non-monitoring
attr inifile aerocom.ini
attr iterationvars ""
attr iterationvarsf ""
attr measurement ""
attr network Aerocom
attr processid 13204
attr repetition 5
attr replication #5
attr resultdir results
attr runnumber 5
attr seedset 5
param **.t 1s
param **.k 1s
param **.nA 10
param **.nDL 10
param **.dataLink[*].s "70 byte"
param **.dataLink[*].X 5s
param **.dataLink[*].dimPoolMax 9000
param **.dataLink[*].dimPoolMin 9000
param **.dataLink[*].tDistribution "\"exponential\""
param **.aircraft[*].m 1s
param **.aircraft[*].linkSelector.DLMaxCapacity 0
param **.aircraft[*].linkSelector.trasmitting false
param **.operationMode 1

vector 0 Aerocom.aircraft[0].packetGenerator arrivalTime:vector ETV
attr "" ""
attr source computeArrivalTime
vector 1 Aerocom.aircraft[0].dataLink[0] serviceTime:vector ETV
attr "" ""
attr source computeServiceTime
vector 2 Aerocom.aircraft[0].dataLink[0] tDistribution:vector ETV
attr "" ""
attr source computeTDistribution
vector 3 Aerocom.aircraft[0].dataLink[1] serviceTime:vector ETV
attr "" ""
attr source computeServiceTime
vector 4 Aerocom.aircraft[0].dataLink[1] tDistribution:vector ETV
attr "" ""
attr source computeTDistribution
vector 5 Aerocom.aircraft[0].dataLink[2] serviceTime:vector ETV
attr "" ""
attr source computeServiceTime
vector 6 Aerocom.aircraft[0].dataLink[2] tDistribution:vector ETV
attr "" ""
attr source computeTDistribution
vector 7 Aerocom.aircraft[0].dataLink[3] serviceTime:vector ETV
attr "" ""
attr source computeServiceTime
vector 8 Aerocom.aircraft[0].dataLink[3] tDistribution:vector ETV
attr "" ""
attr source computeTDistribution
vector 9 Aerocom.aircraft[0].dataLink[4] serviceTime:vector ETV
attr "" ""
attr source computeServiceTime
vector 10 Aerocom.aircraft[0].dataLink[4] tDistribution:vector ETV
attr "" ""
attr source computeTDistribution
vector 11 Aerocom.aircraft[0].dataLink[5] serviceTime:vector ETV
attr "" ""
attr source computeServiceTime
vector 12 Aerocom.aircraft[0].dataLink[5] tDistribution:vector ETV
attr "" ""
attr source computeTDistribution
vector 13 Aerocom.aircraft[0].dataLink[6] serviceTime:vector ETV
attr "" ""
attr source computeServiceTime
vector 14 Aerocom.aircraft[0].dataLink[6] tDistribution:vector ETV
attr "" ""
attr source computeTDistribution
vector 15 Aerocom.aircraft[0].dataLink[7] serviceTime:vector ETV
attr "" ""
attr source computeServiceTime
vector 16 Aerocom.aircraft[0].dataLink[7] tDistribution:vector ETV
attr "" ""
attr source computeTDistribution
vector 17 Aerocom.aircraft[0].dataLink[8] serviceTime:vector ETV
attr "" ""
attr source computeServiceTime
vector 18 Aerocom.aircraft[0].dataLink[8] tDistribution:vector ETV
attr "" ""
attr source computeTDistribution
vector 19 Aerocom.aircraft[0].dataLink[9] serviceTime:vector ETV
attr "" ""
attr source computeServiceTime
vector 20 Aerocom.aircraft[0].dataLink[9] tDistribution:vector ETV
attr "" ""
attr source computeTDistribution
vector 21 Aerocom.aircraft[1].packetGenerator arrivalTime:vector ETV
attr "" ""
attr source computeArrivalTime
0	3261 21 0 0 0 0 1 1.88926883974 1.88926883974 1.88926883974 3.5693367488125
1	3282 26 0 0 0 0 1 0.0077777777777778 0.0077777777777778 0.0077777777777778 6.0493827160494e-005
2	3308 24 0 0 0 0 1 0.34908241856692 0.34908241856692 0.34908241856692 0.12185853495253
3	3332 26 0 0 0 0 1 0.0077777777777778 0.0077777777777778 0.0077777777777778 6.0493827160494e-005
4	3358 24 0 0 0 0 1 0.20062130665367 0.20062130665367 0.20062130665367 0.040248908683426
5	3382 26 0 0 0 0 1 0.0077777777777778 0.0077777777777778 0.0077777777777778 6.0493827160494e-005
6	3408 24 0 0 0 0 1 0.75627177442045 0.75627177442045 0.75627177442045 0.57194699678505
7	3432 26 0 0 0 0 1 0.0077777777777778 0.0077777777777778 0.0077777777777778 6.0493827160494e-005
8	3458 23 0 0 0 0 1 1.8593993841654 1.8593993841654 1.8593993841654 3.4573660698348
9	3481 26 0 0 0 0 1 0.0077777777777778 0.0077777777777778 0.0077777777777778 6.0493827160494e-005
10	3507 25 0 0 0 0 1 0.21260030895001 0.21260030895001 0.21260030895001 0.045198891365638
11	3532 27 0 0 0 0 1 0.0077777777777778 0.0077777777777778 0.0077777777777778 6.0493827160494e-005
12	3559 24 0 0 0 0 1 2.1970080573367 2.1970080573367 2.1970080573367 4.8268444040025
13	3583 27 0 0 0 0 1 0.0077777777777778 0.0077777777777778 0.0077777777777778 6.0493827160494e-005
14	3610 26 0 0 0 0 1 0.070315555746763 0.070315555746763 0.070315555746763 0.0049442773799761
15	3636 27 0 0 0 0 1 0.0077777777777778 0.0077777777777778 0.0077777777777778 6.0493827160494e-005
16	3663 24 0 0 0 0 1 1.6441397512784 1.6441397512784 1.6441397512784 2.7031955217337
17	3687 27 0 0 0 0 1 0.0077777777777778 0.0077777777777778 0.0077777777777778 6.0493827160494e-005
18	3714 24 0 0 0 0 1 1.5463948623896 1.5463948623896 1.5463948623896 2.3913370704249
19	3738 27 0 0 0 0 1 0.0077777777777778 0.0077777777777778 0.0077777777777778 6.0493827160494e-005
20	3765 25 0 0 0 0 1 0.52801120833318 0.52801120833318 0.52801120833318 0.27879583612546
21	3790 23 0 0 0 0 1 1.679755504734 1.679755504734 1.679755504734 2.8215785556842

