version 2
run Non-monitoring-9-20210209-17:43:13-31068
attr configname Non-monitoring
attr datetime 20210209-17:43:13
attr experiment Non-monitoring
attr inifile aerocom.ini
attr iterationvars ""
attr iterationvarsf ""
attr measurement ""
attr network Aerocom
attr processid 31068
attr repetition 9
attr replication #9
attr resultdir results
attr runnumber 9
attr seedset 9
param **.t 1s
param **.k 50ms
param **.nA 1
param **.nDL 1
param **.s "70 byte"
param **.X 0s
param **.dimPoolMax 9000
param **.dimPoolMin 9000
param **.tDistribution "\"exponential\""
param **.m 1s
param **.DLMaxCapacity 0
param **.trasmitting false
param **.operationMode 1

vector 0 Aerocom.aircraft[0].packetGenerator arrivalTime:vector ETV
attr "" ""
attr source computeArrivalTime
vector 1 Aerocom.aircraft[0].dataLink[0] queueLength:vector ETV
attr "" ""
attr source computeQueueLength
vector 2 Aerocom.aircraft[0].dataLink[0] waitingTime:vector ETV
attr "" ""
attr source computeWaitingTime
vector 3 Aerocom.aircraft[0].dataLink[0] serviceTime:vector ETV
attr "" ""
attr source computeServiceTime
vector 4 Aerocom.aircraft[0].dataLink[0] responseTime:vector ETV
attr "" ""
attr source computeResponseTime
vector 5 Aerocom.aircraft[0].dataLink[0] tDistribution:vector ETV
attr "" ""
attr source computeTDistribution
0	946	10.038235033635	0.067240537641
0	952	10.105475571276	0.082976280703
0	957	10.188451851979	0.010117578283
0	962	10.198569430262	0.061667399726
0	967	10.260236829988	0.088704771405
0	972	10.348941601393	0.091117225569
0	977	10.440058826962	0.03574228364
0	982	10.475801110602	0.007644957057
0	986	10.483446067659	0.061833232075
0	992	10.545279299734	0.064973029333
0	997	10.610252329067	0.065041282681
0	1003	10.675293611748	0.008127755062
0	1008	10.68342136681	0.143014462424
0	1013	10.826435829234	0.017850017791
0	1018	10.844285847025	0.024868137255
0	1023	10.86915398428	0.071491703095
0	1028	10.940645687375	0.140041431997
0	1034	11.080687119372	0.040863467385
0	1039	11.121550586757	0.032425184126
0	1044	11.153975770883	0.060382372676
0	1049	11.214358143559	0.117028224344
0	1054	11.331386367903	0.014621358923
0	1059	11.346007726826	0.072123839435
0	1064	11.418131566261	0.00197524937
0	1068	11.420106815631	0.025622252078
0	1074	11.445729067709	0.020591072774
0	1079	11.466320140483	0.003733663714
0	1083	11.470053804197	0.08832215292
0	1089	11.558375957117	0.025840613658
0	1094	11.584216570775	0.00372959079
0	1098	11.587946161565	0.040853225933
0	1104	11.628799387498	0.018132731998
0	1109	11.646932119496	0.040491160961
0	1114	11.687423280457	0.00836252725
0	1119	11.695785807707	0.011794184582
0	1124	11.707579992289	0.028674271469
0	1129	11.736254263758	0.143017796054
0	1135	11.879272059812	0.011170134884
0	1140	11.890442194696	0.04860829758
0	1145	11.939050492276	0.019039518529
0	1150	11.958090010805	0.061387088743
0	1155	12.019477099548	0.003953730506
0	1159	12.023430830054	0.064082723301
0	1165	12.087513553355	0.048218901248
0	1170	12.135732454603	0.146963246906
0	1176	12.282695701509	0.027228369118
0	1181	12.309924070627	0.018674803832
0	1186	12.328598874459	0.035019165378
0	1191	12.363618039837	0.005886280717
0	1195	12.369504320554	0.014178625738
0	1201	12.383682946292	0.065044824257
0	1206	12.448727770549	0.050118335853
0	1211	12.498846106402	0.018858370258
0	1216	12.51770447666	0.094643950926
0	1221	12.612348427586	0.020178166937
0	1226	12.632526594523	0.011146258285
0	1231	12.643672852808	0.003080282358
0	1235	12.646753135166	0.128900314205
0	1241	12.775653449371	0.010074319387
0	1246	12.785727768758	0.102635192265
0	1251	12.888362961023	0.013119987623
0	1256	12.901482948646	0.011821494511
0	1261	12.913304443157	0.001772084405
0	1265	12.915076527562	0.005129904935
0	1268	12.920206432497	0.049878242018
0	1276	12.970084674515	0.159455674189
0	1281	13.129540348704	0.01269200349
0	1286	13.142232352194	0.003501152906
0	1290	13.1457335051	0.055234165353
0	1296	13.200967670453	0.023338109846
0	1301	13.224305780299	0.048818608325
0	1306	13.273124388624	0.041890594497
0	1311	13.315014983121	0.065101846904
0	1316	13.380116830025	0.130981285343
0	1321	13.511098115368	0.089758495239
0	1327	13.600856610607	0.025953599224
0	1332	13.626810209831	0.006008726287
0	1336	13.632818936118	0.031551266776
0	1342	13.664370202894	0.008365605364
0	1347	13.672735808258	0.008556938265
0	1352	13.681292746523	0.005073841748
0	1356	13.686366588271	0.116114996742
0	1362	13.802481585013	0.005938665136
0	1366	13.808420250149	0.010613446446
0	1372	13.819033696595	0.02968841321
0	1377	13.848722109805	0.056948534539
0	1382	13.905670644344	0.136583196763
0	1387	14.042253841107	0.004011574933
0	1391	14.04626541604	0.091865636808
0	1397	14.138131052848	0.01888035215
0	1402	14.157011404998	0.103377350529
0	1407	14.260388755527	0.067363072756
0	1412	14.327751828283	0.09326484223
0	1417	14.421016670513	0.046325559431
0	1422	14.467342229944	0.008485544739
0	1427	14.475827774683	0.026800341702
0	1432	14.502628116385	0.133563893168
0	1437	14.636192009553	0.000556449857
0	1441	14.63674845941	0.119585179306
0	1447	14.756333638716	0.015755199415
0	1452	14.772088838131	0.022078540702
0	1457	14.794167378833	0.1548723724
0	1462	14.949039751233	0.037869642269
0	1467	14.986909393502	0.061417527177
0	1472	15.048326920679	0.042675697539
0	1477	15.091002618218	0.044147309724
0	1482	15.135149927942	0.009705112761
0	1487	15.144855040703	0.06976340356
0	1492	15.214618444263	0.044709279362
0	1497	15.259327723625	0.079807186941
0	1502	15.339134910566	0.176432969298
0	1508	15.515567879864	0.003704660692
0	1512	15.519272540556	0.291942050693
0	1518	15.811214591249	0.010953585163
0	1523	15.822168176412	0.004953431599
0	1527	15.827121608011	0.196239936492
0	1533	16.023361544503	0.001455906663
0	1537	16.024817451166	0.018870627243
0	1543	16.043688078409	0.013060429222
0	1548	16.056748507631	0.019663467539
0	1553	16.07641197517	0.055400463403
0	1558	16.131812438573	0.000730889962
0	1562	16.132543328535	0.012327822663
0	1567	16.144871151198	0.007076448525
0	1572	16.151947599723	0.084024329181
0	1578	16.235971928904	0.063062891846
0	1583	16.29903482075	0.015579173327
0	1588	16.314613994077	0.07876161157
0	1593	16.393375605647	0.059478759356
0	1598	16.452854365003	0.056621360043
0	1603	16.509475725046	0.069496346855
0	1608	16.578972071901	0.04347019502
0	1613	16.622442266921	0.043115997179
0	1618	16.6655582641	0.047143326379
0	1623	16.712701590479	0.025955629947
0	1628	16.738657220426	0.098962943495
0	1633	16.837620163921	0.06010136206
0	1638	16.897721525981	0.007089545841
0	1642	16.904811071822	0.036754390725
0	1648	16.941565462547	0.002287020337
0	1652	16.943852482884	0.07097110683
0	1658	17.014823589714	0.033057128523
0	1663	17.047880718237	0.153448022359
0	1668	17.201328740596	0.021315286405
0	1673	17.222644027001	0.155376409834
0	1679	17.378020436835	0.052427559597
0	1684	17.430447996432	0.037625634851
0	1689	17.468073631283	0.023518438438
0	1694	17.491592069721	0.001789535292
0	1698	17.493381605013	0.075053705403
0	1704	17.568435310416	0.052470250965
0	1709	17.620905561381	0.062844409115
0	1714	17.683749970496	0.077311477021
0	1719	17.761061447517	0.025778157206
0	1724	17.786839604723	0.105035558047
0	1729	17.89187516277	0.074616158935
0	1734	17.966491321705	0.003918359311
0	1738	17.970409681016	0.334966553492
0	1744	18.305376234508	0.008684364973
0	1749	18.314060599481	0.099970215997
0	1754	18.414030815478	0.039207399026
0	1759	18.453238214504	0.174779878458
0	1764	18.628018092962	0.006505312003
0	1768	18.634523404965	0.021459337489
0	1774	18.655982742454	0.037662403134
0	1779	18.693645145588	0.040059812848
0	1784	18.733704958436	0.038242369524
0	1789	18.77194732796	0.055013536919
0	1794	18.826960864879	0.144282147457
0	1799	18.971243012336	0.066415562253
0	1804	19.037658574589	0.045201246847
0	1809	19.082859821436	0.081947295446
0	1815	19.164807116882	0.030900983044
0	1820	19.195708099926	0.250713807163
0	1825	19.446421907089	0.016006833562
0	1830	19.462428740651	0.004987652807
0	1834	19.467416393458	0.05487500341
0	1840	19.522291396868	0.030022351165
0	1845	19.552313748033	0.08861500064
0	1850	19.640928748673	0.096008894048
0	1855	19.736937642721	0.011194119631
0	1860	19.748131762352	0.156419768258
0	1865	19.90455153061	0.002291454185
0	1869	19.906842984795	0.040726170273
0	1875	19.947569155068	0.053358531673
0	1880	20.000927686741	0.059827725369
0	1885	20.06075541211	0.000592595549
0	1889	20.061348007659	0.005251457071
0	1892	20.06659946473	0.13719496528
0	1900	20.20379443001	0.159565305537
0	1905	20.363359735547	0.050935996584
0	1910	20.414295732131	0.101392343764
0	1915	20.515688075895	0.034009535427
0	1920	20.549697611322	0.146997362183
0	1926	20.696694973505	0.079099584666
0	1931	20.775794558171	0.012754732361
0	1936	20.788549290532	0.164155188542
0	1941	20.952704479074	0.093474849449
0	1946	21.046179328523	0.070235161952
0	1951	21.116414490475	0.002987945577
0	1955	21.119402436052	0.135721386405
0	1961	21.255123822457	0.022028840682
0	1966	21.277152663139	0.098688219182
0	1971	21.375840882321	0.075419694873
0	1976	21.451260577194	0.032079331653
0	1981	21.483339908847	0.066532747007
0	1986	21.549872655854	0.007475826309
0	1990	21.557348482163	0.007994102722
0	1995	21.565342584885	0.0067361734
0	2000	21.572078758285	0.047748206904
0	2006	21.619826965189	0.003594207342
0	2010	21.623421172531	0.068399617233
0	2016	21.691820789764	0.02509237517
0	2021	21.716913164934	0.022178904048
0	2027	21.739092068982	0.168080557633
0	2032	21.907172626615	0.046857370082
0	2037	21.954029996697	0.067981854613
0	2042	22.02201185131	0.049189111938
0	2047	22.071200963248	0.026930165223
0	2052	22.098131128471	0.024492943132
0	2057	22.122624071603	0.208534055558
0	2062	22.331158127161	0.026306610938
0	2067	22.357464738099	0.133080312996
0	2072	22.490545051095	0.075125750418
0	2077	22.565670801513	0.027407233666
0	2082	22.593078035179	0.036486657705
0	2087	22.629564692884	0.023142280712
0	2092	22.652706973596	0.003969580803
0	2096	22.656676554399	0.071227035906
0	2102	22.727903590305	0.007299658521
0	2106	22.735203248826	0.017219491414
0	2112	22.75242274024	0.003577975606
0	2116	22.756000715846	0.113167214784
0	2122	22.86916793063	0.172737166188
0	2127	23.041905096818	0.002476623344
0	2131	23.044381720162	0.091032744262
0	2138	23.135414464424	0.007366798878
0	2142	23.142781263302	0.134984338485
0	2148	23.277765601787	0.038195010552
0	2153	23.315960612339	0.040661761951
0	2158	23.35662237429	0.009869556914
0	2163	23.366491931204	0.085060752694
0	2168	23.451552683898	0.004349817896
0	2172	23.455902501794	0.062579326816
0	2178	23.51848182861	0.026224517895
0	2183	23.544706346505	0.052291530366
0	2188	23.596997876871	0.036096167171
0	2193	23.633094044042	0.02171157396
0	2198	23.654805618002	0.030094595742
0	2203	23.684900213744	0.103233687362
0	2208	23.788133901106	0.118530799924
0	2213	23.90666470103	0.017160688869
0	2218	23.923825389899	0.122868093586
0	2223	24.046693483485	0.159151687411
0	2228	24.205845170896	0.009311166469
0	2233	24.215156337365	0.041299979776
0	2238	24.256456317141	0.009982422374
0	2243	24.266438739515	3.544651e-005
0	2247	24.266474186025	0.047713278079
0	2253	24.314187464104	0.001162793822
0	2257	24.315350257926	0.111970924522
0	2263	24.427321182448	0.069831246103
0	2268	24.497152428551	0.017395271292
0	2273	24.514547699843	0.03814511246
0	2278	24.552692812303	0.254234658071
0	2283	24.806927470374	0.021170321914
0	2288	24.828097792288	0.001204124144
0	2292	24.829301916432	0.022260776565
0	2298	24.851562692997	0.136103154097
0	2304	24.987665847094	4.7028382e-005
0	2308	24.987712875476	0.062817727759
0	2314	25.050530603235	0.241078653911
0	2320	25.291609257146	0.084317052867
0	2326	25.375926310013	0.079527341214
0	2331	25.455453651227	0.028693001296
0	2336	25.484146652523	0.105713046692
0	2341	25.589859699215	0.101604548797
0	2346	25.691464248012	0.004018537675
0	2350	25.695482785687	0.079112778162
0	2356	25.774595563849	0.059391272377
0	2361	25.833986836226	0.040599398951
0	2366	25.874586235177	0.097135331346
0	2371	25.971721566523	0.099170743486
0	2376	26.070892310009	0.148494966138
0	2381	26.219387276147	0.016288959618
0	2386	26.235676235765	0.031028397714
0	2391	26.266704633479	0.036112981
0	2396	26.302817614479	0.039522935203
0	2401	26.342340549682	0.002056521412
0	2405	26.344397071094	0.00416981963
0	2408	26.348566890724	0.102747287623
0	2416	26.451314178347	0.04808685297
0	2421	26.499401031317	0.034266334737
0	2426	26.533667366054	0.011624342213
0	2431	26.545291708267	0.031851801616
0	2436	26.577143509883	0.000827692129
0	2440	26.577971202012	0.00521466362
0	2444	26.583185865632	0.017466378559
0	2452	26.600652244191	0.06968176293
0	2457	26.670334007121	0.043237276147
0	2462	26.713571283268	0.026922958564
0	2467	26.740494241832	0.200080265191
0	2474	26.940574507023	0.018649296625
0	2479	26.959223803648	0.01593300524
0	2484	26.975156808888	0.027698691843
0	2489	27.002855500731	0.040054103816
0	2494	27.042909604547	0.120901596282
0	2499	27.163811200829	0.016817914143
0	2504	27.180629114972	0.267438018252
0	2510	27.448067133224	0.129357423419
0	2515	27.577424556643	0.011379601518
0	2520	27.588804158161	0.019577897398
0	2525	27.608382055559	0.026375967499
0	2530	27.634758023058	0.020955968442
0	2535	27.6557139915	0.013296466134
0	2540	27.669010457634	0.017083626437
0	2545	27.686094084071	0.039490511659
0	2550	27.72558459573	0.004942958203
0	2554	27.730527553933	0.060425034179
0	2560	27.790952588112	0.175431879099
0	2566	27.966384467211	0.010717378925
0	2571	27.977101846136	0.035414411406
0	2576	28.012516257542	0.064514171968
0	2581	28.07703042951	0.032001415342
0	2586	28.109031844852	0.005629129417
0	2590	28.114660974269	0.036183194597
0	2596	28.150844168866	0.015738840502
0	2601	28.166583009368	0.056489013988
0	2606	28.223072023356	0.002539946069
0	2610	28.225611969425	0.178515719923
0	2616	28.404127689348	0.006162732814
0	2620	28.410290422162	0.122416877911
0	2627	28.532707300073	0.019568272885
0	2632	28.552275572958	0.027642038284
0	2637	28.579917611242	0.087214638167
0	2642	28.667132249409	0.170494260472
0	2647	28.837626509881	0.002972686067
0	2651	28.840599195948	0.044539061111
0	2657	28.885138257059	0.000617492625
0	2661	28.885755749684	0.14431007171
0	2667	29.030065821394	0.048359138538
0	2672	29.078424959932	0.043991336843
0	2677	29.122416296775	0.022738928062
0	2682	29.145155224837	0.043441293117
0	2687	29.188596517954	0.075647878264
0	2692	29.264244396218	0.022240741921
0	2697	29.286485138139	0.051743696764
0	2702	29.338228834903	0.048069405702
0	2707	29.386298240605	0.130970935489
0	2713	29.517269176094	0.029104723787
0	2718	29.546373899881	0.013552298625
0	2723	29.559926198506	0.146813535434
0	2729	29.70673973394	0.033922668388
0	2734	29.740662402328	0.010434577132
0	2739	29.75109697946	0.038676022053
0	2744	29.789773001513	0.045885341707
0	2749	29.83565834322	0.030755041592
0	2754	29.866413384812	0.000131255584
0	2758	29.866544640396	0.027456957763
0	2765	29.894001598159	0.056172300396
0	2771	29.950173898555	0.039112384988
0	2776	29.989286283543	0.068789706761
0	2781	30.058075990304	0.052397741502
0	2786	30.110473731806	0.008555961452
0	2791	30.119029693258	0.093304343124
0	2796	30.212334036382	0.122258832807
0	2803	30.334592869189	0.012518975189
0	2808	30.347111844378	0.052077685127
0	2813	30.399189529505	0.012330776739
0	2818	30.411520306244	0.11194833037
0	2823	30.523468636614	0.026502911057
0	2828	30.549971547671	0.00258164173
0	2832	30.552553189401	0.038348820624
0	2838	30.590902010025	0.120275939686
0	2843	30.711177949711	0.016739359868
0	2848	30.727917309579	0.055571544543
0	2853	30.783488854122	0.176973772085
0	2858	30.960462626207	0.288570163151
0	2863	31.249032789358	0.020646617821
0	2868	31.269679407179	0.030002856347
0	2873	31.299682263526	0.055922770394
0	2878	31.35560503392	0.131882070754
0	2884	31.487487104674	0.146277675619
0	2889	31.633764780293	4.6582338e-005
0	2893	31.633811362631	0.022353088947
0	2899	31.656164451578	0.025427336883
0	2904	31.681591788461	0.118889357026
0	2909	31.800481145487	0.002755878724
0	2913	31.803237024211	0.030571428739
0	2919	31.83380845295	0.013995489211
0	2924	31.847803942161	0.101099225764
0	2929	31.948903167925	0.081508268619
0	2934	32.030411436544	0.104353459566
0	2939	32.13476489611	0.105913809444
0	2944	32.240678705554	0.033345669716
0	2949	32.27402437527	0.020630533115
0	2954	32.294654908385	0.051891309154
0	2959	32.346546217539	0.028548105589
0	2964	32.375094323128	0.011401491361
0	2969	32.386495814489	0.04464424629
0	2974	32.431140060779	0.017156436372
0	2979	32.448296497151	0.035072084501
0	2984	32.483368581652	0.032938892825
0	2989	32.516307474477	0.112070394821
0	2994	32.628377869298	0.064117890467
0	2999	32.692495759765	0.097007371902
0	3004	32.789503131667	0.082230860134
0	3009	32.871733991801	0.004910676393
0	3013	32.876644668194	0.018920201012
0	3019	32.895564869206	0.075261053951
0	3024	32.970825923157	0.008471310487
0	3029	32.979297233644	0.114532372337
0	3034	33.093829605981	0.041337478747
0	3039	33.135167084728	0.015887600549
0	3044	33.151054685277	0.087665712419
0	3049	33.238720397696	0.005748646287
0	3053	33.244469043983	0.06637019386
0	3059	33.310839237843	0.007609148691
0	3063	33.318448386534	0.012208144441
0	3069	33.330656530975	0.060679630881
0	3074	33.391336161856	4.9047355e-005
0	3078	33.391385209211	0.004071593191
0	3081	33.395456802402	0.02696737997
0	3089	33.422424182372	0.035434197083
0	3094	33.457858379455	0.010607933934
0	3099	33.468466313389	0.080559313884
0	3104	33.549025627273	0.05258595493
0	3109	33.601611582203	0.062436884101
0	3114	33.664048466304	0.261696229481
0	3119	33.925744695785	0.015433186852
0	3124	33.941177882637	0.042123662925
0	3129	33.983301545562	0.009179203539
0	3134	33.992480749101	0.009293888258
0	3139	34.001774637359	0.068354248546
0	3144	34.070128885905	0.008272380223
0	3149	34.078401266128	0.025799636781
0	3154	34.104200902909	0.000846485105
0	3158	34.105047388014	0.051957570623
0	3164	34.157004958637	0.006649810117
0	3168	34.163654768754	0.015450784341
0	3174	34.179105553095	0.056064822604
0	3179	34.235170375699	0.111963931704
0	3184	34.347134307403	0.036716982579
0	3189	34.383851289982	0.028406074302
0	3194	34.412257364284	0.061539235127
0	3199	34.473796599411	0.003862321811
0	3203	34.477658921222	0.192506185609
0	3209	34.670165106831	0.011690451402
0	3214	34.681855558233	0.045912209403
0	3219	34.727767767636	0.053831986696
0	3224	34.781599754332	0.001598442822
0	3228	34.783198197154	0.018415620954
0	3234	34.801613818108	0.005993158188
0	3238	34.807606976296	0.04681726499
0	3244	34.854424241286	0.159826315356
0	3249	35.014250556642	0.011160766412
0	3254	35.025411323054	0.083671354463
0	3259	35.109082677517	0.089445138239
0	3264	35.198527815756	0.001660809651
0	3268	35.200188625407	0.055438357901
0	3274	35.255626983308	0.000307022356
0	3278	35.255934005664	0.023113645675
0	3284	35.279047651339	0.005344080403
0	3288	35.284391731742	0.077400051173
0	3294	35.361791782915	0.01078378768
0	3299	35.372575570595	0.007510811248
0	3303	35.380086381843	0.030894117158
0	3309	35.410980499001	0.015979082396
0	3314	35.426959581397	0.062098815596
0	3319	35.489058396993	0.056150629062
0	3324	35.545209026055	0.113409686673
0	3329	35.658618712728	0.011427123133
0	3334	35.670045835861	0.039469572946
0	3339	35.709515408807	0.011869365615
0	3344	35.721384774422	0.118138013005
0	3349	35.839522787427	0.015427687181
0	3354	35.854950474608	0.049266572191
0	3359	35.904217046799	0.038820929769
0	3364	35.943037976568	0.094702827917
0	3369	36.037740804485	0.030501623045
0	3374	36.06824242753	0.088372122485
0	3379	36.156614550015	0.235040639293
0	3384	36.391655189308	0.157608615511
0	3389	36.549263804819	0.067811976679
0	3394	36.617075781498	0.116797662008
0	3399	36.733873443506	0.04263735837
0	3404	36.776510801876	0.107105582008
0	3410	36.883616383884	0.003167711063
0	3414	36.886784094947	0.052344072299
0	3420	36.939128167246	0.006538015101
0	3424	36.945666182347	0.104647542151
0	3430	37.050313724498	0.071832881451
0	3435	37.122146605949	0.047653384036
0	3440	37.169799989985	0.01165073354
0	3445	37.181450723525	0.003684426676
0	3449	37.185135150201	0.07964797166
0	3455	37.264783121861	0.028073232014
0	3460	37.292856353875	0.270095266383
0	3465	37.562951620258	0.008514786653
0	3470	37.571466406911	0.021802077888
0	3475	37.593268484799	0.004358210143
0	3479	37.597626694942	0.070007640205
0	3485	37.667634335147	0.129315472608
0	3490	37.796949807755	0.021936418711
0	3495	37.818886226466	0.031438187674
0	3500	37.85032441414	0.272933282966
0	3505	38.123257697106	0.02373290012
0	3510	38.146990597226	0.011051775651
0	3515	38.158042372877	0.014627163653
0	3520	38.17266953653	0.052314047434
0	3525	38.224983583964	0.053784137331
0	3530	38.278767721295	0.006257857306
0	3534	38.285025578601	0.06460783845
0	3540	38.349633417051	0.026590006551
0	3545	38.376223423602	0.001914261716
0	3549	38.378137685318	0.107656385297
0	3555	38.485794070615	0.133407040898
0	3560	38.619201111513	0.049550235865
0	3566	38.668751347378	0.034914917904
0	3571	38.703666265282	0.025079374004
0	3576	38.728745639286	0.028275935585
0	3581	38.757021574871	0.051601756462
0	3586	38.808623331333	0.042098390798
0	3591	38.850721722131	0.063676166792
0	3596	38.914397888923	0.057535551077
0	3601	38.97193344	0.091785239446
0	3607	39.063718679446	0.061287637214
0	3612	39.12500631666	0.04900124529
0	3617	39.17400756195	0.010040861034
0	3622	39.184048422984	0.006435813744
0	3626	39.190484236728	0.032782366763
0	3632	39.223266603491	0.057312656456
0	3637	39.280579259947	0.009789010885
0	3642	39.290368270832	0.031601266864
0	3647	39.321969537696	0.043634678297
0	3652	39.365604215993	0.038573893322
0	3657	39.404178109315	0.010015210311
0	3662	39.414193319626	0.007956806249
0	3667	39.422150125875	0.100226234021
0	3672	39.522376359896	0.04966518398
0	3677	39.572041543876	0.011889561363
0	3682	39.583931105239	0.02242912956
0	3687	39.606360234799	0.142618352343
0	3692	39.748978587142	0.000136351967
0	3696	39.749114939109	0.022564255292
0	3702	39.771679194401	0.054982652831
0	3707	39.826661847232	0.061328376035
0	3712	39.887990223267	0.005782508807
0	3716	39.893772732074	0.029762236343
0	3722	39.923534968417	0.011273871679
0	3727	39.934808840096	0.026921032976
0	3732	39.961729873072	0.066780984856
0	3737	40.028510857928	0.029241335808
0	3742	40.057752193736	0.019067711248
0	3747	40.076819904984	0.022618749536
0	3752	40.09943865452	0.033231557509
0	3757	40.132670212029	0.058200887045
0	3762	40.190871099074	0.017527786388
0	3767	40.208398885462	0.036764157158
0	3772	40.24516304262	0.005686114348
0	3776	40.250849156968	0.13305132374
0	3782	40.383900480708	0.028446265628
0	3787	40.412346746336	0.068884773537
0	3792	40.481231519873	0.035629905998
0	3797	40.516861425871	0.007723772724
0	3801	40.524585198595	0.019425907765
0	3807	40.54401110636	0.003391695962
0	3811	40.547402802322	0.043016446397
0	3817	40.590419248719	0.004512062131
0	3821	40.59493131085	0.068996391307
0	3827	40.663927702157	0.019029284749
0	3832	40.682956986906	0.074010102722
0	3838	40.756967089628	0.070749773909
0	3843	40.827716863537	0.034817613761
0	3848	40.862534477298	0.029510964268
0	3853	40.892045441566	0.018870193595
0	3858	40.910915635161	0.086158888663
0	3863	40.997074523824	0.0242724296
0	3868	41.021346953424	0.029248522286
0	3873	41.05059547571	0.143069542172
0	3878	41.193665017882	0.020326262878
0	3883	41.21399128076	0.032950547157
0	3888	41.246941827917	0.052939639193
0	3893	41.29988146711	0.025240658768
0	3898	41.325122125878	0.001908934324
0	3902	41.327031060202	0.145620356876
0	3908	41.472651417078	0.03796487274
0	3913	41.510616289818	0.015865275815
0	3918	41.526481565633	0.067790238351
0	3923	41.594271803984	0.041922028099
0	3928	41.636193832083	0.013456344708
0	3933	41.649650176791	0.046762055627
0	3938	41.696412232418	0.069462033303
0	3945	41.765874265721	0.017232591246
0	3950	41.783106856967	0.011398383912
0	3955	41.794505240879	0.022855546939
0	3960	41.817360787818	0.023697969918
0	3965	41.841058757736	0.02231539423
0	3970	41.863374151966	0.007806403455
0	3975	41.871180555421	0.02488191295
0	3980	41.896062468371	0.030532788308
0	3985	41.926595256679	0.010595286673
0	3990	41.937190543352	0.026219948721
0	3995	41.963410492073	0.090190627194
0	4001	42.053601119267	0.05268093163
0	4006	42.106282050897	0.054800266566
0	4011	42.161082317463	0.138190244143
0	4016	42.299272561606	0.086648645325
0	4021	42.385921206931	0.026085567069
0	4026	42.412006774	0.018911727005
0	4031	42.430918501005	0.025660976138
0	4036	42.456579477143	0.124367580625
0	4041	42.580947057768	0.103207191155
0	4046	42.684154248923	0.040189581303
0	4051	42.724343830226	0.000966526501
0	4055	42.725310356727	0.117998055518
0	4061	42.843308412245	0.098086666792
0	4066	42.941395079037	0.169858422282
0	4071	43.111253501319	0.08361736301
0	4076	43.194870864329	0.042767485159
0	4081	43.237638349488	0.018618772814
0	4086	43.256257122302	0.007797709563
0	4091	43.264054831865	0.045767035677
0	4096	43.309821867542	0.012914217118
0	4101	43.32273608466	0.020069489771
0	4106	43.342805574431	0.021180899807
0	4111	43.363986474238	0.003047733673
0	4115	43.367034207911	0.163052082018
0	4121	43.530086289929	0.044454923166
0	4126	43.574541213095	0.075404590606
0	4131	43.649945803701	0.049361196882
0	4136	43.699307000583	0.014855040795
0	4141	43.714162041378	0.010303696409
0	4146	43.724465737787	0.037530484977
0	4151	43.761996222764	0.014941803862
0	4156	43.776938026626	0.090080398829
0	4161	43.867018425455	0.006790824528
0	4165	43.873809249983	0.017643422496
0	4171	43.891452672479	0.022481155586
0	4176	43.913933828065	0.107857638306
0	4181	44.021791466371	0.038759803585
0	4186	44.060551269956	0.006466573085
0	4190	44.067017843041	0.104024762555
0	4196	44.171042605596	0.003641203589
0	4200	44.174683809185	0.05015549013
0	4206	44.224839299315	0.080913759594
0	4211	44.305753058909	0.059298421017
0	4216	44.365051479926	0.112582785894
0	4221	44.47763426582	0.022150631786
0	4226	44.499784897606	0.032062848531
0	4231	44.531847746137	0.054458785097
0	4236	44.586306531234	0.04189616111
0	4242	44.628202692344	0.079970721166
0	4247	44.70817341351	0.143818887424
0	4252	44.851992300934	0.025164629022
0	4257	44.877156929956	0.00590370632
0	4261	44.883060636276	0.061557866792
0	4267	44.944618503068	0.021038756658
0	4272	44.965657259726	0.007888433649
0	4277	44.973545693375	0.001225713261
0	4281	44.974771406636	0.04689997124
0	4287	45.021671377876	0.025054558786
0	4292	45.046725936662	0.028756703341
0	4297	45.075482640003	0.016503119945
0	4302	45.091985759948	0.030836426393
0	4307	45.122822186341	0.01377794252
0	4312	45.136600128861	0.081092375028
0	4317	45.217692503889	0.010477034676
0	4322	45.228169538565	0.003663516428
0	4326	45.231833054993	0.01003936176
0	4331	45.241872416753	0.02132442034
0	4338	45.263196837093	0.01724996396
0	4343	45.280446801053	0.024527316332
0	4348	45.304974117385	0.076704024896
0	4353	45.381678142281	0.004658181563
0	4357	45.386336323844	0.038290794235
0	4363	45.424627118079	0.069986149194
0	4368	45.494613267273	0.219872525938
0	4373	45.714485793211	0.037540101143
0	4378	45.752025894354	0.029381370929
0	4383	45.781407265283	0.058867342142
0	4388	45.840274607425	0.093632634629
0	4393	45.933907242054	0.00151841214
0	4397	45.935425654194	0.003122957736
0	4400	45.93854861193	0.013187760233
0	4407	45.951736372163	0.014774843237
0	4413	45.9665112154	0.018050980223
0	4418	45.984562195623	0.024102648558
0	4423	46.008664844181	2.1668026e-005
0	4427	46.008686512207	0.022242472298
0	4433	46.030928984505	0.094606017035
0	4438	46.12553500154	0.014644325702
0	4443	46.140179327242	0.006412619249
0	4447	46.146591946491	0.241317684682
0	4453	46.387909631173	0.022006821746
0	4458	46.409916452919	0.000142046036
0	4462	46.410058498955	0.033529479464
0	4468	46.443587978419	0.05649489905
0	4473	46.500082877469	0.024243032237
0	4478	46.524325909706	0.170868484565
0	4483	46.695194394271	0.006048688222
0	4487	46.701243082493	0.11811164179
0	4493	46.819354724283	0.062866713252
0	4498	46.882221437535	0.028379090428
0	4504	46.910600527963	0.020129252724
0	4509	46.930729780687	0.102067156027
0	4514	47.032796936714	0.102106677794
0	4519	47.134903614508	0.051232047892
0	4524	47.1861356624	0.0042637303
0	4528	47.1903993927	0.025155818091
0	4534	47.215555210791	0.148940119206
0	4539	47.364495329997	0.077004433899
0	4544	47.441499763896	0.00911618808
0	4549	47.450615951976	0.026462220657
0	4554	47.477078172633	0.003713883098
0	4558	47.480792055731	0.094888855565
0	4564	47.575680911296	0.0086416988
0	4569	47.584322610096	0.055146164107
0	4574	47.639468774203	0.090579822375
0	4579	47.730048596578	0.122769655349
0	4584	47.852818251927	0.091131320215
0	4589	47.943949572142	0.083753391186
0	4594	48.027702963328	0.002120378613
0	4598	48.029823341941	0.003283915305
0	4601	48.033107257246	0.001228947625
0	4604	48.034336204871	0.005458661506
0	4609	48.039794866377	0.172825835315
0	4619	48.212620701692	0.032210415014
0	4624	48.244831116706	0.009196803147
0	4629	48.254027919853	0.13992728053
0	4635	48.393955200383	0.022460460025
0	4640	48.416415660408	0.033106249919
0	4645	48.449521910327	0.05890678749
0	4650	48.508428697817	0.018824511294
0	4655	48.527253209111	0.047188713298
0	4660	48.574441922409	0.018432889099
0	4665	48.592874811508	0.106088497719
0	4670	48.698963309227	0.029489213445
0	4675	48.728452522672	0.004370521743
0	4679	48.732823044415	0.019536983069
0	4685	48.752360027484	0.002088958105
0	4689	48.754448985589	0.05856796545
0	4695	48.813016951039	0.180177003788
0	4700	48.993193954827	0.045404410739
0	4705	49.038598365566	0.000252041113
0	4709	49.038850406679	0.021073774652
0	4715	49.059924181331	0.010169471501
0	4720	49.070093652832	0.06554304917
0	4725	49.135636702002	0.025794519945
0	4730	49.161431221947	0.010046427026
0	4735	49.171477648973	0.014538243733
0	4740	49.186015892706	0.001039115665
0	4744	49.187055008371	0.006976994722
0	4749	49.194032003093	0.001790615621
0	4752	49.195822618714	0.062858722604
0	4760	49.258681341318	0.003189320631
0	4764	49.261870661949	0.049022443384
0	4770	49.310893105333	0.002630454961
0	4774	49.313523560294	0.023841187822
0	4780	49.337364748116	0.089599518957
0	4785	49.426964267073	0.043651337681
0	4790	49.470615604754	0.074174928556
0	4795	49.54479053331	0.027083948184
0	4800	49.571874481494	0.010645006628
0	4805	49.582519488122	0.028653014449
0	4810	49.611172502571	0.016564824197
0	4815	49.627737326768	0.016578187654
0	4820	49.644315514422	0.070591165533
0	4825	49.714906679955	0.012842407663
0	4830	49.727749087618	0.056474704922
0	4835	49.78422379254	0.044495760867
0	4840	49.828719553407	0.053421490967
0	4845	49.882141044374	0.009914469994
0	4850	49.892055514368	0.018720801144
0	4855	49.910776315512	0.003477418037
0	4859	49.914253733549	0.014407761552
0	4865	49.928661495101	0.010100691395
0	4870	49.938762186496	0.046341835889
0	4875	49.985104022385	0.056159615547
0	4880	50.041263637932	0.031861394021
0	4885	50.073125031953	0.019376596583
0	4890	50.092501628536	0.003438972691
0	4894	50.095940601227	0.012418537105
0	4900	50.108359138332	0.074868443669
0	4905	50.183227582001	0.035858674737
0	4910	50.219086256738	0.010181231758
0	4915	50.229267488496	0.059113812146
0	4920	50.288381300642	0.1533423657
0	4925	50.441723666342	0.015368132258
0	4930	50.4570917986	0.033877965974
0	4935	50.490969764574	0.068518864338
0	4940	50.559488628912	0.066874744552
0	4945	50.626363373464	0.03247229147
0	4950	50.658835664934	0.061363217557
0	4955	50.720198882491	0.090298532039
0	4960	50.81049741453	0.058149417708
0	4965	50.868646832238	0.042868414326
0	4970	50.911515246564	0.029164927067
0	4975	50.940680173631	0.012728393882
0	4980	50.953408567513	0.072320855132
0	4985	51.025729422645	0.047485531213
0	4990	51.073214953858	0.091531562987
0	4995	51.164746516845	0.09757552069
0	5000	51.262322037535	0.024178498649
0	5005	51.286500536184	0.028197974772
0	5010	51.314698510956	0.016910633324
0	5015	51.33160914428	0.052086901105
0	5020	51.383696045385	0.003605508941
0	5024	51.387301554326	0.001617052221
0	5027	51.388918606547	0.067637644698
0	5035	51.456556251245	0.035912060213
0	5040	51.492468311458	0.030271039654
0	5046	51.522739351112	0.088536860709
0	5051	51.611276211821	0.018761561531
0	5056	51.630037773352	0.05868820982
0	5061	51.688725983172	0.089131137692
0	5066	51.777857120864	0.013698371649
0	5071	51.791555492513	0.032340691511
0	5076	51.823896184024	0.038123127081
0	5081	51.862019311105	0.035906830323
0	5086	51.897926141428	0.025003773007
0	5091	51.922929914435	0.069403297263
0	5096	51.992333211698	0.045927266485
0	5102	52.038260478183	0.031800436266
0	5107	52.070060914449	0.041809522967
0	5112	52.111870437416	0.082232290758
0	5117	52.194102728174	0.135962601173
0	5122	52.330065329347	0.060865499216
0	5127	52.390930828563	0.146877002148
0	5132	52.537807830711	0.043864933308
0	5137	52.581672764019	0.067872381865
0	5142	52.649545145884	0.093469543287
0	5148	52.743014689171	0.125097934299
0	5153	52.86811262347	0.025608967478
0	5158	52.893721590948	0.022543155296
0	5163	52.916264746244	0.012675667427
0	5168	52.928940413671	0.007569406614
0	5172	52.936509820285	0.052344788278
0	5178	52.988854608563	0.093263995493
0	5183	53.082118604056	0.14593564593
0	5188	53.228054249986	0.015325295284
0	5193	53.24337954527	0.028373559485
0	5198	53.271753104755	0.075823972773
0	5203	53.347577077528	0.008493144127
0	5208	53.356070221655	0.000350258447
0	5212	53.356420480102	0.092225138782
0	5218	53.448645618884	0.011645787637
0	5223	53.460291406521	0.04327807656
0	5228	53.503569483081	0.0511207637
0	5233	53.554690246781	0.079751320062
0	5238	53.634441566843	0.086063644273
0	5243	53.720505211116	0.131795103697
0	5248	53.852300314813	0.044013782853
0	5253	53.896314097666	0.14057115908
0	5259	54.036885256746	0.0057252196
0	5263	54.042610476346	0.006816599359
0	5268	54.049427075705	0.026780200799
0	5274	54.076207276504	0.287167083827
0	5279	54.363374360331	0.025172722696
0	5284	54.388547083027	0.133859682943
0	5289	54.52240676597	0.187475897474
0	5294	54.709882663444	0.040074407548
0	5299	54.749957070992	0.00188486389
0	5303	54.751841934882	0.040525592667
0	5309	54.792367527549	0.022425416867
0	5314	54.814792944416	0.001143807232
0	5318	54.815936751648	0.028240679057
0	5324	54.844177430705	0.072385225479
0	5329	54.916562656184	0.042581999196
0	5334	54.95914465538	0.053588887582
0	5339	55.012733542962	0.034704737125
0	5345	55.047438280087	0.027513035397
0	5350	55.074951315484	0.003349888453
0	5354	55.078301203937	0.068230834372
0	5360	55.146532038309	0.018768879847
0	5365	55.165300918156	0.023120327305
0	5370	55.188421245461	0.003436304294
0	5374	55.191857549755	0.014610761746
0	5380	55.206468311501	0.04701651252
0	5385	55.253484824021	0.108102091671
0	5390	55.361586915692	0.051688783352
0	5395	55.413275699044	0.033722583054
0	5400	55.446998282098	0.065496125248
0	5405	55.512494407346	0.027869076056
0	5411	55.540363483402	0.092053145559
0	5416	55.632416628961	0.120701455692
0	5421	55.753118084653	0.105042883834
0	5426	55.858160968487	0.04645129792
0	5431	55.904612266407	0.108199775818
0	5436	56.012812042225	0.028666126312
0	5441	56.041478168537	0.158295312845
0	5446	56.199773481382	0.052218588735
0	5451	56.251992070117	0.086297438821
0	5456	56.338289508938	0.015275051328
0	5461	56.353564560266	0.024020798509
0	5466	56.377585358775	0.070358248187
0	5471	56.447943606962	0.091221939117
0	5476	56.539165546079	0.003521828418
0	5480	56.542687374497	0.001906578645
0	5483	56.544593953142	0.001886916278
0	5486	56.54648086942	0.021118245962
0	5495	56.567599115382	0.007611737523
0	5500	56.575210852905	0.028702255215
0	5506	56.60391310812	0.168054149442
0	5511	56.771967257562	0.002318642881
0	5515	56.774285900443	0.084781202592
0	5522	56.859067103035	0.001933481373
0	5526	56.861000584408	0.013484297727
0	5531	56.874484882135	0.097935548121
0	5537	56.972420430256	0.043310659161
0	5542	57.015731089417	0.025704264628
0	5547	57.041435354045	0.10690079619
0	5552	57.148336150235	0.037423287463
0	5557	57.185759437698	0.016046833008
0	5562	57.201806270706	0.077234256218
0	5567	57.279040526924	0.041820865847
0	5573	57.320861392771	0.126693767074
0	5578	57.447555159845	0.046680061663
0	5583	57.494235221508	0.041499821932
0	5588	57.53573504344	0.002159449949
0	5592	57.537894493389	0.055692142825
0	5598	57.593586636214	0.084472141705
0	5603	57.678058777919	0.132322919405
0	5608	57.810381697324	0.018128487163
0	5613	57.828510184487	0.036711492932
0	5618	57.865221677419	0.00116645551
0	5622	57.866388132929	0.220568355208
0	5629	58.086956488137	0.004380993334
0	5633	58.091337481471	0.003172673154
0	5636	58.094510154625	0.005655606175
0	5641	58.1001657608	0.113236384719
0	5649	58.213402145519	0.09225168595
0	5654	58.305653831469	0.019189585599
0	5659	58.324843417068	0.022409031167
0	5664	58.347252448235	0.006724271145
0	5668	58.35397671938	0.027586352583
0	5674	58.381563071963	0.125239704737
0	5679	58.5068027767	0.009408222022
0	5684	58.516210998722	0.000582053704
0	5688	58.516793052426	0.035456584319
0	5694	58.552249636745	0.055961138731
0	5699	58.608210775476	0.014029442158
0	5704	58.622240217634	0.024929760621
0	5709	58.647169978255	0.002133803583
0	5713	58.649303781838	0.020651705253
0	5719	58.669955487091	0.013304248409
0	5724	58.6832597355	0.013017906678
0	5729	58.696277642178	0.023391034897
0	5734	58.719668677075	0.066634811068
0	5739	58.786303488143	0.039067145577
0	5744	58.82537063372	0.032345158273
0	5749	58.857715791993	0.061496403709
0	5754	58.919212195702	0.006722920482
0	5758	58.925935116184	0.07542677368
0	5764	59.001361889864	0.042311847012
0	5769	59.043673736876	0.042913577095
0	5775	59.086587313971	0.028108706819
0	5780	59.11469602079	0.042462010697
0	5785	59.157158031487	0.067792098982
0	5790	59.224950130469	0.027579135609
0	5795	59.252529266078	0.007724233624
0	5799	59.260253499702	0.00778217204
0	5804	59.268035671742	0.074992002647
0	5810	59.343027674389	0.129930556238
0	5815	59.472958230627	0.069397798523
0	5820	59.54235602915	0.057267513063
0	5825	59.599623542213	0.054505778913
0	5830	59.654129321126	0.018449664246
0	5835	59.672578985372	0.022910942965
0	5840	59.695489928337	0.163663014828
0	5845	59.859152943165	0.004511906437
0	5849	59.863664849602	0.161762135098
0	5855	60.0254269847	0.023010741883
0	5860	60.048437726583	0.039486727651
0	5865	60.087924454234	0.005022582146
0	5869	60.09294703638	0.006209935886
0	5874	60.099156972266	0.07990359065
0	5880	60.179060562916	0.209727165917
0	5885	60.388787728833	0.000877955542
0	5889	60.389665684375	0.01014242404
0	5894	60.399808108415	0.121325920844
0	5900	60.521134029259	0.181567550244
0	5905	60.702701579503	0.019547347308
0	5911	60.722248926811	0.061551307193
0	5916	60.783800234004	0.043458033581
0	5921	60.827258267585	0.09421806329
0	5926	60.921476330875	0.058453039891
0	5931	60.979929370766	0.003992133223
0	5935	60.983921503989	0.011042298603
0	5941	60.994963802592	0.074483561199
0	5947	61.069447363791	0.030811496659
0	5952	61.10025886045	0.011219763307
0	5957	61.111478623757	0.040825965532
0	5962	61.152304589289	0.07156310438
0	5967	61.223867693669	0.052516211856
0	5972	61.276383905525	0.024881175648
0	5977	61.301265081173	0.088440915966
0	5982	61.389705997139	0.019668605177
0	5987	61.409374602316	0.024477251022
0	5992	61.433851853338	0.027426544711
0	5997	61.461278398049	0.014842924131
0	6002	61.47612132218	0.006699892367
0	6006	61.482821214547	0.034283285125
0	6012	61.517104499672	0.008138432092
0	6017	61.525242931764	0.003792694339
0	6021	61.529035626103	0.065084873512
0	6029	61.594120499615	0.02287504688
0	6034	61.616995546495	0.071288650823
0	6039	61.688284197318	0.0476849104
0	6045	61.735969107718	0.032826278062
0	6050	61.76879538578	0.085819496246
0	6055	61.854614882026	0.087555853199
0	6060	61.942170735225	0.036442936529
0	6065	61.978613671754	0.01390959619
0	6070	61.992523267944	0.081103595588
0	6075	62.073626863532	0.00587961103
0	6079	62.079506474562	0.019865416489
0	6085	62.099371891051	0.049073384265
0	6090	62.148445275316	0.036824673234
0	6095	62.18526994855	0.00958819982
0	6100	62.19485814837	0.017711460756
0	6105	62.212569609126	0.017180056145
0	6110	62.229749665271	0.020376193079
0	6115	62.25012585835	0.006807629229
0	6119	62.256933487579	0.001627987851
0	6124	62.25856147543	0.034834231936
0	6130	62.293395707366	0.008162709573
0	6135	62.301558416939	0.01795084434
0	6140	62.319509261279	0.061717629151
0	6145	62.38122689043	0.038546651843
0	6150	62.419773542273	0.022839610157
0	6155	62.44261315243	0.022351151916
0	6160	62.464964304346	0.061725032845
0	6165	62.526689337191	0.057603755854
0	6170	62.584293093045	0.005869393014
0	6174	62.590162486059	0.010380967421
0	6180	62.60054345348	0.017508989393
0	6185	62.618052442873	0.175998161355
0	6190	62.794050604228	0.184464389322
0	6195	62.97851499355	0.013718803355
0	6200	62.992233796905	0.000258071341
0	6204	62.992491868246	0.013621747489
0	6209	63.006113615735	0.002848328571
0	6214	63.008961944306	0.026301798132
0	6220	63.035263742438	0.026649829646
0	6225	63.061913572084	0.028418795995
0	6230	63.090332368079	0.146976741387
0	6235	63.237309109466	0.004643283271
0	6239	63.241952392737	0.087573822542
0	6246	63.329526215279	0.235011059638
0	6251	63.564537274917	0.030474700147
0	6256	63.595011975064	0.181169381248
0	6261	63.776181356312	0.022472887052
0	6266	63.798654243364	0.151179444512
0	6271	63.949833687876	0.21681289452
0	6276	64.166646582396	0.054204519205
0	6281	64.220851101601	0.040495932174
0	6286	64.261347033775	0.032869785524
0	6291	64.294216819299	0.054521116385
0	6297	64.348737935684	0.092987324712
0	6302	64.441725260396	0.026964693757
0	6307	64.468689954153	0.001423736067
0	6311	64.47011369022	0.006835485493
0	6316	64.476949175713	0.023703952495
0	6322	64.500653128208	0.244368091817
0	6327	64.745021220025	0.017344500782
0	6332	64.762365720807	0.003493545672
0	6336	64.765859266479	0.038056375614
0	6342	64.803915642093	0.005549111023
0	6346	64.809464753116	0.011136601344
0	6352	64.82060135446	0.096528243678
0	6357	64.917129598138	0.04090178003
0	6362	64.958031378168	0.007041906824
0	6366	64.965073284992	0.122056513176
0	6372	65.087129798168	0.025274029882
0	6377	65.11240382805	0.041254937846
0	6382	65.153658765896	0.01791873297
0	6387	65.171577498866	0.110656253804
0	6392	65.28223375267	0.025686570081
0	6397	65.307920322751	0.040779332872
0	6402	65.348699655623	0.067132195948
0	6407	65.415831851571	0.068538351358
0	6412	65.484370202929	0.121050802996
0	6417	65.605421005925	0.085412894683
0	6422	65.690833900608	0.006426232209
0	6426	65.697260132817	0.034218859031
0	6432	65.731478991848	0.156257161058
0	6437	65.887736152906	0.216425416474
0	6442	66.10416156938	0.023497635422
0	6447	66.127659204802	0.046495519472
0	6453	66.174154724274	0.04016701208
0	6458	66.214321736354	0.018794144343
0	6463	66.233115880697	0.225585931282
0	6468	66.458701811979	0.077390288733
0	6473	66.536092100712	0.008679872624
0	6478	66.544771973336	0.019859763936
0	6483	66.564631737272	0.022322222633
0	6488	66.586953959905	0.11634795922
0	6493	66.703301919125	0.329845612689
0	6499	67.033147531814	0.039836485619
0	6504	67.072984017433	0.02309297901
0	6509	67.096076996443	0.000129674035
0	6513	67.096206670478	0.030053462129
0	6519	67.126260132607	0.160064795487
0	6525	67.286324928094	0.020305182726
0	6530	67.30663011082	0.104365564267
0	6535	67.410995675087	0.026356562336
0	6540	67.437352237423	0.023292920305
0	6545	67.460645157728	0.020029821517
0	6550	67.480674979245	0.040339205324
0	6555	67.521014184569	0.003637533483
0	6559	67.524651718052	0.002131077764
0	6562	67.526782795816	0.050946927651
0	6570	67.577729723467	0.037816413392
0	6575	67.615546136859	0.056841268831
0	6580	67.67238740569	0.022410306762
0	6585	67.694797712452	0.000871445887
0	6589	67.695669158339	0.038442235735
0	6595	67.734111394074	0.000171579519
0	6599	67.734282973593	0.048647777062
0	6605	67.782930750655	0.001018998328
0	6609	67.783949748983	0.021459091064
0	6615	67.805408840047	0.007570625821
0	6619	67.812979465868	0.145825981178
0	6625	67.958805447046	0.074600317134
0	6630	68.03340576418	0.053103806168
0	6635	68.086509570348	0.017266257524
0	6640	68.103775827872	0.012246457744
0	6645	68.116022285616	0.105058345064
0	6650	68.22108063068	0.018101552396
0	6655	68.239182183076	0.006797851924
0	6659	68.245980035	0.046058054455
0	6665	68.292038089455	0.002675513156
0	6669	68.294713602611	0.028935697427
0	6676	68.323649300038	0.013313823975
0	6681	68.336963124013	0.034402189374
0	6686	68.371365313387	0.026270415417
0	6691	68.397635728804	0.171916863547
0	6696	68.569552592351	0.107763121858
0	6701	68.677315714209	0.067276341368
0	6706	68.744592055577	0.045982257869
0	6711	68.790574313446	0.018749975072
0	6716	68.809324288518	0.008310254112
0	6721	68.81763454263	0.066027978263
0	6726	68.883662520893	0.028595478892
0	6731	68.912257999785	0.100940437177
0	6736	69.013198436962	0.017332009785
0	6741	69.030530446747	0.126915331595
0	6746	69.157445778342	0.021647252208
0	6751	69.17909303055	0.005652558158
0	6755	69.184745588708	0.232210640257
0	6761	69.416956228965	0.07433437495
0	6766	69.491290603915	0.011506712068
0	6771	69.502797315983	0.029402863472
0	6776	69.532200179455	0.069001282488
0	6781	69.601201461943	0.005233626096
0	6785	69.606435088039	0.110700056064
0	6791	69.717135144103	0.001308857974
0	6795	69.718444002077	0.043945137789
0	6801	69.762389139866	0.027696267558
0	6807	69.790085407424	0.008545933212
0	6812	69.798631340636	0.000811447759
0	6816	69.799442788395	0.055336336869
0	6822	69.854779125264	0.033734023527
0	6828	69.888513148791	0.164172840947
0	6834	70.052685989738	0.069954249204
0	6839	70.122640238942	0.04574128615
0	6844	70.168381525092	0.070630314695
0	6849	70.239011839787	0.033113825587
0	6854	70.272125665374	0.03370673776
0	6859	70.305832403134	0.046382967137
0	6864	70.352215370271	0.101291074123
0	6869	70.453506444394	0.019315195314
0	6874	70.472821639708	0.035242927564
0	6879	70.508064567272	0.038205133712
0	6884	70.546269700984	0.077253153985
0	6889	70.623522854969	0.007306299752
0	6893	70.630829154721	0.087497541843
0	6899	70.718326696564	0.136757302407
0	6904	70.855083998971	0.106980623899
0	6909	70.96206462287	0.146931089587
0	6915	71.108995712457	0.015488640513
0	6920	71.12448435297	0.01551294843
0	6925	71.1399973014	0.004372683786
0	6929	71.144369985186	0.032201618427
0	6935	71.176571603613	0.07028675302
0	6940	71.246858356633	0.023706603236
0	6945	71.270564959869	0.05969433296
0	6950	71.330259292829	0.014836749488
0	6955	71.345096042317	0.040468890828
0	6960	71.385564933145	0.065328714865
0	6965	71.45089364801	0.029474775015
0	6970	71.480368423025	0.004933255861
0	6974	71.485301678886	0.123541582401
0	6980	71.608843261287	0.04153395459
0	6985	71.650377215877	0.053442094451
0	6990	71.703819310328	0.022660481537
0	6995	71.726479791865	0.056117406059
0	7000	71.782597197924	0.015321467069
0	7005	71.797918664993	0.097398876799
0	7010	71.895317541792	0.00344752296
0	7014	71.898765064752	0.084803649492
0	7020	71.983568714244	0.004723916341
0	7024	71.988292630585	0.003483347013
0	7029	71.991775977598	0.01378457521
0	7034	72.005560552808	0.017241946155
0	7040	72.022802498963	0.054985222004
0	7046	72.077787720967	0.048460907696
0	7051	72.126248628663	0.010954529638
0	7056	72.137203158301	0.004923917963
0	7060	72.142127076264	0.080488323952
0	7066	72.222615400216	0.050115326831
0	7071	72.272730727047	0.022455586119
0	7076	72.295186313166	0.158999756936
0	7081	72.454186070102	0.016089183898
0	7086	72.470275254	0.110231387297
0	7091	72.580506641297	0.104480374608
0	7096	72.684987015905	0.001094576032
0	7100	72.686081591937	0.006136230394
0	7103	72.692217822331	0.111002148452
0	7112	72.803219970783	0.014864476545
0	7117	72.818084447328	0.004832869038
0	7121	72.822917316366	0.052863557994
0	7127	72.87578087436	0.028644855495
0	7132	72.904425729855	0.012306674626
0	7137	72.916732404481	0.021285928055
0	7142	72.938018332536	0.00129556881
0	7146	72.939313901346	0.009784209331
0	7151	72.949098110677	0.034926253458
0	7157	72.984024364135	0.046764037797
0	7162	73.030788401932	0.012384459911
0	7167	73.043172861843	0.169931289404
0	7172	73.213104151247	0.066026698384
0	7177	73.279130849631	0.06552689523
0	7182	73.344657744861	0.078699691295
0	7187	73.423357436156	0.001284458671
0	7191	73.424641894827	0.036029971039
0	7197	73.460671865866	0.054785698218
0	7202	73.515457564084	0.057263923854
0	7207	73.572721487938	0.049933259784
0	7212	73.622654747722	0.044196114211
0	7217	73.666850861933	0.002222218621
0	7221	73.669073080554	0.031955217085
0	7227	73.701028297639	0.046412572241
0	7232	73.74744086988	0.006870743964
0	7236	73.754311613844	0.052182120777
0	7242	73.806493734621	0.040935944779
0	7247	73.8474296794	0.018667497869
0	7252	73.866097177269	0.007478736141
0	7256	73.87357591341	0.164519541074
0	7262	74.038095454484	0.083289257907
0	7267	74.121384712391	0.037752944858
0	7272	74.159137657249	0.06826498884
0	7277	74.227402646089	0.012370882397
0	7282	74.239773528486	0.034780489916
0	7287	74.274554018402	0.022488223459
0	7292	74.297042241861	0.015351662063
0	7297	74.312393903924	0.006322250223
0	7301	74.318716154147	0.079246703286
0	7308	74.397962857433	0.024331708771
0	7313	74.422294566204	0.033332058004
0	7318	74.455626624208	0.111856550303
0	7323	74.567483174511	0.030598821096
0	7328	74.598081995607	0.076836577902
0	7333	74.674918573509	0.04745888451
0	7338	74.722377458019	0.048419182965
0	7343	74.770796640984	0.03061081704
0	7348	74.801407458024	0.13289165438
0	7353	74.934299112404	0.018420239698
0	7358	74.952719352102	0.026488486829
0	7363	74.979207838931	0.005713700535
0	7367	74.984921539466	0.02455848491
0	7373	75.009480024376	0.061156553529
0	7378	75.070636577905	0.075124932425
0	7383	75.14576151033	0.038666392814
0	7388	75.184427903144	0.004244231235
0	7392	75.188672134379	0.014349117229
0	7398	75.203021251608	0.026960337534
0	7403	75.229981589142	0.055536624828
0	7408	75.28551821397	0.102904380291
0	7413	75.388422594261	0.045477256214
0	7418	75.433899850475	0.091490274298
0	7423	75.525390124773	0.175739016586
0	7428	75.701129141359	0.073376187348
0	7434	75.774505328707	0.025392629431
0	7439	75.799897958138	0.033808205491
0	7444	75.833706163629	0.009006391289
0	7449	75.842712554918	0.021962713636
0	7454	75.864675268554	0.003682551995
0	7458	75.868357820549	0.029833401723
0	7464	75.898191222272	0.016953848269
0	7469	75.915145070541	0.024229660091
0	7474	75.939374730632	0.025535848023
0	7479	75.964910578655	0.07991162525
0	7484	76.044822203905	0.083629637094
0	7489	76.128451840999	0.01291366606
0	7494	76.141365507059	0.026396319086
0	7499	76.167761826145	0.071625921044
0	7504	76.239387747189	0.013694335351
0	7509	76.25308208254	0.001513143531
0	7513	76.254595226071	0.027358160753
0	7519	76.281953386824	0.18477301707
0	7524	76.466726403894	0.037012863297
0	7529	76.503739267191	0.089985478406
0	7534	76.593724745597	0.016448496383
0	7539	76.61017324198	0.002280733507
0	7543	76.612453975487	0.034449402213
0	7549	76.6469033777	0.002141297917
0	7553	76.649044675617	0.14116577375
0	7559	76.790210449367	0.009239038491
0	7564	76.799449487858	0.028942776867
0	7569	76.828392264725	0.046720960293
0	7574	76.875113225018	0.021891389574
0	7579	76.897004614592	0.052116908554
0	7585	76.949121523146	0.114014325708
0	7590	77.063135848854	0.018254737246
0	7595	77.0813905861	0.013636699661
0	7600	77.095027285761	0.02931406671
0	7605	77.124341352471	0.020406821116
0	7610	77.144748173587	0.010096596186
0	7615	77.154844769773	0.10108932323
0	7620	77.255934093003	0.041994999595
0	7625	77.297929092598	0.064365996763
0	7630	77.362295089361	0.030300038008
0	7635	77.392595127369	0.035552442695
0	7640	77.428147570064	0.001033447754
0	7644	77.429181017818	0.074624916259
0	7652	77.503805934077	0.018839941534
0	7657	77.522645875611	0.026732025522
0	7662	77.549377901133	0.01568449248
0	7667	77.565062393613	0.031783176084
0	7672	77.596845569697	0.001788595018
0	7676	77.598634164715	0.003571974919
0	7679	77.602206139634	0.015483518565
0	7686	77.617689658199	0.050148682432
0	7692	77.667838340631	0.02099543064
0	7697	77.688833771271	0.043065665119
0	7702	77.73189943639	0.065628833649
0	7707	77.797528270039	0.014590380351
0	7712	77.81211865039	0.049831629074
0	7717	77.861950279464	0.033948742292
0	7723	77.895899021756	0.010991995743
0	7728	77.906891017499	0.086296846362
0	7733	77.993187863861	0.052426578343
0	7738	78.045614442204	0.007021090808
0	7742	78.052635533012	0.018775324307
0	7748	78.071410857319	0.073328670048
0	7753	78.144739527367	0.065656766302
0	7758	78.210396293669	0.004397978773
0	7762	78.214794272442	0.012895527931
0	7768	78.227689800373	0.018767587743
0	7773	78.246457388116	0.014385099573
0	7778	78.260842487689	0.044837126042
0	7783	78.305679613731	0.020367242142
0	7788	78.326046855873	0.056990085206
0	7793	78.383036941079	0.018928823275
0	7798	78.401965764354	0.004769359214
0	7802	78.406735123568	0.025319904073
0	7808	78.432055027641	0.132770200073
0	7813	78.564825227714	0.074003725781
0	7818	78.638828953495	0.120699056625
0	7823	78.75952801012	0.002137698494
0	7827	78.761665708614	0.001945737304
0	7830	78.763611445918	0.084318023193
0	7838	78.847929469111	0.064316847231
0	7843	78.912246316342	0.009439440553
0	7848	78.921685756895	0.202099129951
0	7854	79.123784886846	0.001262238406
0	7858	79.125047125252	9.4326983e-005
0	7861	79.125141452235	0.016343652355
0	7868	79.14148510459	0.029459103708
0	7874	79.170944208298	0.036440115114
0	7879	79.207384323412	0.049293400391
0	7884	79.256677723803	0.006412524833
0	7888	79.263090248636	0.115951861339
0	7894	79.379042109975	0.031664515636
0	7899	79.410706625611	0.036319302988
0	7904	79.447025928599	0.168258435584
0	7910	79.615284364183	0.063683471345
0	7915	79.678967835528	0.114388052165
0	7921	79.793355887693	0.031365737336
0	7926	79.824721625029	0.037861308453
0	7931	79.862582933482	0.002815817841
0	7935	79.865398751323	0.060737825439
0	7941	79.926136576762	0.083262926732
0	7946	80.009399503494	0.069427916575
0	7951	80.078827420069	0.100221517812
0	7956	80.179048937881	0.006896579587
0	7960	80.185945517468	0.190386192637
0	7966	80.376331710105	0.035534262406
0	7971	80.411865972511	0.118054492211
0	7976	80.529920464722	0.006278907784
0	7980	80.536199372506	0.051025684417
0	7986	80.587225056923	0.026947012016
0	7991	80.614172068939	0.027831904674
0	7996	80.642003973613	0.20399162046
0	8001	80.845995594073	0.005122505808
0	8005	80.851118099881	0.065862296902
0	8011	80.916980396783	0.095878306047
0	8016	81.01285870283	0.003163464205
0	8020	81.016022167035	0.03450834257
0	8026	81.050530509605	0.063986429114
0	8031	81.114516938719	0.116403305576
0	8036	81.230920244295	0.043820240562
0	8041	81.274740484857	0.038364983457
0	8046	81.313105468314	0.014426204985
0	8051	81.327531673299	0.038949899443
0	8056	81.366481572742	0.128696981533
0	8061	81.495178554275	0.009013864457
0	8066	81.504192418732	0.082461137567
0	8071	81.586653556299	0.056599769555
0	8076	81.643253325854	0.022776896154
0	8081	81.666030222008	0.055015908304
0	8086	81.721046130312	0.188649870552
0	8091	81.909696000864	0.048411238179
0	8096	81.958107239043	0.082034547673
0	8101	82.040141786716	0.057950672638
0	8106	82.098092459354	0.14592495344
0	8112	82.244017412794	0.010726421294
0	8117	82.254743834088	0.010203319055
0	8122	82.264947153143	0.029649421694
0	8127	82.294596574837	0.056154030505
0	8132	82.350750605342	0.046457453359
0	8137	82.397208058701	0.026686405475
0	8142	82.423894464176	0.041608240701
0	8147	82.465502704877	0.008240163251
0	8152	82.473742868128	0.035297740389
0	8157	82.509040608517	0.08301874788
0	8162	82.592059356397	0.041956111549
0	8167	82.634015467946	0.04268469283
0	8172	82.676700160776	0.025036208602
0	8177	82.701736369378	0.084091816525
0	8182	82.785828185903	0.017797664389
0	8187	82.803625850292	0.118378353956
0	8192	82.922004204248	0.023582036525
0	8197	82.945586240773	0.112630086941
0	8202	83.058216327714	0.120170163771
0	8207	83.178386491485	0.031329540289
0	8212	83.209716031774	0.038250568084
0	8217	83.247966599858	0.017655495371
0	8222	83.265622095229	0.017693086708
0	8227	83.283315181937	0.029027268108
0	8232	83.312342450045	0.094997200782
0	8237	83.407339650827	0.020297471884
0	8242	83.427637122711	0.030272961922
0	8247	83.457910084633	0.122425678001
0	8252	83.580335762634	0.029553781736
0	8257	83.60988954437	0.000528793825
0	8261	83.610418338195	0.009462959674
0	8266	83.619881297869	0.052475256051
0	8272	83.67235655392	0.00978290951
0	8277	83.68213946343	0.02159626472
0	8282	83.70373572815	0.100550571353
0	8287	83.804286299503	0.034616413298
0	8292	83.838902712801	0.011844469762
0	8297	83.850747182563	0.016468989909
0	8302	83.867216172472	0.022655324038
0	8307	83.88987149651	0.014053166562
0	8312	83.903924663072	0.067184891604
0	8317	83.971109554676	0.086680886029
0	8322	84.057790440705	0.057176239997
0	8327	84.114966680702	0.01346002848
0	8332	84.128426709182	0.01572040492
0	8337	84.144147114102	0.019222467673
0	8342	84.163369581775	0.094994030645
0	8347	84.25836361242	0.072880522042
0	8352	84.331244134462	0.109556880513
0	8357	84.440801014975	0.001368743712
0	8361	84.442169758687	0.047078230715
0	8367	84.489247989402	0.007095404695
0	8371	84.496343394097	0.007764863428
0	8376	84.504108257525	0.131639402754
0	8383	84.635747660279	0.115900006459
0	8388	84.751647666738	0.08094402306
0	8393	84.832591689798	0.00413107009
0	8397	84.836722759888	0.001109582928
0	8400	84.837832342816	0.010600852951
0	8407	84.848433195767	0.031768845387
0	8413	84.880202041154	0.056275114958
0	8419	84.936477156112	0.055540283593
0	8424	84.992017439705	0.124316058742
0	8429	85.116333498447	0.045452125058
0	8434	85.161785623505	0.059196143862
0	8439	85.220981767367	0.115797179202
0	8445	85.336778946569	0.045617206929
0	8450	85.382396153498	0.167204755449
0	8455	85.549600908947	0.034839447287
0	8460	85.584440356234	0.014418566345
0	8465	85.598858922579	0.066708187807
0	8470	85.665567110386	0.063211994075
0	8475	85.728779104461	0.019465482448
0	8480	85.748244586909	0.029961749121
0	8485	85.77820633603	0.037575594686
0	8490	85.815781930716	0.021372764652
0	8495	85.837154695368	0.169805338173
0	8500	86.006960033541	0.199680026515
0	8505	86.206640060056	0.071825443688
0	8510	86.278465503744	0.008805564974
0	8515	86.287271068718	0.01170435264
0	8520	86.298975421358	0.008090695684
0	8525	86.307066117042	0.002193716148
0	8529	86.30925983319	0.001650050776
0	8532	86.310909883966	0.025712567564
0	8540	86.33662245153	0.096291355474
0	8545	86.432913807004	0.018752961268
0	8550	86.451666768272	0.017661483289
0	8555	86.469328251561	0.046414670148
0	8560	86.515742921709	0.031363771199
0	8565	86.547106692908	0.123330313234
0	8570	86.670437006142	0.057707205382
0	8575	86.728144211524	0.022538540819
0	8580	86.750682752343	0.025788841126
0	8585	86.776471593469	0.005376920198
0	8589	86.781848513667	0.027028283207
0	8595	86.808876796874	0.017445242373
0	8600	86.826322039247	0.013658989638
0	8605	86.839981028885	0.164221809862
0	8610	87.004202838747	0.013398280852
0	8615	87.017601119599	0.235985613742
0	8620	87.253586733341	0.036528986049
0	8625	87.29011571939	0.01968493006
0	8630	87.30980064945	0.023460185908
0	8635	87.333260835358	0.057624583506
0	8640	87.390885418864	0.020198078373
0	8645	87.411083497237	0.00860193812
0	8650	87.419685435357	0.029692866027
0	8655	87.449378301384	0.031492170621
0	8660	87.480870472005	0.016043027406
0	8665	87.496913499411	0.137120868971
0	8670	87.634034368382	0.08146924832
0	8675	87.715503616702	0.051724727942
0	8680	87.767228344644	0.077827903742
0	8685	87.845056248386	0.023643737096
0	8690	87.868699985482	0.03163698562
0	8695	87.900336971102	0.039319968494
0	8700	87.939656939596	0.032967390409
0	8705	87.972624330005	0.040961563114
0	8710	88.013585893119	0.089719661068
0	8715	88.103305554187	0.018235344253
0	8720	88.12154089844	0.050608555723
0	8725	88.172149454163	0.045526893332
0	8730	88.217676347495	0.030674170242
0	8735	88.248350517737	0.024180449175
0	8740	88.272530966912	0.104763503364
0	8745	88.377294470276	0.060235812086
0	8750	88.437530282362	0.012853841061
0	8755	88.450384123423	0.041601736169
0	8760	88.491985859592	0.058577707159
0	8765	88.550563566751	0.011812601556
0	8770	88.562376168307	0.029467598341
0	8775	88.591843766648	0.011636232129
0	8780	88.603479998777	0.048264982905
0	8785	88.651744981682	0.011630207461
0	8790	88.663375189143	0.009038391117
0	8795	88.67241358026	0.073374455357
0	8800	88.745788035617	0.031724151214
0	8805	88.777512186831	0.016929599735
0	8810	88.794441786566	0.029465447076
0	8815	88.823907233642	0.010257168282
0	8820	88.834164401924	0.055568507642
0	8825	88.889732909566	0.029797156901
0	8830	88.919530066467	0.076952512476
0	8835	88.996482578943	0.040752610289
0	8840	89.037235189232	0.02916972556
0	8845	89.066404914792	0.141538981083
0	8850	89.207943895875	0.039035075044
0	8855	89.246978970919	0.002235245906
0	8859	89.249214216825	0.015323814709
0	8865	89.264538031534	0.002769808905
0	8869	89.267307840439	0.025040181072
0	8875	89.292348021511	0.067773642853
0	8880	89.360121664364	0.143592396487
0	8886	89.503714060851	0.006763344752
0	8890	89.510477405603	0.042436148428
0	8896	89.552913554031	0.091442138346
0	8901	89.644355692377	0.064161293823
0	8906	89.7085169862	0.015869954931
0	8911	89.724386941131	0.1076163701
0	8916	89.832003311231	0.009808494365
0	8921	89.841811805596	0.016637745253
0	8926	89.858449550849	0.203789120903
0	8931	90.062238671752	0.040158457234
0	8936	90.102397128986	0.094795269081
0	8942	90.197192398067	0.063152754511
0	8947	90.260345152578	0.029269693551
0	8952	90.289614846129	0.054915013931
0	8958	90.34452986006	0.011947109348
0	8963	90.356476969408	0.014704929255
0	8968	90.371181898663	0.004989784177
0	8972	90.37617168284	0.069820654601
0	8978	90.445992337441	0.007043800923
0	8982	90.453036138364	0.056841668693
0	8988	90.509877807057	0.177191276257
0	8993	90.687069083314	0.041632545939
0	8998	90.728701629253	0.177730945323
0	9003	90.906432574576	0.004010072232
0	9007	90.910442646808	0.008811993115
0	9012	90.919254639923	0.012588679779
0	9018	90.931843319702	0.085566032741
0	9023	91.017409352443	0.026274300044
0	9028	91.043683652487	0.081375187579
0	9033	91.125058840066	0.043823728555
0	9038	91.168882568621	0.017858892097
0	9043	91.186741460718	0.01405243233
0	9048	91.200793893048	0.09149063542
0	9053	91.292284528468	0.00249842634
0	9057	91.294782954808	0.032113079075
0	9063	91.326896033883	0.001120030731
0	9067	91.328016064614	0.146574811266
0	9073	91.47459087588	0.064950512802
0	9078	91.539541388682	0.038438200411
0	9083	91.577979589093	0.037071023793
0	9088	91.615050612886	0.019027264481
0	9093	91.634077877367	0.021493305642
0	9098	91.655571183009	0.012450102431
0	9103	91.66802128544	0.079453031533
0	9108	91.747474316973	0.006350108048
0	9112	91.753824425021	0.000375561066
0	9115	91.754199986087	0.035013420188
0	9123	91.789213406275	0.113513498292
0	9128	91.902726904567	0.006802022553
0	9132	91.90952892712	0.090463031838
0	9138	91.999991958958	0.014601588857
0	9143	92.014593547815	0.032585103247
0	9148	92.047178651062	0.046328531703
0	9153	92.093507182765	0.003953819685
0	9157	92.09746100245	0.040859792328
0	9163	92.138320794778	0.012192502806
0	9168	92.150513297584	0.107083947756
0	9173	92.25759724534	0.049934987663
0	9178	92.307532233003	0.000354983939
0	9182	92.307887216942	0.064229813334
0	9188	92.372117030276	0.017877400659
0	9193	92.389994430935	0.153924786204
0	9198	92.543919217139	0.000865247753
0	9202	92.544784464892	0.041400843627
0	9208	92.586185308519	0.038881383878
0	9213	92.625066692397	0.002093058317
0	9217	92.627159750714	0.001683926843
0	9220	92.628843677557	0.05841193291
0	9229	92.687255610467	0.072289566951
0	9234	92.759545177418	0.058646274939
0	9239	92.818191452357	0.05144559158
0	9244	92.869637043937	3.6272009e-005
0	9248	92.869673315946	0.029554173221
0	9254	92.899227489167	0.039039444146
0	9259	92.938266933313	0.006263695458
0	9263	92.944530628771	0.067198359358
0	9269	93.011728988129	0.033333443565
0	9274	93.045062431694	0.124874851202
0	9279	93.169937282896	0.058803742614
0	9284	93.22874102551	0.040585731803
0	9289	93.269326757313	0.075968508044
0	9294	93.345295265357	0.0223565495
0	9299	93.367651814857	0.021276225525
0	9304	93.388928040382	0.044161643612
0	9309	93.433089683994	0.000203624988
0	9313	93.433293308982	0.047754296251
0	9319	93.481047605233	0.003931127806
0	9323	93.484978733039	8.9458216e-005
0	9326	93.485068191255	0.068581198463
0	9334	93.553649389718	0.027377014437
0	9339	93.581026404155	0.048507646908
0	9344	93.629534051063	0.064791902351
0	9349	93.694325953414	0.015620740413
0	9354	93.709946693827	0.084567748832
0	9359	93.794514442659	0.049843745332
0	9364	93.844358187991	0.016092531082
0	9369	93.860450719073	0.031637609461
0	9374	93.892088328534	0.083686297207
0	9379	93.975774625741	0.026753463433
0	9384	94.002528089174	0.084361719515
0	9389	94.086889808689	0.033166323872
0	9394	94.120056132561	0.038496481816
0	9399	94.158552614377	0.009366119216
0	9404	94.167918733593	0.1032171235
0	9409	94.271135857093	0.019839343294
0	9414	94.290975200387	0.040000674927
0	9419	94.330975875314	0.020250172375
0	9424	94.351226047689	0.099462935268
0	9429	94.450688982957	0.001821142223
0	9433	94.45251012518	0.122822150696
0	9439	94.575332275876	0.032022325976
0	9444	94.607354601852	0.027946351489
0	9449	94.635300953341	0.038801796152
0	9454	94.674102749493	0.017165679156
0	9459	94.691268428649	0.034866686757
0	9464	94.726135115406	0.066587515173
0	9469	94.792722630579	0.030222821775
0	9474	94.822945452354	0.032299248184
0	9479	94.855244700538	0.084533849905
0	9484	94.939778550443	0.039536845078
0	9489	94.979315395521	0.019749432106
0	9494	94.999064827627	0.172836941973
0	9499	95.1719017696	0.107793411651
0	9504	95.279695181251	0.059587810805
0	9509	95.339282992056	0.11942708362
0	9514	95.458710075676	0.012684602947
0	9519	95.471394678623	0.025433743991
0	9524	95.496828422614	0.039876416398
0	9529	95.536704839012	0.029244400336
0	9534	95.565949239348	0.020186355756
0	9539	95.586135595104	0.100816593693
0	9544	95.686952188797	0.054264031394
0	9549	95.741216220191	0.007977507198
0	9554	95.749193727389	0.022087056027
0	9559	95.771280783416	0.009260883274
0	9564	95.78054166669	0.069845868928
0	9569	95.850387535618	0.007036129198
0	9573	95.857423664816	0.026376860923
0	9579	95.883800525739	0.012311100409
0	9584	95.896111626148	0.212423574517
0	9589	96.108535200665	0.03326060612
0	9594	96.141795806785	0.072689622838
0	9600	96.214485429623	0.061894104414
0	9605	96.276379534037	0.028266173962
0	9610	96.304645707999	0.027024362085
0	9616	96.331670070084	0.081792073721
0	9621	96.413462143805	0.067028936275
0	9626	96.48049108008	0.089398057272
0	9631	96.569889137352	0.039681193309
0	9636	96.609570330661	0.034040631216
0	9641	96.643610961877	0.080626405026
0	9646	96.724237366903	0.068298117224
0	9651	96.792535484127	0.035919706367
0	9656	96.828455190494	0.007562221003
0	9660	96.836017411497	0.042084239913
0	9666	96.87810165141	0.038939425014
0	9671	96.917041076424	0.06753994345
0	9676	96.984581019874	0.017779918666
0	9681	97.00236093854	0.029541931209
0	9686	97.031902869749	0.060268042315
0	9691	97.092170912064	0.167233175852
0	9696	97.259404087916	0.059418963683
0	9701	97.318823051599	0.062686545922
0	9706	97.381509597521	0.031224365632
0	9711	97.412733963153	0.010635673626
0	9716	97.423369636779	0.002121780238
0	9720	97.425491417017	0.355025525193
0	9726	97.78051694221	0.090537354789
0	9731	97.871054296999	0.024893641761
0	9736	97.89594793876	0.022113622878
0	9741	97.918061561638	0.051544891413
0	9746	97.969606453051	0.016520286761
0	9751	97.986126739812	0.078071894651
0	9756	98.064198634463	0.089714344415
0	9761	98.153912978878	0.022377121951
0	9766	98.176290100829	0.012372754003
0	9771	98.188662854832	0.095979297534
0	9776	98.284642152366	0.099889784782
0	9781	98.384531937148	0.047177519595
0	9787	98.431709456743	0.010361161879
0	9792	98.442070618622	0.118245416617
0	9797	98.560316035239	0.090499182127
0	9802	98.650815217366	0.006836867029
0	9806	98.657652084395	0.044448514231
0	9812	98.702100598626	0.077153311015
0	9817	98.779253909641	0.031363811658
0	9822	98.810617721299	0.077382239419
0	9827	98.887999960718	0.010748433593
0	9832	98.898748394311	0.082666660192
0	9837	98.981415054503	0.003582885834
0	9841	98.984997940337	0.010303796134
0	9846	98.995301736471	0.084828698642
0	9852	99.080130435113	0.023250224576
0	9857	99.103380659689	0.024281683569
0	9862	99.127662343258	0.060481395849
0	9867	99.188143739107	0.017601267392
0	9872	99.205745006499	0.003079205261
0	9876	99.20882421176	0.018951124566
0	9882	99.227775336326	0.196869459942
0	9887	99.424644796268	0.004859102799
0	9891	99.429503899067	0.074989063683
0	9897	99.50449296275	0.037395323209
0	9902	99.541888285959	0.048524543949
0	9907	99.590412829908	0.001210172434
0	9911	99.591623002342	0.070586149291
0	9917	99.662209151633	0.010162613164
0	9922	99.672371764797	4.0789994e-005
0	9926	99.672412554791	0.066527273053
0	9932	99.738939827844	0.007851842163
0	9937	99.746791670007	0.016429255867
0	9942	99.763220925874	0.002673108631
0	9946	99.765894034505	0.032386478869
0	9952	99.798280513374	0.089861594314
0	9957	99.888142107688	0.001175368967
0	9961	99.889317476655	0.159067143218
0	9967	100.048384619873	0.232817465475
0	9972	100.281202085348	0.012971713281
0	9977	100.294173798629	0.001372201116
0	9981	100.295545999745	0.042791540135
0	9987	100.33833753988	0.049095450164
0	9992	100.387432990044	0.086593206446
0	9997	100.47402619649	0.011175965956
0	10002	100.485202162446	0.022907555671
0	10007	100.508109718117	0.034838240741
0	10012	100.542947958858	0.004517790046
0	10016	100.547465748904	0.040851954339
0	10022	100.588317703243	0.02540528689
0	10027	100.613722990133	0.001095509675
0	10031	100.614818499808	0.238557952327
0	10037	100.853376452135	0.029210387257
0	10042	100.882586839392	0.036842214912
0	10047	100.919429054304	0.131941149697
0	10052	101.051370204001	0.073251623962
0	10057	101.124621827963	0.026389807299
0	10062	101.151011635262	0.106882568322
0	10067	101.257894203584	0.024307500342
0	10072	101.282201703926	0.00813851048
0	10077	101.290340214406	0.02691862602
0	10082	101.317258840426	0.024760144512
0	10087	101.342018984938	0.013647748187
0	10092	101.355666733125	0.191388122802
0	10097	101.547054855927	0.02352946482
0	10102	101.570584320747	0.002311792403
0	10106	101.57289611315	0.004621834358
0	10109	101.577517947508	0.072532234865
0	10117	101.650050182373	0.356092232888
0	10122	102.006142415261	0.036687419364
0	10127	102.042829834625	0.00642857158
0	10131	102.049258406205	0.004471631672
0	10136	102.053730037877	0.005484847332
0	10141	102.059214885209	0.032526598042
0	10147	102.091741483251	0.0034278787
0	10151	102.095169361951	0.000343909485
0	10154	102.095513271436	0.01363115006
0	10161	102.109144421496	0.020504883423
0	10167	102.129649304919	0.058199500353
0	10172	102.187848805272	0.045139600689
0	10177	102.232988405961	0.016731447367
0	10182	102.249719853328	0.038082253089
0	10187	102.287802106417	0.036288964411
0	10192	102.324091070828	0.004052719875
0	10196	102.328143790703	0.033114369903
0	10202	102.361258160606	0.090925576208
0	10207	102.452183736814	0.00979398376
0	10212	102.461977720574	0.008409264721
0	10217	102.470386985295	0.006852599199
0	10221	102.477239584494	0.007899786193
0	10226	102.485139370687	0.104642958632
0	10232	102.589782329319	0.038037831852
0	10237	102.627820161171	0.028616255978
0	10242	102.656436417149	0.011871546699
0	10247	102.668307963848	0.04597262454
0	10252	102.714280588388	0.00487613448
0	10256	102.719156722868	0.139711905788
0	10262	102.858868628656	0.046670178977
0	10267	102.905538807633	0.025057366905
0	10272	102.930596174538	0.066727471736
0	10277	102.997323646274	0.183880478727
0	10282	103.181204125001	0.010744475754
0	10287	103.191948600755	0.052355297036
0	10292	103.244303897791	0.098074402232
0	10297	103.342378300023	0.020184596901
0	10302	103.362562896924	0.130053332921
0	10308	103.492616229845	0.209925388197
0	10313	103.702541618042	0.026783406445
0	10318	103.729325024487	0.008193667234
0	10323	103.737518691721	0.007772451554
0	10327	103.745291143275	0.053272831215
0	10333	103.79856397449	0.042380939453
0	10338	103.840944913943	0.189186822351
0	10343	104.030131736294	0.002192623547
0	10347	104.032324359841	0.08373418551
0	10353	104.116058545351	0.016323679876
0	10358	104.132382225227	0.001352229856
0	10362	104.133734455083	0.055807424098
0	10368	104.189541879181	0.012659535648
0	10373	104.202201414829	0.038323019143
0	10378	104.240524433972	0.041620201806
0	10383	104.282144635778	0.036243031768
0	10388	104.318387667546	0.029564177651
0	10393	104.347951845197	0.062481579795
0	10398	104.410433424992	0.036351607334
0	10403	104.446785032326	0.024986470956
0	10408	104.471771503282	0.019353451065
0	10413	104.491124954347	0.029999291827
0	10418	104.521124246174	0.066400313548
0	10423	104.587524559722	0.008273304615
0	10428	104.595797864337	0.007363025225
0	10432	104.603160889562	0.074579161149
0	10438	104.677740050711	0.04831981437
0	10443	104.726059865081	0.01112724222
0	10448	104.737187107301	0.034414027302
0	10453	104.771601134603	0.106711335692
0	10458	104.878312470295	0.009908528347
0	10463	104.888220998642	0.01658156021
0	10468	104.904802558852	0.027960611074
0	10473	104.932763169926	0.032665053784
0	10478	104.96542822371	0.058770409037
0	10483	105.024198632747	0.133580217997
0	10488	105.157778850744	0.008756969809
0	10493	105.166535820553	0.016635111101
0	10498	105.183170931654	0.128355739892
0	10503	105.311526671546	0.01959271102
0	10508	105.331119382566	0.024298081801
0	10513	105.355417464367	0.111241310473
0	10518	105.46665877484	0.020372583487
0	10523	105.487031358327	0.134791721852
0	10528	105.621823080179	0.22822392404
0	10533	105.850047004219	0.006555074287
0	10537	105.856602078506	0.009734362652
0	10543	105.866336441158	0.026033962909
0	10548	105.892370404067	0.066142792386
0	10553	105.958513196453	0.008483775714
0	10558	105.966996972167	0.041666810578
0	10563	106.008663782745	0.036661785278
0	10568	106.045325568023	0.025834154829
0	10573	106.071159722852	0.012555701959
0	10578	106.083715424811	0.066869190682
0	10583	106.150584615493	0.02574355431
0	10588	106.176328169803	0.01713166314
0	10593	106.193459832943	0.024376005829
0	10598	106.217835838772	0.031910967695
0	10603	106.249746806467	0.024443939642
0	10608	106.274190746109	0.03296269531
0	10613	106.307153441419	0.030483801989
0	10618	106.337637243408	0.012944656823
0	10623	106.350581900231	0.010794450989
0	10628	106.36137635122	0.035005583805
0	10634	106.396381935025	0.033494553818
0	10639	106.429876488843	0.024094964464
0	10644	106.453971453307	0.027911988506
0	10649	106.481883441813	0.108285922946
0	10654	106.590169364759	0.029282555658
0	10659	106.619451920417	0.001927708087
0	10663	106.621379628504	0.267689589801
0	10669	106.889069218305	0.018801023631
0	10674	106.907870241936	0.013372187532
0	10679	106.921242429468	0.041837165924
0	10684	106.963079595392	0.054782481464
0	10689	107.017862076856	0.156771229168
0	10694	107.174633306024	0.053986882971
0	10700	107.228620188995	0.025206120873
0	10705	107.253826309868	0.033573635013
0	10710	107.287399944881	0.042889177458
0	10715	107.330289122339	0.028359182604
0	10720	107.358648304943	0.005530260713
0	10724	107.364178565656	0.008986828527
0	10729	107.373165394183	0.269982356033
0	10736	107.643147750216	0.063514668383
0	10741	107.706662418599	0.05982950537
0	10746	107.766491923969	0.074429583292
0	10751	107.840921507261	0.059266346514
0	10756	107.900187853775	0.017199370447
0	10761	107.917387224222	0.035791356833
0	10766	107.953178581055	0.00597627349
0	10770	107.959154854545	0.005043706459
0	10775	107.964198561004	0.132856905586
0	10781	108.09705546659	0.03158439408
0	10786	108.12863986067	0.01524288449
0	10791	108.14388274516	0.057435836372
0	10796	108.201318581532	0.011789855764
0	10801	108.213108437296	0.088953887214
0	10806	108.30206232451	0.044821332837
0	10811	108.346883657347	0.041576684589
0	10816	108.388460341936	0.001670872057
0	10820	108.390131213993	0.004625135839
0	10823	108.394756349832	0.09946994433
0	10831	108.494226294162	0.032224120464
0	10836	108.526450414626	0.015914033397
0	10841	108.542364448023	0.022293595922
0	10846	108.564658043945	0.015877636494
0	10851	108.580535680439	0.069444766068
0	10856	108.649980446507	0.020022568263
0	10861	108.67000301477	0.00722853998
0	10865	108.67723155475	0.008635672525
0	10871	108.685867227275	0.057236281883
0	10876	108.743103509158	0.002482751072
0	10880	108.74558626023	0.019032697655
0	10886	108.764618957885	0.011576243151
0	10891	108.776195201036	0.024604848874
0	10896	108.80080004991	0.046654058088
0	10901	108.847454107998	0.026840868682
0	10906	108.87429497668	0.132350245327
0	10911	109.006645222007	0.03312625146
0	10916	109.039771473467	0.013232907808
0	10921	109.053004381275	0.005615159436
0	10925	109.058619540711	0.023347957552
0	10931	109.081967498263	0.022375952105
0	10936	109.104343450368	0.021496242003
0	10941	109.125839692371	0.040603377752
0	10946	109.166443070123	0.095834656751
0	10951	109.262277726874	0.0077509075
0	10955	109.270028634374	0.027506778903
0	10961	109.297535413277	0.022970767406
0	10966	109.320506180683	0.173084816074
0	10971	109.493590996757	0.005380666013
0	10975	109.49897166277	0.005839193098
0	10980	109.504810855868	0.03268547419
0	10986	109.537496330058	0.039689527245
0	10991	109.577185857303	0.043831175927
0	10996	109.62101703323	0.093316344086
0	11001	109.714333377316	0.014521091825
0	11006	109.728854469141	0.01226215001
0	11011	109.741116619151	0.044238956948
0	11016	109.785355576099	0.040265485168
0	11021	109.825621061267	0.021278781081
0	11026	109.846899842348	0.004672211289
0	11030	109.851572053637	0.104675017055
0	11036	109.956247070692	0.011333405267
0	11041	109.967580475959	0.012683189955
0	11046	109.980263665914	0.046592350998
0	11051	110.026856016912	0.005543050072
0	11055	110.032399066984	0.032239108616
0	11061	110.0646381756	0.003734929984
0	11065	110.068373105584	0.058563305303
0	11071	110.126936410887	0.086835756018
0	11077	110.213772166905	0.077756274001
0	11082	110.291528440906	0.026922057463
0	11087	110.318450498369	0.014791411175
0	11092	110.333241909544	0.008173474131
0	11097	110.341415383675	0.221624540026
0	11102	110.563039923701	0.00430962281
0	11106	110.567349546511	0.011287695847
0	11112	110.578637242358	0.183022048595
0	11117	110.761659290953	0.105366217544
0	11122	110.867025508497	0.130454084378
0	11127	110.997479592875	0.008852972555
0	11132	111.00633256543	0.013479949465
0	11137	111.019812514895	0.015613471885
0	11142	111.03542598678	0.077844457828
0	11147	111.113270444608	0.101790982627
0	11152	111.215061427235	0.021517578221
0	11157	111.236579005456	0.061786874329
0	11162	111.298365879785	0.06669748162
0	11167	111.365063361405	0.100518688057
0	11172	111.465582049462	0.387447518125
0	11177	111.853029567587	0.044781068546
0	11182	111.897810636133	0.004375503388
0	11186	111.902186139521	0.004534568368
0	11191	111.906720707889	0.002040612532
0	11194	111.908761320421	0.005906620907
0	11199	111.914667941328	0.018151766302
0	11206	111.93281970763	0.024516700175
0	11212	111.957336407805	0.026230244507
0	11217	111.983566652312	0.024216692515
0	11222	112.007783344827	0.006084305559
0	11226	112.013867650386	0.018969848104
0	11232	112.03283749849	0.157376432279
0	11238	112.190213930769	0.018047486392
0	11243	112.208261417161	0.024537128445
0	11248	112.232798545606	0.030763332094
0	11253	112.2635618777	0.066771714724
0	11258	112.330333592424	0.124549862308
0	11263	112.454883454732	0.033764267267
0	11268	112.488647721999	0.158071630832
0	11273	112.646719352831	0.107861538766
0	11278	112.754580891597	0.014160764353
0	11283	112.76874165595	0.097696570457
0	11288	112.866438226407	0.035080908331
0	11293	112.901519134738	0.015341674376
0	11298	112.916860809114	0.007852651491
0	11303	112.924713460605	0.082166460653
0	11308	113.006879921258	0.002493548649
0	11312	113.009373469907	0.013474086129
0	11318	113.022847556036	0.009818747063
0	11323	113.032666303099	0.019698419964
0	11328	113.052364723063	0.164131976752
0	11333	113.216496699815	0.019280115622
0	11338	113.235776815437	0.004090873525
0	11342	113.239867688962	0.051530221093
0	11349	113.291397910055	0.030136654186
0	11354	113.321534564241	0.030721159383
0	11359	113.352255723624	0.044805956484
0	11364	113.397061680108	0.004685499916
0	11368	113.401747180024	0.017896321024
[...]
4	39675	394.034663356656	0.007777777778
4	39680	394.158961980245	0.007777777778
4	39685	394.275891308908	0.007777777778
4	39690	394.299995961481	0.007777777778
4	39695	394.360676186063	0.007777777778
4	39700	394.368453963841	0.011706197535
4	39705	394.408178258275	0.007777777778
4	39710	394.416267651509	0.007777777778
4	39716	394.442760003044	0.007777777778
4	39721	394.458070641444	0.007777777778
4	39726	394.51890472306	0.007777777778
4	39731	394.534668555525	0.007777777778
4	39736	394.590905656069	0.007777777778
4	39741	394.614894883596	0.007777777778
4	39749	394.622672661374	0.012090904889
4	39751	394.630450439152	0.018553577189
4	39756	394.648117014279	0.007777777778
4	39761	394.674818002257	0.007777777778
4	39766	394.687524664612	0.007777777778
4	39771	394.702982317662	0.007777777778
4	39776	394.730411265414	0.007777777778
4	39781	394.797393987303	0.007777777778
4	39786	394.827399922371	0.007777777778
4	39791	394.844917657606	0.007777777778
4	39796	394.852695435384	0.013399994712
4	39801	394.866407440666	0.007777777778
4	39806	394.888055959	0.007777777778
4	39811	394.904869220557	0.007777777778
4	39816	394.935417780702	0.007777777778
4	39821	394.94319555848	0.013411034443
4	39826	395.017588834878	0.007777777778
4	39831	395.049416118992	0.007777777778
4	39839	395.05719389677	0.015512229359
4	39841	395.064971674548	0.020009867797
4	39846	395.090879384635	0.007777777778
4	39851	395.226015056599	0.007777777778
4	39856	395.233792834377	0.008197425672
4	39861	395.287060124015	0.007777777778
4	39866	395.294837901793	0.015101167614
4	39871	395.391685757466	0.007777777778
4	39876	395.416523063639	0.007777777778
4	39881	395.534849554899	0.007777777778
4	39886	395.542627332677	0.012528179441
4	39891	395.595130029153	0.007777777778
4	39896	395.795601444519	0.007777777778
4	39901	395.808530492835	0.007777777778
4	39906	395.88190833738	0.007777777778
4	39911	395.901796546061	0.007777777778
4	39916	395.924127655845	0.007777777778
4	39921	395.963589662463	0.007777777778
4	39926	395.990699310095	0.007777777778
4	39931	396.00108630396	0.007777777778
4	39936	396.008864081738	0.010601946148
4	39941	396.029520607239	0.007777777778
4	39946	396.079403838228	0.007777777778
4	39951	396.087181616006	0.013238379591
4	39956	396.14042036898	0.007777777778
4	39961	396.226582463801	0.007777777778
4	39966	396.365135333258	0.007777777778
4	39971	396.394093741381	0.007777777778
4	39976	396.413416291902	0.007777777778
4	39981	396.520601202915	0.007777777778
4	39987	396.688642338478	0.007777777778
4	39992	396.743511079203	0.007777777778
4	39997	396.751288856981	0.013985814164
4	40002	396.759066634759	0.008071187112
4	40007	396.797901930119	0.007777777778
4	40012	396.824027214651	0.007777777778
4	40017	396.891754111013	0.007777777778
4	40022	396.986385385936	0.007777777778
4	40027	397.008136318091	0.007777777778
4	40032	397.053586781763	0.007777777778
4	40037	397.10244789414	0.007777777778
4	40042	397.151032414248	0.007777777778
4	40047	397.242393289386	0.007777777778
4	40052	397.250171067164	0.008620247311
4	40057	397.273804186533	0.007777777778
4	40062	397.292076824275	0.007777777778
4	40067	397.351002237889	0.007777777778
4	40072	397.382224494753	0.007777777778
4	40077	397.43010410536	0.007777777778
4	40082	397.528335791398	0.007777777778
4	40088	397.582520419721	0.007777777778
4	40099	397.590298197499	0.015194892486
4	40104	397.598075975277	0.021581538848
4	40106	397.605853753055	0.026177886765
4	40108	397.613631530833	0.025974840754
4	40113	397.628960221515	0.007777777778
4	40118	397.727940336428	0.007777777778
4	40123	397.823155179266	0.007777777778
4	40128	397.830932957044	0.012785620984
4	40133	397.910716819072	0.007777777778
4	40138	397.939861880038	0.007777777778
4	40143	398.036515798993	0.007777777778
4	40148	398.127630740618	0.007777777778
4	40153	398.184305604438	0.007777777778
4	40158	398.212595706257	0.007777777778
4	40163	398.297465519584	0.007777777778
4	40168	398.328508804437	0.007777777778
4	40173	398.344490586217	0.007777777778
4	40178	398.352268363995	0.008125433912
4	40183	398.450223709073	0.007777777778
4	40188	398.458001486851	0.015427995921
4	40193	398.470717402054	0.007777777778
4	40198	398.500467395682	0.007777777778
4	40203	398.50824517346	0.011084697099
4	40208	398.541252209546	0.007777777778
4	40213	398.563577471935	0.007777777778
4	40218	398.583130992501	0.007777777778
4	40223	398.725588167093	0.007777777778
4	40228	398.743464284634	0.007777777778
4	40234	398.930059160717	0.007777777778
4	40239	398.995384164778	0.007777777778
4	40244	399.051330489746	0.007777777778
4	40249	399.080405938779	0.007777777778
4	40254	399.092100566516	0.007777777778
4	40259	399.119672761975	0.007777777778
4	40264	399.13087358601	0.007777777778
4	40269	399.214667578044	0.007777777778
4	40274	399.231316925323	0.007777777778
4	40279	399.248539896113	0.007777777778
4	40284	399.256317673891	0.011406169217
4	40289	399.264095451669	0.01137024597
4	40294	399.346990980012	0.007777777778
4	40299	399.445382487244	0.007777777778
4	40304	399.570002270809	0.007777777778
4	40309	399.634927360652	0.007777777778
4	40314	399.64270513843	0.013158559326
4	40319	399.70293734226	0.007777777778
4	40324	399.710715120038	0.011530424065
4	40329	399.728992994228	0.007777777778
4	40334	399.872529801332	0.007777777778
4	40339	399.889323769545	0.007777777778
4	40344	399.920923291855	0.007777777778
4	40349	399.961296552427	0.007777777778
5	951	10.066257790323	0.60279300525426
5	1002	10.669050795577	0.40540630333587
5	1033	11.074457098913	0.78153450685899
5	1134	11.855991605772	0.40191137795693
5	1175	12.257902983729	1.2969502216786
5	1326	13.554853205408	1.9283317209637
5	1507	15.483184926372	1.8898472183717
5	1678	17.373032144744	1.7817513042146
5	1814	19.154783448959	1.4618802478456
5	1925	20.616663696805	1.1122204931442
5	2026	21.728884189949	1.3210450551634
5	2136	23.049929245112	1.8418326054912
5	2303	24.891761850603	0.27705398899802
5	2319	25.168815839601	0.13995027355623
5	2325	25.308766113157	1.2740687719223
5	2443	26.582834885079	0.19037092337736
5	2472	26.773205808456	0.060150619794696
5	2473	26.833356428251	0.43511600284659
5	2509	27.268472431098	0.52707175695002
5	2564	27.795544188048	0.69534476082685
5	2626	28.490888948875	0.94333380771754
5	2712	29.434222756593	0.16224713216929
5	2728	29.596469888762	0.29559984266689
5	2764	29.892069731429	0.025422067244184
5	2770	29.917491798673	0.33641293622831
5	2801	30.253904734901	0.071119370808246
5	2802	30.325024105709	1.1534816811199
5	2883	31.478505786829	5.3435789510034
5	3409	36.822084737832	1.8383463849326
5	3565	38.660431122765	0.37718907375314
5	3606	39.037620196518	1.6562854120411
5	3837	40.693905608559	1.0480002911007
5	3943	41.74190589966	6.3499123502667e-005
5	3944	41.741969398784	0.29561184841667
5	4000	42.037581247201	2.5719047150493
5	4241	44.60948596225	0.6376088607845
5	4336	45.247094823035	1.6448845903913
5	4503	46.891979413426	1.4808633336258
5	4634	48.372842747052	3.1238476216856
5	5044	51.496690368738	0.5040191838718
5	5101	52.00070955261	0.66306228666997
5	5147	52.66377183928	1.2778865175438
5	5258	53.941658356824	1.0864090539156
5	5344	55.02806741074	0.49654104443543
5	5410	55.524608455175	1.3235323866179
5	5521	56.848140841793	0.46681742798011
5	5572	57.314958269773	0.62756943696914
5	5628	57.942527706742	1.1302463541134
5	5774	59.072774060855	1.6370568207459
5	5909	60.709830881601	0.27507286979691
5	5938	60.984903751398	0.57623124966855
5	6027	61.561135001067	0.016824847556272
5	6028	61.577959848623	0.1381589622546
5	6044	61.716118810878	1.5734618521275
5	6245	63.289580663005	1.0276429674773
5	6296	64.317223630482	1.8347671652419
5	6452	66.151990795724	0.65132160723287
5	6498	66.803312402957	0.42331006858097
5	6524	67.226622471538	1.0732977356848
5	6674	68.299920207223	1.4855357704343
5	6806	69.785455977657	0.087032759368556
5	6827	69.872488737026	0.061311484257317
5	6833	69.933800221283	1.0898204585154
5	6914	71.023620679798	1.0301244510717
5	7045	72.05374513087	0.67518954655682
5	7111	72.728934677427	1.624905718003
5	7307	74.35384039543	1.4077817409457
5	7433	75.761622136376	1.1671634682878
5	7584	76.928785604664	0.55839429247854
5	7650	77.487179897143	0.0070792793281675
5	7651	77.494259176471	0.4001949165479
5	7722	77.894454093019	1.0596911444313
5	7853	78.95414523745	0.64951318530978
5	7909	79.60365842276	0.079594611965959
5	7919	79.683253034726	2.5199562347125
5	8111	82.203209269439	2.3456086975818
5	8382	84.548817967021	0.36750110766826
5	8418	84.916319074689	0.35836805977935
5	8444	85.274687134468	4.1943393795135
5	8885	89.469026513982	0.72280166879232
5	8941	90.191828182774	0.12074627296593
5	8957	90.31257445574	2.3466255725592
5	9228	92.659200028299	3.5238799267257
5	9599	96.183079955025	0.14835179967932
5	9615	96.331431754704	2.0664199544558
5	9786	98.39785170916	5.051471138294
5	10307	103.449322847454	2.9424197811446
5	10633	106.391742628599	0.81337621032041
5	10699	107.205118838919	0.2699334142233
5	10735	107.475052253142	2.7191869238747
5	11076	110.194239177017	1.9486660226173
5	11237	112.142905199634	1.1134556649582
5	11348	113.256360864592	1.6272505530015
5	11509	114.883611417593	0.10358033497246
5	11514	114.987191752565	0.17793693351471
5	11531	115.16512868608	0.071579356442678
5	11542	115.236708042523	0.35101393874763
5	11563	115.587721981271	3.7065627153067
5	11909	119.294284696578	0.83723278233687
5	12009	120.131517478915	0.79604888789364
5	12091	120.927566366809	2.1067119030069
5	12337	123.034278269816	0.043959321659718
5	12343	123.078237591476	0.038640635987888
5	12349	123.116878227464	0.66748476026813
5	12414	123.784362987732	0.44569635932265
5	12461	124.230059347055	2.7128644761714
5	12757	126.942923823226	1.0601581484506
5	12867	128.003081971677	1.6442140161679
5	13029	129.647295987845	1.3605828707836
5	13170	131.007878858629	1.5721492288816
5	13321	132.580028087511	3.2578930237712
5	13642	135.837921111282	0.35581105357554
5	13673	136.193732164858	0.13222879954484
5	13679	136.325960964403	1.3398966539909
5	13775	137.665857618394	0.51068594157746
5	13831	138.176543559971	1.6983927568898
5	13992	139.874936316861	0.80601957773871
5	14058	140.6809558946	0.049932899369014
5	14059	140.730888793969	0.64601304433909
5	14120	141.376901838308	0.56653925530758
5	14206	141.943441093616	0.69954094960218
5	14242	142.642982043218	2.4864452060484
5	14488	145.129427249266	0.49685190020965
5	14544	145.626279149476	1.9392047242811
5	14759	147.565483873757	3.7280972436637
5	15151	151.293581117421	1.1995475703864
5	15272	152.493128687807	0.037823316906434
5	15273	152.530952004713	0.91044112490549
5	15349	153.441393129618	0.19166989597583
5	15360	153.633063025594	0.35060645484247
5	15396	153.983669480436	0.48468016918391
5	15437	154.46834964962	0.82853009665645
5	15553	155.296879746276	0.70259228467116
5	15594	155.999472030947	0.53328833883132
5	15665	156.532760369778	0.46305466516324
5	15736	156.995815034941	0.042076324352642
5	15742	157.037891359294	1.5217742544528
5	15868	158.559665613747	0.8603699421782
5	15924	159.420035555925	1.3542756074905
5	16095	160.774311163416	1.2506828605224
5	16220	162.024994023938	0.0048514896955545
5	16222	162.029845513634	1.1205317961244
5	16338	163.150377309758	1.0217789319627
5	16456	164.172156241721	0.60431721845619
5	16515	164.776473460177	0.5524927024264
5	16596	165.328966162603	0.44987037471842
5	16651	165.778836537321	0.30543103642863
5	16687	166.08426757375	3.270208549584
5	16979	169.354476123334	0.31364207358039
5	17005	169.668118196914	5.100260451165
5	17496	174.768378648079	0.0032054994541496
5	17497	174.771584147533	1.1122713276321
5	17633	175.883855475165	0.64128372596189
5	17664	176.525139201127	2.5183101041184
5	17955	179.043449305245	0.77712538699182
5	18041	179.820574692237	1.5990892194616
5	18167	181.419663911699	1.6556185959143
5	18313	183.075282507613	3.2607564806543
5	18639	186.336038988267	0.46944642483242
5	18695	186.805485413099	0.48071717089732
5	18726	187.286202583996	2.2236268622696
5	18981	189.509829446266	0.11185403674877
5	19010	189.621683483015	0.68763031497963
5	19094	190.309313797995	0.002500172808823
5	19095	190.311813970804	0.45783663904161
5	19136	190.769650609846	0.56535050211905
5	19167	191.335001111965	3.7014846449223
5	19548	195.036485756887	0.62852703503673
5	19604	195.665012791924	0.50546492879934
5	19640	196.170477720723	0.99285862744766
5	19761	197.163336348171	0.15208695689363
5	19772	197.315423305065	0.21668740089599
5	19782	197.532110705961	2.0322351051713
5	19964	199.564345811132	0.9232018371605
5	20060	200.487547648293	1.0874784442051
5	20155	201.575026092498	0.75423413140895
5	20242	202.329260223907	1.8614956049629
5	20433	204.19075582887	0.019579463808048
5	20434	204.210335292678	0.033862580551467
5	20435	204.244197873229	0.22629172835521
5	20446	204.470489601584	0.46975024400759
5	20511	204.940239845592	0.7541201536759
5	20578	205.694359999268	0.18370688622819
5	20599	205.878066885496	4.9815728415143
5	21195	210.85963972701	1.0982525080492
5	21306	211.957892235059	0.90476710684597
5	21387	212.862659341905	0.3267216434051
5	21418	213.18938098531	1.844991078988
5	21569	215.034372064298	0.085346441329362
5	21575	215.119718505627	0.62646207748699
5	21631	215.746180583114	1.052209370102
5	21767	216.798389953216	0.1921388730317
5	21788	216.990528826248	7.024733637238
5	22524	224.015262463486	0.66636466447205
5	22604	224.681627127958	1.3224348677802
5	22731	226.004061995738	0.092709129457655
5	22737	226.096771125196	1.4067834269976
5	22928	227.503554552194	3.1201458620601
5	23253	230.623700414254	0.80648031215982
5	23330	231.430180726414	0.52973737796136
5	23391	231.959918104375	0.86459481586156
5	23497	232.824512920237	0.54780897766603
5	23543	233.372321897903	1.4156354242647
5	23684	234.787957322168	0.0047036266763027
5	23685	234.792660948844	0.69548209907009
5	23756	235.488143047914	0.29388523249313
5	23786	235.782028280407	0.64826448221513
5	23828	236.430292762622	1.1843332924409
5	23964	237.614626055063	2.5269870317011
5	24165	240.141613086764	0.093506903116789
5	24180	240.235119989881	0.65562215417383
5	24207	240.890742144055	1.00874386774
5	24353	241.899486011795	0.23198708315114
5	24364	242.131473094946	0.66063371313869
5	24429	242.792106808085	0.47287304091007
5	24496	243.264979848995	0.095720263669685
5	24507	243.360700112665	0.15126258432958
5	24513	243.511962696995	0.81333748216826
5	24624	244.325300179163	0.86197295126417
5	24754	245.187273130427	2.2076994759188
5	24961	247.394972606346	0.03108983825265
5	24966	247.426062444599	0.66588436427851
5	25038	248.091946808878	2.0581423516589
5	25229	250.150089160537	0.47979412877958
5	25275	250.629883289317	2.4523837776602
5	25486	253.082267066977	0.062207050719785
5	25502	253.144474117697	1.0522645463426
5	25618	254.19673866404	3.0508141973411
5	25884	257.247552861381	1.0669587686139
5	26010	258.314511629995	0.63988543956414
5	26065	258.954397069559	1.2179738888593
5	26207	260.172370958418	0.62287882820595
5	26263	260.795249786624	0.62917262125682
5	26323	261.424422407881	0.47540779117812
5	26385	261.899830199059	1.1929985282119
5	26511	263.092828727271	0.16149802758277
5	26542	263.254326754854	0.46155593292172
5	26587	263.715882687776	1.2616565970491
5	26704	264.977539284825	0.67423823233128
5	26804	265.651777517156	1.4336484106395
5	26991	267.085425927795	1.0559955838843
5	27092	268.141421511679	1.1334951072591
5	27198	269.274916618938	0.070558333422571
5	27199	269.345474952361	3.4341913009049
5	27495	272.779666253266	0.76512646702325
5	27636	273.544792720289	2.3778627717337
5	27882	275.922655492023	1.3243274630375
5	27978	277.246982955061	1.2077029255226
5	28108	278.454685880584	0.55673349709179
5	28145	279.011419377676	2.2972037589235
5	28421	281.3086231366	1.0526964956554
5	28526	282.361319632255	1.4115103357419
5	28703	283.772829967997	0.85872154749206
5	28763	284.631551515489	2.1923307431931
5	28975	286.823882258682	0.31223391100774
5	29015	287.13611616969	0.13295980298157
5	29027	287.269075972672	2.2161159657261
5	29278	289.485191938398	1.2762538181747
5	29369	290.761445756573	0.17775028923219
5	29400	290.939196045805	1.4621500513583
5	29525	292.401346097163	0.48350515970435
5	29561	292.884851256867	0.52098613331896
5	29608	293.405837390186	0.040413043498945
5	29609	293.446250433685	0.26686044004647
5	29665	293.713110873731	0.62581755952837
5	29731	294.338928433259	0.12679996046345
5	29737	294.465728393722	1.0023824629718
5	29853	295.468110856694	0.99814010780193
5	29929	296.466250964496	1.8984414690366
5	30130	298.364692433533	1.4639128372372
5	30255	299.82860527077	0.89401497188986
5	30372	300.72262024266	3.4153041089344
5	30663	304.137924351594	0.31147113944016
5	30704	304.449395491034	1.0360438458433
5	30810	305.485439336877	0.39594339976932
5	30866	305.881382736646	0.50630343150366
5	30907	306.38768616815	0.092566829274161
5	30918	306.480252997424	1.2121696079507
5	30989	307.692422605375	1.0183518450772
5	31095	308.710774450452	0.93575390642927
5	31186	309.646528356881	0.85663206091083
5	31267	310.503160417792	0.67295723276906
5	31318	311.176117650561	1.1851750214849
5	31434	312.361292672046	0.91382681819071
5	31535	313.275119490237	1.1509916291
5	31651	314.426111119337	0.30052472980797
5	31682	314.726635849145	1.1720249861901
5	31823	315.898660835335	2.2345499753055
5	32079	318.13321081064	2.1645390309455
5	32355	320.297749841585	0.51189622637965
5	32395	320.809646067965	2.1891240629343
5	32582	322.998770130899	1.1285834337722
5	32683	324.127353564671	0.078309106205262
5	32684	324.205662670876	1.9705590101858
5	32865	326.176221681062	1.2980383839423
5	32991	327.474260065004	0.92987587751108
5	33047	328.404135942515	2.7542279268675
5	33368	331.158363869383	0.3828403950947
5	33404	331.541204264478	1.3250844439989
5	33540	332.866288708477	3.4938867459945
5	33821	336.360175454471	0.061599735618485
5	33842	336.421775190089	2.1131634687971
5	34063	338.534938658886	0.067082171981821
5	34074	338.602020830868	3.3952023400077
5	34425	341.997223170876	0.37024125531345
5	34446	342.367464426189	0.89237208789531
5	34522	343.259836514084	0.032451361107792
5	34523	343.292287875192	1.2312750777321
5	34664	344.523562952924	4.2142579960896
5	35064	348.737820949014	0.44892884297741
5	35116	349.186749791991	0.38644202535353
5	35162	349.573191817345	2.4074358876939
5	35448	351.980627705039	1.0004647603161
5	35559	352.981092465355	1.5685045591687
5	35739	354.549597024524	0.0920514384065
5	35741	354.64164846293	0.21305785767047
5	35797	354.8547063206	1.3154834276607
5	35933	356.170189748261	0.8153879141786
5	35988	356.98557766244	0.41851076927162
5	36015	357.404088431712	0.99303427505494
5	36096	358.397122706767	1.6661267668894
5	36287	360.063249473656	0.45157217244657
5	36323	360.514821646103	0.30784210062466
5	36379	360.822663746728	0.43481285216115
5	36424	361.257476598889	0.063680036232181
5	36431	361.321156635121	0.77263460230944
5	36506	362.09379123743	0.17689768339003
5	36513	362.27068892082	1.7612097256647
5	36723	364.031898646485	0.048488027981881
5	36725	364.080386674467	1.0690610696997
5	36841	365.149447744167	0.3950932027941
5	36852	365.544540946961	0.62962998551533
5	36923	366.174170932476	3.2210923116866
5	37254	369.395263244163	5.2591406208105
5	37785	374.654403864974	1.1031838714968
5	37866	375.757587736471	0.15129660775832
5	37872	375.908884344229	1.0767586187702
5	38003	376.985642962999	2.248827110344
5	38199	379.234470073343	0.19147599352886
5	38230	379.425946066872	0.098836417670211
5	38241	379.524782484542	0.0019292402378328
5	38242	379.52671172478	1.8379006878069
5	38428	381.364612412587	0.24704126385459
5	38444	381.611653676442	0.50322929026496
5	38490	382.114882966707	0.21870413357134
5	38516	382.333587100278	1.605669921874
5	38647	383.939257022152	1.7967248099108
5	38858	385.735981832063	0.73007452124528
5	38919	386.466056353308	2.8640290704294
5	39205	389.330085423737	1.239000065454
5	39301	390.569085489191	1.6948755915052
5	39457	392.263961080696	2.1758891430452
5	39713	394.439850223741	2.1066870080238
5	39984	396.546537231765	0.99481516737085
5	40085	397.541352399136	1.3004833503584
5	40231	398.841835749494	1.6196735111616

