version 2
run Non-monitoring-3-20210208-19:10:39-19752
attr configname Non-monitoring
attr datetime 20210208-19:10:39
attr experiment Non-monitoring
attr inifile aerocom.ini
attr iterationvars ""
attr iterationvarsf ""
attr measurement ""
attr network Aerocom
attr processid 19752
attr repetition 3
attr replication #3
attr resultdir results
attr runnumber 3
attr seedset 3
param **.t 1s
param **.k 15ms
param **.nA 1
param **.nDL 10
param **.s "70 byte"
param **.X 5s
param **.dimPoolMax 10000
param **.dimPoolMin 8000
param **.tDistribution "\"lognormal\""
param **.m 1s
param **.DLMaxCapacity 0
param **.trasmitting false
param **.operationMode 1

scalar Aerocom.aircraft[0].dataLink[0] sentPackets:count 0
attr source computeSentPackets
scalar Aerocom.aircraft[0].dataLink[0] meanMalus:count 1
attr "" ""
attr source computeMeanMalus
scalar Aerocom.aircraft[0].dataLink[0] actualCapacity:mean 8606.5
attr "" ""
attr source computeActualCapacity
scalar Aerocom.aircraft[0].dataLink[1] sentPackets:count 0
attr source computeSentPackets
scalar Aerocom.aircraft[0].dataLink[1] meanMalus:count 1
attr "" ""
attr source computeMeanMalus
scalar Aerocom.aircraft[0].dataLink[1] actualCapacity:mean 9050.5
attr "" ""
attr source computeActualCapacity
scalar Aerocom.aircraft[0].dataLink[2] sentPackets:count 0
attr source computeSentPackets
scalar Aerocom.aircraft[0].dataLink[2] meanMalus:count 1
attr "" ""
attr source computeMeanMalus
scalar Aerocom.aircraft[0].dataLink[2] actualCapacity:mean 9538
attr "" ""
attr source computeActualCapacity
scalar Aerocom.aircraft[0].dataLink[3] sentPackets:count 0
attr source computeSentPackets
scalar Aerocom.aircraft[0].dataLink[3] meanMalus:count 1
attr "" ""
attr source computeMeanMalus
scalar Aerocom.aircraft[0].dataLink[3] actualCapacity:mean 8458
attr "" ""
attr source computeActualCapacity
scalar Aerocom.aircraft[0].dataLink[4] sentPackets:count 0
attr source computeSentPackets
scalar Aerocom.aircraft[0].dataLink[4] meanMalus:count 1
attr "" ""
attr source computeMeanMalus
scalar Aerocom.aircraft[0].dataLink[4] actualCapacity:mean 8784.5
attr "" ""
attr source computeActualCapacity
scalar Aerocom.aircraft[0].dataLink[5] sentPackets:count 0
attr source computeSentPackets
scalar Aerocom.aircraft[0].dataLink[5] meanMalus:count 1
attr "" ""
attr source computeMeanMalus
scalar Aerocom.aircraft[0].dataLink[5] actualCapacity:mean 8363
attr "" ""
attr source computeActualCapacity
scalar Aerocom.aircraft[0].dataLink[6] sentPackets:count 0
attr source computeSentPackets
scalar Aerocom.aircraft[0].dataLink[6] meanMalus:count 1
attr "" ""
attr source computeMeanMalus
scalar Aerocom.aircraft[0].dataLink[6] actualCapacity:mean 8218
attr "" ""
attr source computeActualCapacity
scalar Aerocom.aircraft[0].dataLink[7] sentPackets:count 0
attr source computeSentPackets
scalar Aerocom.aircraft[0].dataLink[7] meanMalus:count 1
attr "" ""
attr source computeMeanMalus
scalar Aerocom.aircraft[0].dataLink[7] actualCapacity:mean 9587
attr "" ""
attr source computeActualCapacity
scalar Aerocom.aircraft[0].dataLink[8] sentPackets:count 0
attr source computeSentPackets
scalar Aerocom.aircraft[0].dataLink[8] meanMalus:count 1
attr "" ""
attr source computeMeanMalus
scalar Aerocom.aircraft[0].dataLink[8] actualCapacity:mean 8177
attr "" ""
attr source computeActualCapacity
scalar Aerocom.aircraft[0].dataLink[9] sentPackets:count 4047
attr source computeSentPackets
scalar Aerocom.aircraft[0].dataLink[9] meanMalus:count 1
attr "" ""
attr source computeMeanMalus
scalar Aerocom.aircraft[0].dataLink[9] actualCapacity:mean 9030.3156334898
attr "" ""
attr source computeActualCapacity
scalar Aerocom.controlTower receivedPackets:count 4047
attr source computeReceivedPackets

