version 2
run Non-monitoring-5-20210209-17:43:10-29880
attr configname Non-monitoring
attr datetime 20210209-17:43:10
attr experiment Non-monitoring
attr inifile aerocom.ini
attr iterationvars ""
attr iterationvarsf ""
attr measurement ""
attr network Aerocom
attr processid 29880
attr repetition 5
attr replication #5
attr resultdir results
attr runnumber 5
attr seedset 5
param **.t 1s
param **.k 50ms
param **.nA 1
param **.nDL 1
param **.s "70 byte"
param **.X 0s
param **.dimPoolMax 9000
param **.dimPoolMin 9000
param **.tDistribution "\"exponential\""
param **.m 1s
param **.DLMaxCapacity 0
param **.trasmitting false
param **.operationMode 1

vector 0 Aerocom.aircraft[0].packetGenerator arrivalTime:vector ETV
attr "" ""
attr source computeArrivalTime
vector 1 Aerocom.aircraft[0].dataLink[0] queueLength:vector ETV
attr "" ""
attr source computeQueueLength
vector 2 Aerocom.aircraft[0].dataLink[0] waitingTime:vector ETV
attr "" ""
attr source computeWaitingTime
vector 3 Aerocom.aircraft[0].dataLink[0] serviceTime:vector ETV
attr "" ""
attr source computeServiceTime
vector 4 Aerocom.aircraft[0].dataLink[0] responseTime:vector ETV
attr "" ""
attr source computeResponseTime
vector 5 Aerocom.aircraft[0].dataLink[0] tDistribution:vector ETV
attr "" ""
attr source computeTDistribution
0	1059	10.044026519452	0.137649076211
0	1064	10.181675595663	0.058842881286
0	1069	10.240518476949	0.045694638845
0	1074	10.286213115794	0.05647439742
0	1079	10.342687513214	0.007499226821
0	1083	10.350186740035	0.065262609272
0	1089	10.415449349307	0.056718407511
0	1095	10.472167756818	0.004483283156
0	1099	10.476651039974	0.039520257888
0	1105	10.516171297862	0.052596007096
0	1111	10.568767304958	0.000454276749
0	1115	10.569221581707	0.04695862789
0	1121	10.616180209597	0.07453171192
0	1126	10.690711921517	0.019584464969
0	1131	10.710296386486	0.006472671901
0	1135	10.716769058387	0.009201405505
0	1141	10.725970463892	0.036427749299
0	1146	10.762398213191	0.017594025793
0	1151	10.779992238984	0.054793654528
0	1156	10.834785893512	5.4661168e-005
0	1160	10.83484055468	0.071966372505
0	1166	10.906806927185	0.014295132232
0	1171	10.921102059417	0.141408349534
0	1176	11.062510408951	0.058166958352
0	1181	11.120677367303	0.006618749676
0	1185	11.127296116979	0.010944306078
0	1191	11.138240423057	0.011785846591
0	1196	11.150026269648	0.094769898174
0	1201	11.244796167822	0.0227354751
0	1206	11.267531642922	0.09711836323
0	1211	11.364650006152	0.025648771438
0	1216	11.39029877759	0.061394009963
0	1221	11.451692787553	0.044580572158
0	1226	11.496273359711	0.038551606307
0	1231	11.534824966018	0.255094011367
0	1237	11.789918977385	0.001245625126
0	1241	11.791164602511	0.047274247196
0	1248	11.838438849707	0.053859779375
0	1253	11.892298629082	0.057446042777
0	1258	11.949744671859	0.111831816126
0	1263	12.061576487985	0.005057984088
0	1267	12.066634472073	0.012685225109
0	1273	12.079319697182	0.028459974728
0	1278	12.10777967191	0.053868872069
0	1283	12.161648543979	0.006914775948
0	1287	12.168563319927	0.050328685798
0	1293	12.218892005725	0.012129276892
0	1298	12.231021282617	0.081393655706
0	1303	12.312414938323	0.094877985184
0	1308	12.407292923507	0.262145128987
0	1314	12.669438052494	0.023100919709
0	1319	12.692538972203	0.001609960655
0	1323	12.694148932858	0.012952300119
0	1328	12.707101232977	0.032716905893
0	1334	12.73981813887	0.098281593991
0	1339	12.838099732861	0.058732840662
0	1344	12.896832573523	0.0313446423
0	1349	12.928177215823	0.022528988936
0	1354	12.950706204759	0.056678353883
0	1359	13.007384558642	0.009766178294
0	1364	13.017150736936	0.023730790889
0	1369	13.040881527825	0.005783846262
0	1373	13.046665374087	0.063015440531
0	1379	13.109680814618	0.002751304585
0	1383	13.112432119203	0.022708071848
0	1389	13.135140191051	0.038804488495
0	1394	13.173944679546	0.040094767991
0	1399	13.214039447537	0.051306250623
0	1404	13.26534569816	0.044126926804
0	1409	13.309472624964	0.150822235646
0	1414	13.46029486061	0.006130327355
0	1418	13.466425187965	2.9413495e-005
0	1421	13.46645460146	0.008690042816
0	1426	13.475144644276	0.170831235778
0	1434	13.645975880054	0.068410588152
0	1441	13.714386468206	0.016137185343
0	1446	13.730523653549	0.031965317906
0	1451	13.762488971455	0.001290305591
0	1455	13.763779277046	0.049740043779
0	1461	13.813519320825	0.011254973507
0	1466	13.824774294332	0.083569307117
0	1471	13.908343601449	0.047732287994
0	1476	13.956075889443	0.003414001847
0	1480	13.95948989129	0.062538572961
0	1486	14.022028464251	0.017827955757
0	1491	14.039856420008	0.214319141577
0	1496	14.254175561585	0.048852759309
0	1501	14.303028320894	0.030646281698
0	1506	14.333674602592	0.033980711753
0	1511	14.367655314345	0.064838233911
0	1516	14.432493548256	0.077846952866
0	1521	14.510340501122	0.123908867576
0	1526	14.634249368698	0.091252349414
0	1531	14.725501718112	0.021872527138
0	1536	14.74737424525	0.071622500933
0	1541	14.818996746183	0.010050127651
0	1546	14.829046873834	0.006476489704
0	1550	14.835523363538	0.061223375443
0	1556	14.896746738981	0.174900912367
0	1561	15.071647651348	0.040194923193
0	1566	15.111842574541	0.099684931681
0	1571	15.211527506222	0.293712232289
0	1576	15.505239738511	0.005228627872
0	1580	15.510468366383	0.0012692965
0	1583	15.511737662883	0.020977314265
0	1591	15.532714977148	0.154712963662
0	1597	15.68742794081	0.001839789404
0	1601	15.689267730214	0.110691433265
0	1607	15.799959163479	0.044196124383
0	1612	15.844155287862	0.038776160138
0	1617	15.882931448	0.079822505213
0	1622	15.962753953213	0.0439096968
0	1627	16.006663650013	0.173900229789
0	1634	16.180563879802	0.04786180176
0	1639	16.228425681562	0.17289672669
0	1644	16.401322408252	0.01836617654
0	1649	16.419688584792	0.004116363923
0	1653	16.423804948715	0.048172602967
0	1659	16.471977551682	0.010212592485
0	1664	16.482190144167	0.074613712898
0	1669	16.556803857065	0.107508539294
0	1674	16.664312396359	0.143556484204
0	1679	16.807868880563	0.068229330119
0	1684	16.876098210682	0.004372286958
0	1688	16.88047049764	0.009137057203
0	1693	16.889607554843	0.000193435837
0	1696	16.88980099068	0.028858004599
0	1704	16.918658995279	0.011174370405
0	1709	16.929833365684	0.035939398823
0	1714	16.965772764507	0.031770182717
0	1719	16.997542947224	0.012255506658
0	1724	17.009798453882	0.006036810676
0	1728	17.015835264558	0.005359410954
0	1733	17.021194675512	0.03629239444
0	1739	17.057487069952	0.014315146262
0	1744	17.071802216214	0.003437901395
0	1748	17.075240117609	0.169978419542
0	1754	17.245218537151	0.00437913463
0	1758	17.249597671781	0.086255487441
0	1764	17.335853159222	0.066138487311
0	1769	17.401991646533	0.028556755783
0	1774	17.430548402316	0.03287567074
0	1779	17.463424073056	0.087958515051
0	1784	17.551382588107	0.162514133219
0	1789	17.713896721326	0.002435200266
0	1793	17.716331921592	0.069808925261
0	1799	17.786140846853	0.073451905568
0	1804	17.859592752421	0.016439485314
0	1809	17.876032237735	0.16848720689
0	1814	18.044519444625	0.146146779745
0	1819	18.19066622437	0.001567987323
0	1823	18.192234211693	0.200167932366
0	1829	18.392402144059	0.044689295667
0	1834	18.437091439726	0.01515973415
0	1839	18.452251173876	0.068982985734
0	1844	18.52123415961	0.036329002371
0	1849	18.557563161981	0.011059182499
0	1854	18.56862234448	0.01909644762
0	1859	18.5877187921	0.030098277435
0	1864	18.617817069535	0.117097848142
0	1869	18.734914917677	0.014569047207
0	1874	18.749483964884	0.037315459653
0	1879	18.786799424537	0.084983577119
0	1884	18.871783001656	0.023315138909
0	1889	18.895098140565	0.15065491196
0	1894	19.045753052525	0.067135111072
0	1900	19.112888163597	0.01520735061
0	1905	19.128095514207	0.000567484396
0	1909	19.128662998603	0.007149874252
0	1912	19.135812872855	0.022390529985
0	1920	19.15820340284	0.009188458475
0	1925	19.167391861315	0.038051485253
0	1930	19.205443346568	0.026415435164
0	1935	19.231858781732	0.034043941768
0	1940	19.2659027235	0.03310298469
0	1945	19.29900570819	0.003526388236
0	1949	19.302532096426	0.007896546833
0	1954	19.310428643259	0.032206611982
0	1960	19.342635255241	0.063213305987
0	1965	19.405848561228	0.047925417547
0	1970	19.453773978775	0.023090198155
0	1975	19.47686417693	0.056197158847
0	1980	19.533061335777	0.008631246419
0	1985	19.541692582196	0.015455615728
0	1990	19.557148197924	0.046197018117
0	1995	19.603345216041	0.007425602486
0	1999	19.610770818527	0.018708609227
0	2005	19.629479427754	0.107953688383
0	2010	19.737433116137	0.127667041135
0	2015	19.865100157272	0.076589644462
0	2020	19.941689801734	0.073309751868
0	2025	20.014999553602	0.017688591541
0	2030	20.032688145143	0.038916160284
0	2035	20.071604305427	0.039447388487
0	2040	20.111051693914	0.015616791669
0	2045	20.126668485583	0.099189398741
0	2050	20.225857884324	0.066031083848
0	2055	20.291888968172	0.1783645987
0	2061	20.470253566872	0.000367926001
0	2065	20.470621492873	0.027254160974
0	2072	20.497875653847	0.113211768415
0	2077	20.611087422262	0.322747729562
0	2082	20.933835151824	0.011735959939
0	2087	20.945571111763	0.023067139029
0	2092	20.968638250792	0.092044386524
0	2097	21.060682637316	0.012341223925
0	2102	21.073023861241	0.033460462543
0	2107	21.106484323784	0.011890175555
0	2112	21.118374499339	0.107969303498
0	2117	21.226343802837	0.041649639334
0	2122	21.267993442171	0.033477889254
0	2127	21.301471331425	0.006940369954
0	2131	21.308411701379	0.034111405817
0	2138	21.342523107196	0.065022920428
0	2143	21.407546027624	0.011749430883
0	2148	21.419295458507	0.177472198165
0	2153	21.596767656672	0.015203320504
0	2158	21.611970977176	0.135448634247
0	2163	21.747419611423	0.0488353899
0	2168	21.796255001323	0.009442361
0	2173	21.805697362323	0.030365057248
0	2178	21.836062419571	0.047823574413
0	2183	21.883885993984	0.119761567865
0	2188	22.003647561849	0.038199885831
0	2193	22.04184744768	0.040483189832
0	2198	22.082330637512	0.06455817755
0	2203	22.146888815062	0.0607178056
0	2208	22.207606620662	0.06172823911
0	2213	22.269334859772	0.011482920835
0	2218	22.280817780607	0.044444169874
0	2223	22.325261950481	0.015358626235
0	2228	22.340620576716	0.054616926366
0	2233	22.395237503082	0.026976118442
0	2238	22.422213621524	0.027092540858
0	2243	22.449306162382	0.001323558093
0	2247	22.450629720475	0.098532638783
0	2253	22.549162359258	0.061726398338
0	2258	22.610888757596	0.077548646796
0	2263	22.688437404392	0.027217247665
0	2268	22.715654652057	0.04597538101
0	2273	22.761630033067	0.001012311371
0	2277	22.762642344438	0.075766424872
0	2283	22.83840876931	0.056644850051
0	2288	22.895053619361	0.014473573532
0	2293	22.909527192893	0.022701692625
0	2298	22.932228885518	0.006911521592
0	2302	22.93914040711	0.012767168694
0	2308	22.951907575804	0.010598347803
0	2313	22.962505923607	0.035565659875
0	2318	22.998071583482	0.007642916193
0	2322	23.005714499675	0.007799382786
0	2327	23.013513882461	0.011293155851
0	2333	23.024807038312	0.141540902065
0	2338	23.166347940377	0.001271834365
0	2342	23.167619774742	0.000803238951
0	2345	23.168423013693	0.124574716642
0	2353	23.292997730335	0.065078086299
0	2360	23.358075816634	0.043961511687
0	2365	23.402037328321	0.097785542083
0	2370	23.499822870404	0.023653397965
0	2375	23.523476268369	0.103086054845
0	2380	23.626562323214	0.159203659739
0	2385	23.785765982953	0.03758189912
0	2390	23.823347882073	0.080921920711
0	2395	23.904269802784	0.026247138319
0	2400	23.930516941103	0.049192997631
0	2405	23.979709938734	0.067846211175
0	2410	24.047556149909	0.059530028672
0	2415	24.107086178581	0.080576943726
0	2420	24.187663122307	0.090962246031
0	2425	24.278625368338	0.015700106852
0	2430	24.29432547519	0.103679512671
0	2435	24.398004987861	0.015338909717
0	2440	24.413343897578	0.014874545258
0	2445	24.428218442836	0.014235176282
0	2450	24.442453619118	0.067392079716
0	2455	24.509845698834	0.098351848152
0	2460	24.608197546986	0.059848158766
0	2465	24.668045705752	0.147394404438
0	2470	24.81544011019	0.172099957997
0	2475	24.987540068187	0.008362465835
0	2480	24.995902534022	0.027856230216
0	2485	25.023758764238	0.1453762975
0	2490	25.169135061738	0.073506264169
0	2495	25.242641325907	0.034990424582
0	2500	25.277631750489	0.000359620434
0	2504	25.277991370923	0.019455449469
0	2510	25.297446820392	0.065527116427
0	2515	25.362973936819	0.071346832493
0	2520	25.434320769312	0.026955214658
0	2526	25.46127598397	0.129833468236
0	2531	25.591109452206	0.097592750764
0	2536	25.68870220297	0.015090229238
0	2542	25.703792432208	0.081797006431
0	2548	25.785589438639	0.004309714682
0	2552	25.789899153321	0.051548177971
0	2558	25.841447331292	0.002750700594
0	2562	25.844198031886	0.014247708687
0	2568	25.858445740573	0.08177019704
0	2573	25.940215937613	0.012520020538
0	2578	25.952735958151	0.018678610338
0	2583	25.971414568489	0.016830227178
0	2588	25.988244795667	0.052500525165
0	2593	26.040745320832	0.019991623748
0	2598	26.06073694458	0.009402083744
0	2603	26.070139028324	0.004678177173
0	2607	26.074817205497	0.080499623322
0	2613	26.155316828819	0.029279450382
0	2618	26.184596279201	0.025750748263
0	2623	26.210347027464	0.01913735149
0	2628	26.229484378954	0.00311543249
0	2632	26.232599811444	0.098952820035
0	2638	26.331552631479	0.046120447897
0	2643	26.377673079376	0.016910762174
0	2648	26.39458384155	0.009574899174
0	2653	26.404158740724	0.002969604491
0	2657	26.407128345215	0.028067715841
0	2664	26.435196061056	0.117746623246
0	2669	26.552942684302	0.027104119813
0	2674	26.580046804115	0.015248010905
0	2679	26.59529481502	0.131737262323
0	2684	26.727032077343	0.146448410905
0	2689	26.873480488248	0.131809268852
0	2694	27.0052897571	0.015213597406
0	2699	27.020503354506	0.018666247969
0	2704	27.039169602475	0.110765754567
0	2709	27.149935357042	0.014426972674
0	2714	27.164362329716	0.007217941017
0	2718	27.171580270733	0.102257863068
0	2724	27.273838133801	0.06366650627
0	2729	27.337504640071	0.057913155605
0	2734	27.395417795676	0.005913305493
0	2738	27.401331101169	0.019349173204
0	2744	27.420680274373	0.014221285686
0	2749	27.434901560059	0.05534275045
0	2755	27.490244310509	0.04071993592
0	2760	27.530964246429	0.140675226773
0	2765	27.671639473202	0.051929919907
0	2770	27.723569393109	0.083929792284
0	2776	27.807499185393	0.051228990328
0	2781	27.858728175721	0.002944959869
0	2785	27.86167313559	0.097975595262
0	2791	27.959648730852	0.192178456686
0	2796	28.151827187538	0.027010719516
0	2801	28.178837907054	0.115490112158
0	2806	28.294328019212	0.097898019534
0	2811	28.392226038746	0.024938627308
0	2816	28.417164666054	0.014394980542
0	2821	28.431559646596	0.111019636891
0	2826	28.542579283487	0.046286153293
0	2831	28.58886543678	0.032111046091
0	2837	28.620976482871	0.0003469973
0	2841	28.621323480171	0.071293283912
0	2847	28.692616764083	0.012482572273
0	2852	28.705099336356	0.08799412477
0	2858	28.793093461126	0.00720285596
0	2862	28.800296317086	0.007256390398
0	2867	28.807552707484	0.024761076974
0	2873	28.832313784458	0.020177956272
0	2878	28.85249174073	0.04374227634
0	2883	28.89623401707	0.002184891943
0	2887	28.898418909013	0.003671498573
0	2890	28.902090407586	0.003598899082
0	2895	28.905689306668	0.046120729742
0	2903	28.95181003641	0.047984688509
0	2908	28.999794724919	0.008593797005
0	2913	29.008388521924	0.04486021407
0	2918	29.053248735994	0.094938691141
0	2923	29.148187427135	0.163414010844
0	2928	29.311601437979	0.004014508175
0	2932	29.315615946154	0.014430589327
0	2938	29.330046535481	0.005325733141
0	2942	29.335372268622	0.136747596051
0	2948	29.472119864673	0.011804002371
0	2953	29.483923867044	0.032233118046
0	2958	29.51615698509	0.050252871576
0	2963	29.566409856666	0.057340649133
0	2968	29.623750505799	0.029372751503
0	2974	29.653123257302	0.002165439363
0	2978	29.655288696665	0.047779718758
0	2984	29.703068415423	0.163138722581
0	2989	29.866207138004	0.059928938058
0	2994	29.926136076062	0.01236670695
0	2999	29.938502783012	0.067026843421
0	3005	30.005529626433	0.015236483661
0	3010	30.020766110094	0.010725137112
0	3015	30.031491247206	0.073913911568
0	3020	30.105405158774	0.044297873546
0	3025	30.14970303232	0.103595903447
0	3030	30.253298935767	0.048210432162
0	3035	30.301509367929	0.241623110771
0	3040	30.5431324787	0.012204662535
0	3045	30.555337141235	0.06160197485
0	3050	30.616939116085	0.050280349651
0	3056	30.667219465736	0.026702472155
0	3061	30.693921937891	0.032289354063
0	3066	30.726211291954	7.2282645e-005
0	3070	30.726283574599	0.059814343089
0	3076	30.786097917688	0.135176852203
0	3081	30.921274769891	0.002726964178
0	3085	30.924001734069	0.098172614656
0	3091	31.022174348725	0.038038516081
0	3096	31.060212864806	0.003692570049
0	3100	31.063905434855	0.040978479052
0	3106	31.104883913907	0.013525964816
0	3111	31.118409878723	0.083298780325
0	3117	31.201708659048	0.066618423152
0	3122	31.2683270822	0.10313283873
0	3127	31.37145992093	0.015074370055
0	3132	31.386534290985	0.019940207783
0	3137	31.406474498768	0.00917929443
0	3142	31.415653793198	0.168828719772
0	3149	31.58448251297	0.183817392755
0	3154	31.768299905725	0.002018308838
0	3158	31.770318214563	0.02485220256
0	3164	31.795170417123	0.001593009198
0	3168	31.796763426321	0.01847304403
0	3175	31.815236470351	0.04916288499
0	3180	31.864399355341	0.01302964218
0	3185	31.877428997521	0.013350304093
0	3190	31.890779301614	0.003156344754
0	3194	31.893935646368	0.074778234773
0	3200	31.968713881141	0.03160484031
0	3205	32.000318721451	0.014784118364
0	3210	32.015102839815	0.00120236343
0	3214	32.016305203245	0.066066119448
0	3220	32.082371322693	0.063321105908
0	3225	32.145692428601	0.015857969512
0	3230	32.161550398113	0.022993384674
0	3235	32.184543782787	0.00906156961
0	3240	32.193605352397	0.040068890705
0	3245	32.233674243102	0.017832323045
0	3250	32.251506566147	0.094846934215
0	3255	32.346353500362	0.143856536549
0	3261	32.490210036911	0.037827542752
0	3266	32.528037579663	0.031255782617
0	3271	32.55929336228	0.276914218788
0	3276	32.836207581068	0.014504902781
0	3281	32.850712483849	0.127547096748
0	3286	32.978259580597	0.062041208566
0	3291	33.040300789163	0.039355886482
0	3296	33.079656675645	0.049373250758
0	3301	33.129029926403	0.059539912706
0	3306	33.188569839109	0.037021087025
0	3311	33.225590926134	0.088721203151
0	3317	33.314312129285	0.051740204143
0	3322	33.366052333428	0.012400720515
0	3327	33.378453053943	0.066984808052
0	3332	33.445437861995	0.028822006335
0	3337	33.47425986833	0.054551982777
0	3342	33.528811851107	0.107831845225
0	3347	33.636643696332	0.01541003834
0	3352	33.652053734672	0.002558310344
0	3356	33.654612045016	0.012135910438
0	3361	33.666747955454	0.038486872257
0	3367	33.705234827711	0.006146578274
0	3371	33.711381405985	0.014693808796
0	3377	33.726075214781	0.040743750183
0	3382	33.766818964964	0.025403616599
0	3387	33.792222581563	0.070217365007
0	3392	33.86243994657	0.013224559384
0	3397	33.875664505954	0.067569769988
0	3402	33.943234275942	0.047375426647
0	3407	33.990609702589	0.003499810674
0	3411	33.994109513263	0.088428782718
0	3418	34.082538295981	0.062453884628
0	3423	34.144992180609	0.129307681469
0	3428	34.274299862078	0.007371139732
0	3432	34.28167100181	0.008059000521
0	3437	34.289730002331	0.118256061762
0	3443	34.407986064093	0.122582200379
0	3449	34.530568264472	0.019392186109
0	3454	34.549960450581	0.074001376926
0	3460	34.623961827507	0.043337318178
0	3465	34.667299145685	0.075690503232
0	3470	34.742989648917	0.067432112747
0	3475	34.810421761664	0.075819418911
0	3480	34.886241180575	0.052488070525
0	3485	34.9387292511	0.015903845082
0	3490	34.954633096182	0.167866723681
0	3495	35.122499819863	0.019115585926
0	3500	35.141615405789	0.053357856295
0	3505	35.194973262084	0.030647045438
0	3510	35.225620307522	0.033103086392
0	3515	35.258723393914	0.004332632809
0	3519	35.263056026723	0.051295393524
0	3525	35.314351420247	0.035965139539
0	3530	35.350316559786	0.050754559589
0	3535	35.401071119375	0.052335063254
0	3540	35.453406182629	0.012899675494
0	3545	35.466305858123	0.00886448548
0	3550	35.475170343603	0.023657020606
0	3555	35.498827364209	0.002970395567
0	3559	35.501797759776	0.08053422219
0	3565	35.582331981966	0.10551215134
0	3570	35.687844133306	0.059590572188
0	3575	35.747434705494	0.037658055478
0	3580	35.785092760972	0.093245237433
0	3585	35.878337998405	0.016525484113
0	3590	35.894863482518	0.035843693622
0	3595	35.93070717614	0.075716565177
0	3600	36.006423741317	0.059155454764
0	3605	36.065579196081	0.037000181649
0	3610	36.10257937773	0.014456797366
0	3615	36.117036175096	0.032804732625
0	3621	36.149840907721	0.000316380468
0	3625	36.150157288189	0.007545647506
0	3630	36.157702935695	0.029259661107
0	3636	36.186962596802	0.013646263466
0	3641	36.200608860268	0.063801073161
0	3646	36.264409933429	0.01962123089
0	3651	36.284031164319	0.021909053966
0	3656	36.305940218285	0.060096925229
0	3661	36.366037143514	0.003915113913
0	3665	36.369952257427	0.013390396144
0	3671	36.383342653571	0.084864140588
0	3676	36.468206794159	0.028551993768
0	3681	36.496758787927	0.069772680655
0	3687	36.566531468582	0.154145811484
0	3692	36.720677280066	0.161555181596
0	3697	36.882232461662	0.164151336074
0	3702	37.046383797736	0.083664247791
0	3708	37.130048045527	0.016065092965
0	3713	37.146113138492	0.016893253907
0	3718	37.163006392399	0.07251201647
0	3723	37.235518408869	0.169547499794
0	3728	37.405065908663	0.134716582469
0	3733	37.539782491132	0.04460506727
0	3739	37.584387558402	0.037333681256
0	3744	37.621721239658	0.052952491611
0	3749	37.674673731269	0.05032489115
0	3754	37.724998622419	0.120641310227
0	3760	37.845639932646	0.033246307335
0	3765	37.878886239981	0.191929460973
0	3770	38.070815700954	0.014871964115
0	3775	38.085687665069	0.000292503261
0	3779	38.08598016833	0.032055254845
0	3786	38.118035423175	0.040822996836
0	3791	38.158858420011	0.074115354565
0	3796	38.232973774576	0.077238241511
0	3802	38.310212016087	0.069858360795
0	3807	38.380070376882	0.00820570369
0	3812	38.388276080572	0.014829457954
0	3817	38.403105538526	0.07563500845
0	3822	38.478740546976	0.070495353759
0	3827	38.549235900735	0.022870128753
0	3832	38.572106029488	0.022599126092
0	3837	38.59470515558	0.006682326973
0	3841	38.601387482553	0.00376202613
0	3846	38.605149508683	0.055607239854
0	3852	38.660756748537	0.0825182873
0	3857	38.743275035837	0.066791671749
0	3862	38.810066707586	0.137831702954
0	3867	38.94789841054	0.02412071131
0	3872	38.97201912185	0.004878350764
0	3876	38.976897472614	0.063532997326
0	3882	39.04043046994	0.236406758509
0	3887	39.276837228449	0.07769057485
0	3893	39.354527803299	0.023225134938
0	3898	39.377752938237	0.036384865382
0	3904	39.414137803619	0.114205376456
0	3909	39.528343180075	0.014068322639
0	3914	39.542411502714	0.053092090728
0	3919	39.595503593442	0.059496505186
0	3924	39.655000098628	0.073253521795
0	3929	39.728253620423	0.009550368853
0	3934	39.737803989276	0.009257936885
0	3939	39.747061926161	0.020070324629
0	3944	39.76713225079	0.056581958283
0	3949	39.823714209073	0.179198797067
0	3954	40.00291300614	0.034620963828
0	3959	40.037533969968	0.014276019085
0	3964	40.051809989053	0.019698548347
0	3969	40.0715085374	0.040315900484
0	3974	40.111824437884	0.0086211943
0	3979	40.120445632184	0.016841472603
0	3985	40.137287104787	0.121254378319
0	3990	40.258541483106	0.060245558109
0	3995	40.318787041215	0.052793920551
0	4000	40.371580961766	0.046902699895
0	4005	40.418483661661	0.06936624119
0	4010	40.487849902851	0.049762843359
0	4015	40.53761274621	0.056488408107
0	4020	40.594101154317	0.049044766689
0	4025	40.643145921006	0.011152487977
0	4030	40.654298408983	0.026949898704
0	4035	40.681248307687	0.174143176741
0	4040	40.855391484428	0.125904361901
0	4045	40.981295846329	0.025480278034
0	4050	41.006776124363	0.002198423587
0	4054	41.00897454795	0.021618495349
0	4060	41.030593043299	0.043018549344
0	4065	41.073611592643	0.019602328506
0	4070	41.093213921149	0.050045209276
0	4075	41.143259130425	0.094086864993
0	4080	41.237345995418	0.043632374699
0	4085	41.280978370117	0.024195712767
0	4090	41.305174082884	0.017615051532
0	4095	41.322789134416	0.033140793321
0	4100	41.355929927737	0.035237260813
0	4105	41.39116718855	0.001415891412
0	4109	41.392583079962	0.005981105173
0	4112	41.398564185135	0.006675445391
0	4118	41.405239630526	0.017089237102
0	4126	41.422328867628	0.002545720455
0	4130	41.424874588083	0.01318342115
0	4136	41.438058009233	0.022260394406
0	4141	41.460318403639	0.011951461117
0	4146	41.472269864756	0.075864875775
0	4151	41.548134740531	0.002769345416
0	4155	41.550904085947	0.00577918391
0	4160	41.556683269857	0.060129771031
0	4166	41.616813040888	0.086748773316
0	4171	41.703561814204	0.05098970914
0	4176	41.754551523344	0.010249308767
0	4181	41.764800832111	0.115704240768
0	4186	41.880505072879	0.01499364279
0	4191	41.895498715669	0.079882394483
0	4196	41.975381110152	0.084477052741
0	4201	42.059858162893	0.057609888235
0	4206	42.117468051128	0.000809014342
0	4210	42.11827706547	0.064897862323
0	4216	42.183174927793	0.000222067427
0	4220	42.18339699522	0.141958782741
0	4226	42.325355777961	0.100981605532
0	4231	42.426337383493	0.001174194252
0	4235	42.427511577745	0.020947842317
0	4241	42.448459420062	0.023584718051
0	4246	42.472044138113	0.080084981348
0	4251	42.552129119461	0.118892411472
0	4256	42.671021530933	0.000710907498
0	4260	42.671732438431	0.098813873043
0	4266	42.770546311474	0.049524963905
0	4271	42.820071275379	0.064616446443
0	4277	42.884687721822	0.072336144419
0	4282	42.957023866241	0.019523831494
0	4287	42.976547697735	0.000387319891
0	4291	42.976935017626	0.029907303253
0	4297	43.006842320879	0.024353886281
0	4302	43.03119620716	0.076520138682
0	4307	43.107716345842	0.015922781557
0	4312	43.123639127399	0.027328100476
0	4317	43.150967227875	0.067418548222
0	4323	43.218385776097	0.002445919448
0	4327	43.220831695545	0.135283441034
0	4333	43.356115136579	0.211388113326
0	4339	43.567503249905	0.1380378631
0	4345	43.705541113005	0.038700442118
0	4350	43.744241555123	0.000194731975
0	4354	43.744436287098	0.037110364702
0	4360	43.7815466518	0.003434211491
0	4364	43.784980863291	0.019746962292
0	4370	43.804727825583	0.001070475599
0	4374	43.805798301182	0.022703449111
0	4380	43.828501750293	0.08289947133
0	4385	43.911401221623	0.2189949884
0	4390	44.130396210023	0.050492912861
0	4395	44.180889122884	0.006360232492
0	4399	44.187249355376	0.003766408513
0	4404	44.191015763889	0.109656277405
0	4410	44.300672041294	0.054254970272
0	4416	44.354927011566	0.078507888751
0	4421	44.433434900317	0.03622326914
0	4426	44.469658169457	0.123332473768
0	4431	44.592990643225	0.018917185147
0	4436	44.611907828372	0.168325073111
0	4441	44.780232901483	0.063258740868
0	4446	44.843491642351	0.071180464853
0	4451	44.914672107204	0.098862994342
0	4456	45.013535101546	0.036070944305
0	4461	45.049606045851	7.6587451e-005
0	4465	45.049682633302	0.025037276629
0	4471	45.074719909931	0.003754728844
0	4475	45.078474638775	0.027098418282
0	4481	45.105573057057	0.008886420952
0	4486	45.114459478009	0.025813263443
0	4491	45.140272741452	0.066553909851
0	4496	45.206826651303	0.025378496012
0	4501	45.232205147315	0.018300743313
0	4506	45.250505890628	0.072106513946
0	4511	45.322612404574	0.040637901622
0	4516	45.363250306196	0.102885903729
0	4521	45.466136209925	0.129081925322
0	4526	45.595218135247	0.142863072656
0	4531	45.738081207903	0.013001253587
0	4536	45.75108246149	0.015515461008
0	4541	45.766597922498	0.026373148339
0	4546	45.792971070837	0.060312405053
0	4551	45.85328347589	0.027785795844
0	4556	45.881069271734	0.002243872086
0	4560	45.88331314382	0.06857294376
0	4566	45.95188608758	0.031798078554
0	4571	45.983684166134	0.079982728068
0	4576	46.063666894202	0.007338136736
0	4580	46.071005030938	0.061110119839
0	4587	46.132115150777	0.013609747337
0	4592	46.145724898114	0.043046406172
0	4597	46.188771304286	0.097624102056
0	4602	46.286395406342	0.218539350333
0	4607	46.504934756675	0.024192672787
0	4612	46.529127429462	0.052967063057
0	4617	46.582094492519	0.062569650996
0	4622	46.644664143515	0.008400303112
0	4627	46.653064446627	0.054124312763
0	4632	46.70718875939	0.005958281868
0	4636	46.713147041258	0.051037097891
0	4642	46.764184139149	0.041897562097
0	4647	46.806081701246	0.026788224319
0	4652	46.832869925565	0.009528909591
0	4657	46.842398835156	0.009867904361
0	4662	46.852266739517	0.007206767027
0	4666	46.859473506544	0.16814110723
0	4672	47.027614613774	0.017196292179
0	4677	47.044810905953	0.043398378693
0	4682	47.088209284646	0.018456925026
0	4687	47.106666209672	0.133826359088
0	4692	47.24049256876	0.100919215589
0	4697	47.341411784349	0.103366122344
0	4702	47.444777906693	0.004080611689
0	4706	47.448858518382	0.137885127677
0	4712	47.586743646059	0.208550387707
0	4718	47.795294033766	0.10080794655
0	4723	47.896101980316	0.05687221899
0	4728	47.952974199306	0.010489978638
0	4733	47.963464177944	0.013057597284
0	4738	47.976521775228	0.063769732812
0	4743	48.04029150804	0.023298681098
0	4748	48.063590189138	0.196341179252
0	4753	48.25993136839	0.002573941604
0	4757	48.262505309994	0.11577344767
0	4763	48.378278757664	0.021431393927
0	4768	48.399710151591	0.245519375978
0	4774	48.645229527569	0.106642817028
0	4779	48.751872344597	0.007735723214
0	4783	48.759608067811	0.087667111178
0	4789	48.847275178989	0.029589364462
0	4794	48.876864543451	0.009196548933
0	4799	48.886061092384	0.054168258861
0	4804	48.940229351245	0.025943418663
0	4809	48.966172769908	0.019391770252
0	4814	48.98556454016	0.045027934765
0	4819	49.030592474925	0.082016663326
0	4824	49.112609138251	0.046069831508
0	4829	49.158678969759	0.007734849379
0	4833	49.166413819138	0.055532244001
0	4839	49.221946063139	0.03238421735
0	4844	49.254330280489	0.094247191375
0	4849	49.348577471864	0.057305746232
0	4854	49.405883218096	0.072457291437
0	4860	49.478340509533	0.010500123456
0	4865	49.488840632989	0.045553849659
0	4870	49.534394482648	0.025629738965
0	4876	49.560024221613	0.010182016835
0	4881	49.570206238448	0.012723074434
0	4886	49.582929312882	0.004474559308
0	4890	49.58740387219	0.076344426849
0	4897	49.663748299039	0.116508084608
0	4902	49.780256383647	0.013636202758
0	4907	49.793892586405	0.038823178261
0	4912	49.832715764666	0.081739034768
0	4917	49.914454799434	0.101994330246
0	4922	50.01644912968	0.056714204289
0	4927	50.073163333969	0.029658629825
0	4932	50.102821963794	0.005140899747
0	4936	50.107962863541	0.01385513829
0	4942	50.121818001831	0.048118226981
0	4947	50.169936228812	0.022818407152
0	4952	50.192754635964	0.077806936049
0	4957	50.270561572013	0.0215921181
0	4962	50.292153690113	0.012752730915
0	4967	50.304906421028	0.056983048029
0	4972	50.361889469057	0.063978080064
0	4978	50.425867549121	0.014092979296
0	4983	50.439960528417	0.034698096767
0	4988	50.474658625184	0.031189581279
0	4993	50.505848206463	0.045345977254
0	4998	50.551194183717	0.074319353059
0	5003	50.625513536776	0.016480385436
0	5008	50.641993922212	0.020338013975
0	5013	50.662331936187	0.04525540835
0	5018	50.707587344537	0.080278400244
0	5023	50.787865744781	0.065409228764
0	5029	50.853274973545	0.083012122665
0	5034	50.93628709621	0.003548459569
0	5038	50.939835555779	0.024653760237
0	5044	50.964489316016	0.068140855048
0	5050	51.032630171064	0.040206261469
0	5055	51.072836432533	0.000997325027
0	5059	51.07383375756	0.044817666941
0	5065	51.118651424501	0.033339479561
0	5070	51.151990904062	0.012410888479
0	5075	51.164401792541	0.016921083824
0	5080	51.181322876365	0.004416564458
0	5084	51.185739440823	0.09057054987
0	5090	51.276309990693	0.033012469585
0	5095	51.309322460278	0.021611322654
0	5100	51.330933782932	0.026056388194
0	5105	51.356990171126	0.00299485136
0	5109	51.359985022486	0.088672961613
0	5115	51.448657984099	0.014897107553
0	5120	51.463555091652	0.005439579386
0	5124	51.468994671038	0.012733333235
0	5130	51.481728004273	0.092953477943
0	5135	51.574681482216	0.067741091882
0	5140	51.642422574098	0.095587821174
0	5145	51.738010395272	0.008074168279
0	5150	51.746084563551	0.008990064556
0	5155	51.755074628107	0.006385234483
0	5159	51.76145986259	0.002942258453
0	5164	51.764402121043	0.048406019795
0	5171	51.812808140838	0.041182762111
0	5176	51.853990902949	0.002824962595
0	5180	51.856815865544	0.03241444219
0	5186	51.889230307734	0.140985905337
0	5191	52.030216213071	0.033804298221
0	5196	52.064020511292	0.006858994137
0	5200	52.070879505429	0.018864079915
0	5206	52.089743585344	0.008900171916
0	5211	52.09864375726	0.022118621884
0	5216	52.120762379144	0.004321895631
0	5220	52.125084274775	0.008545027921
0	5225	52.133629302696	0.018914914047
0	5231	52.152544216743	0.106361980537
0	5236	52.25890619728	0.063699522711
0	5241	52.322605719991	0.004251773088
0	5245	52.326857493079	0.019215573688
0	5251	52.346073066767	0.00380100297
0	5255	52.349874069737	0.087813740885
0	5261	52.437687810622	0.030559124166
0	5266	52.468246934788	0.003130392389
0	5270	52.471377327177	0.001000246103
0	5273	52.47237757328	0.015344393571
0	5280	52.487721966851	0.001721974715
0	5283	52.489443941566	0.003530364783
0	5288	52.492974306349	0.015803060438
0	5295	52.508777366787	0.041213598532
0	5301	52.549990965319	0.035579631908
0	5306	52.585570597227	0.017355382621
0	5311	52.602925979848	0.043639351961
0	5316	52.646565331809	0.045240005552
0	5321	52.691805337361	0.007862538033
0	5326	52.699667875394	0.000219085676
0	5330	52.69988696107	0.041366056303
0	5336	52.741253017373	0.03713969962
0	5341	52.778392716993	0.011875519629
0	5346	52.790268236622	0.016226449092
0	5351	52.806494685714	0.151514293033
0	5357	52.958008978747	0.086182786976
0	5362	53.044191765723	0.009533790186
0	5367	53.053725555909	0.000951107955
0	5371	53.054676663864	0.014027833168
0	5376	53.068704497032	0.010297239323
0	5382	53.079001736355	0.022622941677
0	5387	53.101624678032	0.114978208954
0	5392	53.216602886986	0.17369203195
0	5397	53.390294918936	0.03249559897
0	5402	53.422790517906	0.003615703831
0	5406	53.426406221737	0.002518305253
0	5409	53.42892452699	0.00419159113
0	5414	53.43311611812	0.005131676874
0	5417	53.438247794994	0.031416647329
0	5427	53.469664442323	0.020874076992
0	5432	53.490538519315	0.035252770532
0	5437	53.525791289847	0.020291638336
0	5442	53.546082928183	0.068330224865
0	5447	53.614413153048	0.00323257563
0	5451	53.617645728678	0.024967604019
0	5457	53.642613332697	0.124675072694
0	5462	53.767288405391	0.056426934884
0	5467	53.823715340275	0.009797843745
0	5472	53.83351318402	0.105527985316
0	5477	53.939041169336	0.032042540933
0	5482	53.971083710269	0.106406675112
0	5487	54.077490385381	0.036407357191
0	5492	54.113897742572	0.032788139781
0	5497	54.146685882353	0.087910735091
0	5502	54.234596617444	0.104219687103
0	5507	54.338816304547	0.018540295151
0	5512	54.357356599698	0.013368360211
0	5517	54.370724959909	0.004009889019
0	5521	54.374734848928	0.083643095269
0	5527	54.458377944197	0.022505652881
0	5532	54.480883597078	0.04688281458
0	5537	54.527766411658	0.104435989553
0	5543	54.632202401211	0.040977046752
0	5549	54.673179447963	0.08868437814
0	5554	54.761863826103	0.013854504471
0	5559	54.775718330574	0.024370555558
0	5564	54.800088886132	0.016029879139
0	5569	54.816118765271	0.053879317593
0	5574	54.869998082864	0.000471184339
0	5578	54.870469267203	0.070303386176
0	5585	54.940772653379	0.00542363204
0	5589	54.946196285419	0.053204358794
0	5595	54.999400644213	0.002461751222
0	5599	55.001862395435	0.031474104215
0	5605	55.03333649965	0.006247246853
0	5609	55.039583746503	0.03500316808
0	5615	55.074586914583	0.028971141684
0	5620	55.103558056267	0.026023296112
0	5625	55.129581352379	0.046326351902
0	5630	55.175907704281	0.054409241577
0	5635	55.230316945858	0.004621802155
0	5639	55.234938748013	0.013552121006
0	5645	55.248490869019	0.022876920834
0	5650	55.271367789853	0.00301833142
0	5654	55.274386121273	0.028010442727
0	5660	55.302396564	0.073287559743
0	5665	55.375684123743	0.016080117975
0	5670	55.391764241718	0.105967980903
0	5675	55.497732222621	0.078980721798
0	5681	55.576712944419	0.009229252813
0	5686	55.585942197232	0.000518901994
0	5690	55.586461099226	0.002026948938
0	5693	55.588488048164	0.0234383859
0	5701	55.611926434064	0.021221973264
0	5706	55.633148407328	0.033492884723
0	5711	55.666641292051	0.085565868392
0	5716	55.752207160443	0.036195236748
0	5721	55.788402397191	0.002294421238
0	5725	55.790696818429	0.106964179664
0	5731	55.897660998093	0.021705038198
0	5736	55.919366036291	0.034509905229
0	5741	55.95387594152	0.014888334772
0	5746	55.968764276292	0.027457550581
0	5751	55.996221826873	7.9040796e-005
0	5755	55.996300867669	0.029507186099
0	5761	56.025808053768	0.021195713103
0	5766	56.047003766871	0.046963862296
0	5771	56.093967629167	0.109155844691
0	5776	56.203123473858	0.069688726057
0	5781	56.272812199915	0.009153168723
0	5786	56.281965368638	0.034901585155
0	5791	56.316866953793	0.055209841031
0	5796	56.372076794824	0.038172664761
0	5801	56.410249459585	0.01340117457
0	5806	56.423650634155	0.028291369807
0	5811	56.451942003962	0.112525037681
0	5816	56.564467041643	0.042677527979
0	5821	56.607144569622	0.049215647819
0	5826	56.656360217441	0.044882284113
0	5831	56.701242501554	0.006808410384
0	5835	56.708050911938	0.050998921432
0	5841	56.75904983337	0.023187736016
0	5846	56.782237569386	0.014590116056
0	5851	56.796827685442	0.035710526301
0	5856	56.832538211743	0.074424851599
0	5861	56.906963063342	0.011906508816
0	5866	56.918869572158	0.030670256863
0	5871	56.949539829021	0.06504060828
0	5876	57.014580437301	0.023328667574
0	5881	57.037909104875	0.129062367821
0	5886	57.166971472696	0.085993831484
0	5891	57.25296530418	0.001270641416
0	5895	57.254235945596	0.005595399653
0	5898	57.259831345249	0.019598866159
0	5906	57.279430211408	0.03140001475
0	5911	57.310830226158	0.044674439172
0	5916	57.35550466533	0.011877174015
0	5921	57.367381839345	0.171145405389
0	5926	57.538527244734	0.007335917045
0	5930	57.545863161779	0.000928420093
0	5935	57.546791581872	0.000612677501
0	5938	57.547404259373	0.010605608305
0	5943	57.558009867678	0.031389645275
0	5951	57.589399512953	0.005241214678
0	5955	57.594640727631	0.036093962235
0	5961	57.630734689866	0.001066244978
0	5965	57.631800934844	0.004290189676
0	5968	57.63609112452	0.171144693
0	5976	57.80723581752	0.026714565335
0	5981	57.833950382855	0.081457083648
0	5986	57.915407466503	0.002101531241
0	5990	57.917508997744	0.044171459417
0	5996	57.961680457161	0.063892189567
0	6001	58.025572646728	0.18633465221
0	6006	58.211907298938	0.022167532547
0	6011	58.234074831485	0.125653477659
0	6016	58.359728309144	0.055739915664
0	6021	58.415468224808	0.034447397856
0	6026	58.449915622664	0.056916948807
0	6031	58.506832571471	0.027614406746
0	6036	58.534446978217	0.04115428891
0	6041	58.575601267127	0.014487345156
0	6046	58.590088612283	0.007739816129
0	6050	58.597828428412	0.029681371668
0	6056	58.62750980008	0.035514747311
0	6061	58.663024547391	0.048990551319
0	6066	58.71201509871	0.000882380198
0	6070	58.712897478908	0.114204713042
0	6077	58.82710219195	0.09342133811
0	6082	58.92052353006	0.184185471036
0	6087	59.104709001096	0.06075100172
0	6092	59.165460002816	0.008584525448
0	6097	59.174044528264	0.065210078076
0	6102	59.23925460634	0.010939522548
0	6107	59.250194128888	0.020371018578
0	6112	59.270565147466	0.010719245026
0	6117	59.281284392492	0.053790141498
0	6122	59.33507453399	0.07063617659
0	6127	59.40571071058	0.055949071955
0	6132	59.461659782535	0.053509473121
0	6137	59.515169255656	0.049120638924
0	6142	59.56428989458	0.06333655201
0	6147	59.62762644659	0.004046946705
0	6151	59.631673393295	0.052433916011
0	6157	59.684107309306	0.00348070509
0	6161	59.687588014396	0.087310799495
0	6167	59.774898813891	0.034695112168
0	6172	59.809593926059	0.007335241883
0	6176	59.816929167942	0.002089917482
0	6181	59.819019085424	0.017080746088
0	6187	59.836099831512	0.008651010086
0	6192	59.844750841598	0.005205866051
0	6196	59.849956707649	0.031284108386
0	6202	59.881240816035	0.065888668486
0	6207	59.947129484521	0.004526711527
0	6211	59.951656196048	0.015556733494
0	6217	59.967212929542	0.019175189371
0	6222	59.986388118913	0.09414568477
0	6227	60.080533803683	0.022677568335
0	6232	60.103211372018	0.005363105447
0	6236	60.108574477465	0.021767700558
0	6242	60.130342178023	0.055035209152
0	6247	60.185377387175	0.001721311301
0	6251	60.187098698476	0.044908682521
0	6257	60.232007380997	0.009480238035
0	6262	60.241487619032	0.04535880045
0	6267	60.286846419482	0.003593753811
0	6271	60.290440173293	0.018900290628
0	6277	60.309340463921	0.058984479193
0	6282	60.368324943114	0.03666356843
0	6287	60.404988511544	0.04620431552
0	6292	60.451192827064	0.063282110915
0	6297	60.514474937979	0.040991773058
0	6302	60.555466711037	0.045430814991
0	6307	60.600897526028	0.010065244351
0	6312	60.610962770379	0.014239645869
0	6317	60.625202416248	0.011099566948
0	6322	60.636301983196	0.091729439414
0	6327	60.72803142261	0.056107737551
0	6332	60.784139160161	0.052578859777
0	6337	60.836718019938	0.040087380203
0	6342	60.876805400141	0.039494968345
0	6347	60.916300368486	0.001291442289
0	6351	60.917591810775	0.003942903818
0	6354	60.921534714593	0.113917780225
0	6363	61.035452494818	0.041735157647
0	6368	61.077187652465	0.020198822934
0	6373	61.097386475399	0.144543379374
0	6378	61.241929854773	0.00680713907
0	6382	61.248736993843	0.033344928329
0	6388	61.282081922172	0.005413464056
0	6392	61.287495386228	0.056611216597
0	6398	61.344106602825	0.042779714775
0	6403	61.3868863176	0.007445072152
0	6407	61.394331389752	0.041478717997
0	6413	61.435810107749	0.006311900861
0	6417	61.44212200861	0.003496767504
0	6422	61.445618776114	0.00025469217
0	6425	61.445873468284	0.018151812195
0	6432	61.464025280479	0.022182047891
0	6438	61.48620732837	0.025981325522
0	6443	61.512188653892	0.045339289197
0	6448	61.557527943089	0.104588239572
0	6453	61.662116182661	0.028109104962
0	6458	61.690225287623	0.134002235509
0	6463	61.824227523132	0.097883766039
0	6468	61.922111289171	0.029887889783
0	6473	61.951999178954	0.005810678729
0	6477	61.957809857683	0.060200145559
0	6483	62.018010003242	0.021621823553
0	6488	62.039631826795	0.023851204675
0	6493	62.06348303147	0.012779834607
0	6498	62.076262866077	0.085329896684
0	6503	62.161592762761	0.096694927617
0	6508	62.258287690378	0.008312222938
0	6513	62.266599913316	0.020584988936
0	6518	62.287184902252	0.05723446838
0	6523	62.344419370632	0.00384856872
0	6527	62.348267939352	0.005085783248
0	6532	62.3533537226	0.000867135746
0	6535	62.354220858346	0.020702331392
0	6542	62.374923189738	0.030044247796
0	6548	62.404967437534	0.027624812906
0	6553	62.43259225044	0.044010007564
0	6558	62.476602258004	0.005031341792
0	6562	62.481633599796	0.037100047698
0	6568	62.518733647494	0.104381178749
0	6573	62.623114826243	0.023887708584
0	6578	62.647002534827	0.067545891235
0	6584	62.714548426062	0.145725529791
0	6589	62.860273955853	0.008122063211
0	6594	62.868396019064	0.117585342089
0	6599	62.985981361153	0.042957754133
0	6604	63.028939115286	0.025628830667
0	6609	63.054567945953	0.015459763647
0	6614	63.0700277096	0.086255314406
0	6619	63.156283024006	0.030400119333
0	6624	63.186683143339	0.011220822888
0	6629	63.197903966227	0.066920787553
0	6634	63.26482475378	0.023785062033
0	6639	63.288609815813	0.02093472705
0	6644	63.309544542863	0.011061551354
0	6649	63.320606094217	0.109905202001
0	6654	63.430511296218	0.023941399062
0	6659	63.45445269528	0.026056604284
0	6664	63.480509299564	0.01043783459
0	6669	63.490947134154	0.106339519278
0	6674	63.597286653432	0.044563495016
0	6679	63.641850148448	0.00667628482
0	6683	63.648526433268	0.003679315639
0	6688	63.652205748907	0.004529910071
0	6691	63.656735658978	0.079454666142
0	6699	63.73619032512	0.03165488962
0	6704	63.76784521474	0.022455659085
0	6709	63.790300873825	0.02296022784
0	6714	63.813261101665	0.046854843024
0	6719	63.860115944689	0.030417211295
0	6724	63.890533155984	0.023695588195
0	6729	63.914228744179	0.089977919479
0	6734	64.004206663658	0.011771411529
0	6739	64.015978075187	0.050585363378
0	6744	64.066563438565	0.030818348383
0	6749	64.097381786948	0.005350849356
0	6753	64.102732636304	0.104974265836
0	6759	64.20770690214	0.046638740808
0	6764	64.254345642948	0.046700007677
0	6769	64.301045650625	0.02613970186
0	6775	64.327185352485	0.032047603639
0	6780	64.359232956124	0.054459411126
0	6785	64.41369236725	0.0400610395
0	6790	64.45375340675	0.009699482261
0	6795	64.463452889011	0.020072754238
0	6800	64.483525643249	0.006635874309
0	6804	64.490161517558	0.068655916839
0	6810	64.558817434397	0.077530563167
0	6815	64.636347997564	0.107018769414
0	6821	64.743366766978	0.03616320658
0	6827	64.779529973558	0.012532872963
0	6832	64.792062846521	0.009606456192
0	6837	64.801669302713	0.123076667165
0	6842	64.924745969878	0.00605732849
0	6846	64.930803298368	0.03756760311
0	6852	64.968370901478	0.010173990808
0	6857	64.978544892286	0.003553729558
0	6861	64.982098621844	0.034614246931
0	6867	65.016712868775	0.04008566994
0	6872	65.056798538715	0.01789736812
0	6877	65.074695906835	0.111681300942
0	6882	65.186377207777	0.019654617302
0	6887	65.206031825079	0.09778746836
0	6892	65.303819293439	0.001827120804
0	6896	65.305646414243	0.038223895566
0	6902	65.343870309809	0.00315307583
0	6906	65.347023385639	0.064778316701
0	6913	65.41180170234	0.030793815954
0	6918	65.442595518294	0.011624563731
0	6923	65.454220082025	0.041168998828
0	6928	65.495389080853	0.03961479636
0	6933	65.535003877213	0.011259286081
0	6938	65.546263163294	0.039421417381
0	6943	65.585684580675	0.019489028812
0	6948	65.605173609487	0.04376903063
0	6953	65.648942640117	0.016695915269
0	6958	65.665638555386	0.001495837455
0	6962	65.667134392841	0.095168994013
0	6968	65.762303386854	0.028678892287
0	6973	65.790982279141	0.000299166742
0	6977	65.791281445883	0.02842129324
0	6983	65.819702739123	0.069176568613
0	6988	65.888879307736	0.122448467994
0	6993	66.01132777573	0.034221629441
0	6998	66.045549405171	0.012509055038
0	7003	66.058058460209	0.085032600636
0	7008	66.143091060845	0.032761240326
0	7013	66.175852301171	0.054237456956
0	7018	66.230089758127	0.067110364876
0	7023	66.297200123003	0.010548523628
0	7028	66.307748646631	0.026341119873
0	7033	66.334089766504	0.007383398132
0	7037	66.341473164636	0.070514578434
0	7043	66.41198774307	0.067553627851
0	7048	66.479541370921	0.03227554723
0	7053	66.511816918151	0.114304297794
0	7058	66.626121215945	0.095751662429
0	7063	66.721872878374	0.12108469132
0	7068	66.842957569694	0.225578452556
0	7073	67.06853602225	0.065957362404
0	7078	67.134493384654	0.022581108749
0	7083	67.157074493403	0.029579304298
0	7088	67.186653797701	0.031191392791
0	7093	67.217845190492	0.000859243161
0	7097	67.218704433653	0.085407987237
0	7103	67.30411242089	0.026377390072
0	7108	67.330489810962	0.032156013762
0	7113	67.362645824724	0.240820741185
0	7118	67.603466565909	0.103553195458
0	7123	67.707019761367	0.070584835616
0	7128	67.777604596983	0.013132172646
0	7133	67.790736769629	0.034511712766
0	7138	67.825248482395	0.044293068671
0	7143	67.869541551066	0.067849131507
0	7148	67.937390682573	0.116670014099
0	7153	68.054060696672	0.164609714315
0	7158	68.218670410987	0.011145275556
0	7163	68.229815686543	0.083937946381
0	7168	68.313753632924	0.03011319941
0	7173	68.343866832334	0.006001567885
0	7177	68.349868400219	0.016021933601
0	7183	68.36589033382	0.07055191015
0	7188	68.43644224397	0.019606272986
0	7193	68.456048516956	0.071194092015
0	7198	68.527242608971	0.030741581848
0	7203	68.557984190819	0.018975665909
0	7208	68.576959856728	0.01721032568
0	7213	68.594170182408	0.04362915363
0	7219	68.637799336038	0.009572440505
0	7224	68.647371776543	0.003420084675
0	7228	68.650791861218	0.059714077908
0	7234	68.710505939126	0.016006795
0	7239	68.726512734126	0.018709116046
0	7244	68.745221850172	0.007875081726
0	7249	68.753096931898	0.018908993893
0	7254	68.772005925791	0.115672511562
0	7259	68.887678437353	0.07127917041
0	7264	68.958957607763	0.057067451776
0	7269	69.016025059539	0.024629958459
0	7274	69.040655017998	0.285713383439
0	7279	69.326368401437	0.075944396356
0	7284	69.402312797793	0.11297624145
0	7289	69.515289039243	0.020530393076
0	7294	69.535819432319	0.012298103127
0	7299	69.548117535446	0.003476021844
0	7303	69.55159355729	0.101488342689
0	7309	69.653081899979	0.00174397602
0	7313	69.654825875999	0.005506831058
0	7316	69.660332707057	0.131628974243
0	7324	69.7919616813	0.002583925682
0	7328	69.794545606982	0.001059162703
0	7331	69.795604769685	0.001314324853
0	7334	69.796919094538	0.116036412978
0	7344	69.912955507516	0.052238605522
0	7349	69.965194113038	0.023463969167
0	7354	69.988658082205	0.106935360982
0	7360	70.095593443187	0.069796445643
0	7365	70.16538988883	0.016269008437
0	7370	70.181658897267	0.073676734678
0	7375	70.255335631945	0.005534547549
0	7379	70.260870179494	0.134228289952
0	7385	70.395098469446	0.016600547854
0	7390	70.4116990173	0.007526974643
0	7394	70.419225991943	0.271847666411
0	7400	70.691073658354	0.050679126786
0	7405	70.74175278514	0.025310203055
0	7410	70.767062988195	0.002879738329
0	7414	70.769942726524	0.019817765744
0	7420	70.789760492268	0.089504665643
0	7425	70.879265157911	0.03451348046
0	7430	70.913778638371	0.088678201801
0	7435	71.002456840172	0.087581314727
0	7440	71.090038154899	0.004350954922
0	7444	71.094389109821	0.029362075565
0	7450	71.123751185386	0.218608910165
0	7457	71.342360095551	0.013788910472
0	7462	71.356149006023	0.045194065682
0	7467	71.401343071705	0.004725477795
0	7471	71.4060685495	0.002209665575
0	7474	71.408278215075	0.097366639989
0	7482	71.505644855064	0.080171372159
0	7487	71.585816227223	0.14793722182
0	7492	71.733753449043	0.007535501945
0	7496	71.741288950988	0.013510049484
0	7502	71.754799000472	0.008201204775
0	7507	71.763000205247	0.115141500783
0	7512	71.87814170603	0.026025651142
0	7517	71.904167357172	0.07255617113
0	7522	71.976723528302	0.061722986598
0	7527	72.0384465149	0.001972015838
0	7531	72.040418530738	0.018577165053
0	7537	72.058995695791	0.00047294027
0	7541	72.059468636061	0.027849557305
0	7547	72.087318193366	0.175847881591
0	7552	72.263166074957	0.043519477067
0	7557	72.306685552024	0.007834959415
0	7562	72.314520511439	0.026049802037
0	7567	72.340570313476	0.024366770928
0	7572	72.364937084404	0.000398607409
0	7576	72.365335691813	0.011578167485
0	7581	72.376913859298	0.012628411684
0	7587	72.389542270982	0.037921498313
0	7592	72.427463769295	4.1761467e-005
0	7596	72.427505530762	0.036127157479
0	7602	72.463632688241	0.012205353054
0	7608	72.475838041295	0.008862525255
0	7613	72.48470056655	0.067481986429
0	7618	72.552182552979	0.034840170486
0	7623	72.587022723465	0.046469461431
0	7628	72.633492184896	0.013497858316
0	7633	72.646990043212	0.167644143315
0	7638	72.814634186527	0.013755572837
0	7643	72.828389759364	0.137690684834
0	7648	72.966080444198	0.103830251447
0	7653	73.069910695645	0.072330061856
0	7658	73.142240757501	0.02521165889
0	7663	73.167452416391	0.010929756302
0	7668	73.178382172693	0.00674317921
0	7672	73.185125351903	0.170895204133
0	7678	73.356020556036	0.128523627613
0	7683	73.484544183649	0.013757882059
0	7688	73.498302065708	0.029051290305
0	7693	73.527353356013	0.00148713532
0	7697	73.528840491333	0.040242981014
0	7703	73.569083472347	0.064878538167
0	7708	73.633962010514	0.14162991218
0	7713	73.775591922694	0.108506866811
0	7718	73.884098789505	0.017955662047
0	7723	73.902054451552	0.019645491669
0	7728	73.921699943221	0.008591835405
0	7733	73.930291778626	0.033084059458
0	7738	73.963375838084	0.008739686396
0	7743	73.97211552448	0.024623947687
0	7748	73.996739472167	0.013543175944
0	7753	74.010282648111	0.020028501019
0	7758	74.03031114913	0.18855197183
0	7763	74.21886312096	0.010260894144
0	7768	74.229124015104	0.074794934066
0	7774	74.30391894917	0.099288714282
0	7779	74.403207663452	0.02969611642
0	7784	74.432903779872	0.012217443848
0	7789	74.44512122372	0.008008430505
0	7794	74.453129654225	0.0369339978
0	7799	74.490063652025	0.068351166327
0	7804	74.558414818352	0.048555772148
0	7809	74.6069705905	0.042735235443
0	7814	74.649705825943	0.046071283405
0	7819	74.695777109348	0.052534874041
0	7824	74.748311983389	0.006978502902
0	7828	74.755290486291	0.021200403287
0	7834	74.776490889578	0.01252439527
0	7839	74.789015284848	0.019781520082
0	7844	74.80879680493	0.065498760702
0	7849	74.874295565632	0.165297797486
0	7854	75.039593363118	0.014135770309
0	7859	75.053729133427	0.045408504579
0	7864	75.099137638006	0.034548590351
0	7869	75.133686228357	0.054874624343
0	7874	75.1885608527	0.030399903732
0	7879	75.218960756432	0.020940596652
0	7884	75.239901353084	0.280475105556
0	7889	75.52037645864	0.091757047119
0	7895	75.612133505759	0.040841442642
0	7901	75.652974948401	0.055424393139
0	7906	75.70839934154	0.008609466659
0	7911	75.717008808199	0.023995734148
0	7916	75.741004542347	0.006926002104
0	7920	75.747930544451	0.025691427812
0	7926	75.773621972263	0.148872699299
0	7931	75.922494671562	0.02510969364
0	7936	75.947604365202	0.034636960473
0	7941	75.982241325675	0.177039873425
0	7946	76.1592811991	0.024065388746
0	7951	76.183346587846	0.015742639401
0	7956	76.199089227247	0.005350609403
0	7960	76.20443983665	0.070935284036
0	7966	76.275375120686	0.001335353713
0	7970	76.276710474399	0.010790524349
0	7975	76.287500998748	0.025025194268
0	7981	76.312526193016	0.114599782736
0	7986	76.427125975752	0.016125703901
0	7991	76.443251679653	0.027275831469
0	7996	76.470527511122	0.115347412639
0	8001	76.585874923761	0.0358300056
0	8006	76.621704929361	0.048145332021
0	8011	76.669850261382	0.052194490272
0	8016	76.722044751654	0.004179068289
0	8020	76.726223819943	0.008992917386
0	8025	76.735216737329	0.011550066677
0	8031	76.746766804006	0.025205854946
0	8036	76.771972658952	0.06984161575
0	8041	76.841814274702	0.02095996723
0	8046	76.862774241932	0.02252832904
0	8051	76.885302570972	0.108092029712
0	8056	76.993394600684	0.052779809213
0	8061	77.046174409897	0.015765969127
0	8066	77.061940379024	0.009463874789
0	8071	77.071404253813	0.020440513826
0	8076	77.091844767639	0.014341536495
0	8081	77.106186304134	0.064024773838
0	8086	77.170211077972	0.066771089731
0	8091	77.236982167703	0.052913605167
0	8096	77.28989577287	0.122419206752
0	8101	77.412314979622	0.027240885279
0	8106	77.439555864901	0.058200532166
0	8111	77.497756397067	0.03361003324
0	8116	77.531366430307	0.132048092519
0	8121	77.663414522826	0.044637807101
0	8126	77.708052329927	0.036337657087
0	8131	77.744389987014	0.101043068864
0	8137	77.845433055878	0.059765427981
0	8142	77.905198483859	0.019102525982
0	8147	77.924301009841	0.010978103396
0	8152	77.935279113237	0.01702770507
0	8157	77.952306818307	0.01137395819
0	8162	77.963680776497	0.055521562673
0	8167	78.01920233917	0.109840858019
0	8173	78.129043197189	0.024741218642
0	8178	78.153784415831	0.029867377543
0	8183	78.183651793374	0.047486171173
0	8189	78.231137964547	0.026554335913
0	8194	78.25769230046	0.019908694333
0	8199	78.277600994793	0.032451105517
0	8204	78.31005210031	0.031539897047
0	8209	78.341591997357	0.05553304558
0	8215	78.397125042937	0.05477318912
0	8220	78.451898232057	0.016429942697
0	8225	78.468328174754	0.07020663016
0	8230	78.538534804914	0.028281326965
0	8235	78.566816131879	0.060324690374
0	8240	78.627140822253	0.046341459118
0	8245	78.673482281371	0.206645474031
0	8250	78.880127755402	0.063096386225
0	8255	78.943224141627	0.014405976854
0	8260	78.957630118481	0.001902068749
0	8264	78.95953218723	0.06585409941
0	8270	79.02538628664	0.006399769456
0	8274	79.031786056096	0.012247150134
0	8280	79.04403320623	0.144834731665
0	8285	79.188867937895	0.045817908281
0	8290	79.234685846176	0.021530335524
0	8295	79.2562161817	0.068540164568
0	8300	79.324756346268	0.012198053293
0	8305	79.336954399561	0.038358638057
0	8310	79.375313037618	0.012186838495
0	8315	79.387499876113	0.011814036382
0	8320	79.399313912495	0.094912637439
0	8325	79.494226549934	0.069723177749
0	8330	79.563949727683	0.064808549457
0	8335	79.62875827714	0.151447330277
0	8340	79.780205607417	0.021367408274
0	8345	79.801573015691	0.011058428245
0	8350	79.812631443936	0.032180922672
0	8355	79.844812366608	0.027210570411
0	8360	79.872022937019	0.026084147381
0	8366	79.8981070844	0.069556130016
0	8371	79.967663214416	0.024906894326
0	8376	79.992570108742	0.099690920141
0	8381	80.092261028883	0.131214730381
0	8386	80.223475759264	0.030903183039
0	8391	80.254378942303	0.006989261632
0	8395	80.261368203935	0.049575579595
0	8401	80.31094378353	0.078663574548
0	8406	80.389607358078	0.009997860111
0	8411	80.399605218189	0.071084672971
0	8416	80.47068989116	0.007154553493
0	8420	80.477844444653	0.020891700334
0	8426	80.498736144987	0.041118747803
0	8431	80.53985489279	0.017223263142
0	8436	80.557078155932	0.181300402186
0	8441	80.738378558118	0.160796967734
0	8446	80.899175525852	0.048946547866
0	8451	80.948122073718	0.033287899429
0	8456	80.981409973147	0.06678520094
0	8461	81.048195174087	0.05764238688
0	8466	81.105837560967	0.113727451867
0	8471	81.219565012834	0.078052202908
0	8476	81.297617215742	0.002238021518
0	8480	81.29985523726	0.17025638099
0	8486	81.47011161825	0.012808852176
0	8491	81.482920470426	0.057524804743
0	8496	81.540445275169	0.052006619461
0	8501	81.59245189463	0.008101806062
0	8506	81.600553700692	0.076827539064
0	8511	81.677381239756	0.013249540512
0	8516	81.690630780268	0.03484015803
0	8521	81.725470938298	0.006578988972
0	8525	81.73204992727	0.00032750779
0	8528	81.73237743506	0.070668917478
0	8536	81.803046352538	0.006679971961
0	8540	81.809726324499	0.117866168155
0	8546	81.927592492654	0.00088760866
0	8550	81.928480101314	0.019120208406
0	8556	81.94760030972	0.013107593557
0	8561	81.960707903277	0.122564305191
0	8566	82.083272208468	0.061382065889
0	8571	82.144654274357	0.032505346117
0	8576	82.177159620474	0.015991743788
0	8581	82.193151364262	0.078463351317
0	8586	82.271614715579	0.102654205372
0	8591	82.374268920951	0.05939670768
0	8596	82.433665628631	0.01887417727
0	8602	82.452539805901	0.067516528144
0	8607	82.520056334045	0.001295292677
0	8611	82.521351626722	0.060502905532
0	8617	82.581854532254	0.014005513367
0	8622	82.595860045621	0.037238089133
0	8627	82.633098134754	0.03507398075
0	8632	82.668172115504	0.085992254826
0	8637	82.75416437033	0.017940841604
0	8642	82.772105211934	0.052232069526
0	8647	82.82433728146	0.051858150921
0	8652	82.876195432381	0.067624286491
0	8657	82.943819718872	0.00121471675
0	8661	82.945034435622	0.04315593107
0	8667	82.988190366692	0.050078476471
0	8672	83.038268843163	0.045835352738
0	8677	83.084104195901	0.02094253376
0	8682	83.105046729661	0.018628478087
0	8687	83.123675207748	0.001103450262
0	8691	83.12477865801	0.020184698648
0	8697	83.144963356658	0.122093550117
0	8702	83.267056906775	0.042856612168
0	8707	83.309913518943	0.146554705538
0	8712	83.456468224481	0.03583614831
0	8717	83.492304372791	0.03725315205
0	8722	83.529557524841	0.049853163114
0	8727	83.579410687955	0.097263621221
0	8732	83.676674309176	0.012325805446
0	8737	83.689000114622	0.029788105513
0	8742	83.718788220135	0.02859142247
0	8747	83.747379642605	0.106072513341
0	8752	83.853452155946	0.104705663178
0	8757	83.958157819124	0.000409902499
0	8761	83.958567721623	0.028439234856
0	8767	83.987006956479	0.081407931738
0	8772	84.068414888217	0.055652298981
0	8777	84.124067187198	0.087388612247
0	8782	84.211455799445	0.017413487108
0	8787	84.228869286553	0.019618582709
0	8792	84.248487869262	0.174051769592
0	8798	84.422539638854	0.182784452744
0	8803	84.605324091598	0.072882842282
0	8808	84.67820693388	0.258452482561
0	8813	84.936659416441	0.056596810559
0	8818	84.993256227	0.020796647853
0	8823	85.014052874853	0.00212362682
0	8827	85.016176501673	0.028041067313
0	8833	85.044217568986	0.059028942295
0	8838	85.103246511281	0.038357984534
0	8843	85.141604495815	0.014289563017
0	8848	85.155894058832	0.026614158939
0	8853	85.182508217771	0.072863966176
0	8858	85.255372183947	0.009831854726
0	8863	85.265204038673	0.056537284259
0	8868	85.321741322932	0.081402494119
0	8873	85.403143817051	0.075928906505
0	8878	85.479072723556	0.059769871695
0	8883	85.538842595251	0.032259512713
0	8888	85.571102107964	0.049115853244
0	8893	85.620217961208	0.380439802956
0	8898	86.000657764164	0.003188105055
0	8902	86.003845869219	0.048695905355
0	8908	86.052541774574	0.04590343629
0	8913	86.098445210864	0.022984879096
0	8918	86.12143008996	0.033418551278
0	8923	86.154848641238	0.013887308087
0	8929	86.168735949325	0.040076112418
0	8934	86.208812061743	0.019280755666
0	8939	86.228092817409	0.179376545137
0	8944	86.407469362546	0.034774044976
0	8949	86.442243407522	0.074604699031
0	8954	86.516848106553	0.029372090772
0	8959	86.546220197325	0.00789366143
0	8964	86.554113858755	0.16517653238
0	8969	86.719290391135	0.065684043906
0	8974	86.784974435041	0.084152520765
0	8979	86.869126955806	0.002328747516
0	8983	86.871455703322	0.022434333357
0	8989	86.893890036679	0.01147158021
0	8994	86.905361616889	0.004938771761
0	8998	86.91030038865	0.032837409939
0	9004	86.943137798589	0.029541736512
0	9009	86.972679535101	0.021617401041
0	9014	86.994296936142	0.006957635351
0	9018	87.001254571493	0.000322644151
0	9021	87.001577215644	0.082011762864
0	9029	87.083588978508	0.009349712945
0	9034	87.092938691453	0.1670239986
0	9039	87.259962690053	0.093272804126
0	9044	87.353235494179	0.069565349494
0	9049	87.422800843673	0.014624119078
0	9054	87.437424962751	0.067912988919
0	9059	87.50533795167	0.002326858951
0	9063	87.507664810621	0.081518203322
0	9069	87.589183013943	0.02671548805
0	9074	87.615898501993	0.010925378586
0	9079	87.626823880579	0.023282865612
0	9084	87.650106746191	0.020953091182
0	9089	87.671059837373	0.074234898753
0	9094	87.745294736126	0.006907575207
0	9098	87.752202311333	0.022054074789
0	9104	87.774256386122	0.033833350808
0	9109	87.80808973693	0.019182156843
0	9114	87.827271893773	0.04063050806
0	9119	87.867902401833	0.022850830862
0	9124	87.890753232695	0.002204961616
0	9128	87.892958194311	0.022957458449
0	9134	87.91591565276	0.094265279943
0	9140	88.010180932703	0.008170176197
0	9145	88.0183511089	0.063852833978
0	9150	88.082203942878	0.073570982592
0	9155	88.15577492547	0.024819763142
0	9160	88.180594688612	0.062093452512
0	9167	88.242688141124	0.064018662502
0	9172	88.306706803626	0.134326796856
0	9177	88.441033600482	0.044590944757
0	9182	88.485624545239	0.029100422375
0	9187	88.514724967614	0.073132739193
0	9192	88.587857706807	0.016857104796
0	9197	88.604714811603	0.038116054392
0	9202	88.642830865995	0.000930471439
0	9206	88.643761337434	0.005374754515
0	9209	88.649136091949	0.016461393767
0	9216	88.665597485716	0.098004256274
0	9222	88.76360174199	0.017525389763
0	9227	88.781127131753	0.017863374179
0	9232	88.798990505932	0.013434487663
0	9237	88.812424993595	0.028228538477
0	9242	88.840653532072	0.04877722297
0	9247	88.889430755042	0.013389055427
0	9252	88.902819810469	0.046011628899
0	9257	88.948831439368	0.028839621869
0	9262	88.977671061237	0.024719859849
0	9267	89.002390921086	0.003955150169
0	9271	89.006346071255	0.038864817279
0	9277	89.045210888534	0.03313995339
0	9282	89.078350841924	0.064878952406
0	9287	89.14322979433	0.001248288452
0	9291	89.144478082782	0.07106126026
0	9297	89.215539343042	0.037470134761
0	9302	89.253009477803	0.175530224854
0	9307	89.428539702657	0.106344478775
0	9312	89.534884181432	0.016755475702
0	9317	89.551639657134	0.06708638122
0	9322	89.618726038354	0.02436722777
0	9327	89.643093266124	0.004710399942
0	9331	89.647803666066	0.072828385399
0	9337	89.720632051465	0.016343330427
0	9342	89.736975381892	0.025955073549
0	9347	89.762930455441	0.015111478373
0	9352	89.778041933814	0.023819374589
0	9357	89.801861308403	0.021639222733
0	9362	89.823500531136	0.1194288576
0	9367	89.942929388736	0.001348212823
0	9371	89.944277601559	0.008520430527
0	9376	89.952798032086	0.041635474323
0	9383	89.994433506409	0.059241228173
0	9388	90.053674734582	0.066500409617
0	9393	90.120175144199	0.051998910199
0	9398	90.172174054398	0.016227438426
0	9403	90.188401492824	0.01816917729
0	9408	90.206570670114	0.041624389566
0	9413	90.24819505968	0.074271194723
0	9418	90.322466254403	0.04441679293
0	9423	90.366883047333	0.096767042336
0	9428	90.463650089669	0.070118847298
0	9434	90.533768936967	0.058010944298
0	9439	90.591779881265	0.009944179718
0	9444	90.601724060983	0.077567086548
0	9449	90.679291147531	0.089217032591
0	9454	90.768508180122	0.015747284435
0	9459	90.784255464557	0.029773417064
0	9464	90.814028881621	0.022516773442
0	9470	90.836545655063	0.023999223365
0	9475	90.860544878428	0.0017320283
0	9479	90.862276906728	0.026536136489
0	9485	90.888813043217	0.066851717487
0	9490	90.955664760704	0.062969345763
0	9495	91.018634106467	0.016219108149
0	9500	91.034853214616	0.057567091924
0	9505	91.09242030654	0.053462288776
0	9510	91.145882595316	0.007458045142
0	9514	91.153340640458	0.008318034851
0	9520	91.161658675309	0.005740167937
0	9524	91.167398843246	0.01574964606
0	9530	91.183148489306	0.016680548747
0	9535	91.199829038053	0.019526266931
0	9540	91.219355304984	0.084726087231
0	9545	91.304081392215	0.093564400789
0	9551	91.397645793004	0.028403622565
0	9556	91.426049415569	0.018014087576
0	9561	91.444063503145	0.032438196573
0	9566	91.476501699718	0.040540796952
0	9571	91.51704249667	0.218969379454
0	9576	91.736011876124	0.000258165797
0	9580	91.736270041921	0.046986187016
0	9586	91.783256228937	0.102130130354
0	9591	91.885386359291	0.012456332929
0	9596	91.89784269222	0.063062372474
0	9601	91.960905064694	0.052383222262
0	9606	92.013288286956	0.067299227496
0	9611	92.080587514452	0.093188565786
0	9616	92.173776080238	0.133728788166
0	9621	92.307504868404	0.220262413479
0	9626	92.527767281883	0.070975772783
0	9631	92.598743054666	0.02150809284
0	9636	92.620251147506	0.026917628926
0	9641	92.647168776432	0.070883812285
0	9646	92.718052588717	0.027249216404
0	9651	92.745301805121	0.005596018094
0	9655	92.750897823215	0.026366302717
0	9661	92.777264125932	0.011470152937
0	9666	92.788734278869	0.162152598061
0	9671	92.95088687693	0.123042129407
0	9676	93.073929006337	0.005151215067
0	9680	93.079080221404	0.031310108125
0	9686	93.110390329529	0.081527370063
0	9691	93.191917699592	0.007415770453
0	9695	93.199333470045	0.112891315108
0	9701	93.312224785153	0.238892979482
0	9706	93.551117764635	0.149585352972
0	9711	93.700703117607	0.010264387955
0	9716	93.710967505562	0.163435948805
0	9721	93.874403454367	0.001101304372
0	9725	93.875504758739	0.080171186664
0	9731	93.955675945403	0.040938847747
0	9736	93.99661479315	0.014724156367
0	9741	94.011338949517	0.01991620884
0	9746	94.031255158357	0.020485668728
0	9751	94.051740827085	0.03871977717
0	9756	94.090460604255	0.016589401138
0	9761	94.107050005393	0.026069890165
0	9766	94.133119895558	0.057670166684
0	9771	94.190790062242	0.027970570695
0	9776	94.218760632937	0.001402556054
0	9780	94.220163188991	0.019537675622
0	9786	94.239700864613	0.01742832911
0	9791	94.257129193723	0.0105974786
0	9796	94.267726672323	0.051289812038
0	9801	94.319016484361	0.024121935768
0	9806	94.343138420129	0.101778501404
0	9812	94.444916921533	0.00845738946
0	9817	94.453374310993	0.134203632657
0	9822	94.58757794365	0.003055666335
0	9826	94.590633609985	0.032601818638
0	9832	94.623235428623	0.07898402655
0	9837	94.702219455173	0.123452274895
0	9842	94.825671730068	0.006077789378
0	9846	94.831749519446	0.016013985139
0	9852	94.847763504585	0.044900383029
0	9857	94.892663887614	0.132730943002
0	9862	95.025394830616	0.054770651359
0	9867	95.080165481975	0.000147438592
0	9871	95.080312920567	0.048926550261
0	9877	95.129239470828	0.013960996444
0	9882	95.143200467272	0.021485242149
0	9887	95.164685709421	0.101881424625
0	9893	95.266567134046	0.049570190488
0	9898	95.316137324534	0.056989224915
0	9903	95.373126549449	0.017054974786
0	9908	95.390181524235	0.02349801028
0	9913	95.413679534515	0.000188815334
0	9917	95.413868349849	0.023603756331
0	9923	95.43747210618	0.030158696403
0	9928	95.467630802583	0.023000304093
0	9933	95.490631106676	0.020569074194
0	9938	95.51120018087	0.109894556302
0	9944	95.621094737172	0.092317518886
0	9949	95.713412256058	0.09937294736
0	9954	95.812785203418	0.052547446636
0	9959	95.865332650054	0.107810869165
0	9964	95.973143519219	0.016225523485
0	9969	95.989369042704	0.057379432408
0	9974	96.046748475112	0.124108861935
0	9979	96.170857337047	0.019532965833
0	9984	96.19039030288	0.032003455995
0	9989	96.222393758875	0.052203421869
0	9995	96.274597180744	0.052190434644
0	10000	96.326787615388	0.006443158091
0	10004	96.333230773479	0.017813299488
0	10010	96.351044072967	0.059281556592
0	10015	96.410325629559	0.007601860963
0	10019	96.417927490522	0.005079439428
0	10024	96.42300692995	0.017062291024
0	10030	96.440069220974	0.025566874129
0	10035	96.465636095103	0.100036635071
0	10040	96.565672730174	0.024723746775
0	10045	96.590396476949	0.017921226043
0	10050	96.608317702992	0.017611523904
0	10055	96.625929226896	0.011903953166
0	10060	96.637833180062	0.053214478162
0	10065	96.691047658224	0.050989011077
0	10070	96.742036669301	0.046958110807
0	10075	96.788994780108	0.022699436032
0	10080	96.81169421614	0.043635432729
0	10085	96.855329648869	0.018111723734
0	10090	96.873441372603	0.152445602343
0	10096	97.025886974946	0.035521956024
0	10101	97.06140893097	0.142508517773
0	10107	97.203917448743	0.001297665705
0	10111	97.205215114448	0.003581622633
0	10114	97.208796737081	0.042892992975
0	10122	97.251689730056	0.109143480899
0	10127	97.360833210955	0.106154505346
0	10132	97.466987716301	0.155948389672
0	10137	97.622936105973	0.035594465682
0	10142	97.658530571655	0.081313695397
0	10147	97.739844267052	0.014651102591
0	10152	97.754495369643	0.044698302201
0	10157	97.799193671844	0.093162065964
0	10162	97.892355737808	0.002781185001
0	10166	97.895136922809	0.086847707842
0	10172	97.981984630651	0.001839711031
0	10176	97.983824341682	0.036385895903
0	10182	98.020210237585	0.071514089693
0	10187	98.091724327278	0.00046191493
0	10191	98.092186242208	0.014778561942
0	10196	98.10696480415	0.042109349681
0	10202	98.149074153831	0.094655078421
0	10207	98.243729232252	0.029516134818
0	10212	98.27324536707	0.014163923853
0	10217	98.287409290923	0.052918519806
0	10222	98.340327810729	0.068527334633
0	10227	98.408855145362	0.005756344676
0	10231	98.414611490038	0.060793135733
0	10237	98.475404625771	0.044126553388
0	10242	98.519531179159	0.025566035458
0	10247	98.545097214617	0.042963563036
0	10252	98.588060777653	0.020779696313
0	10257	98.608840473966	0.081192044602
0	10262	98.690032518568	0.08351469332
0	10267	98.773547211888	0.018620211877
0	10272	98.792167423765	0.053376269267
0	10277	98.845543693032	0.02575037725
0	10282	98.871294070282	0.004741113653
0	10286	98.876035183935	0.146424626763
0	10292	99.022459810698	0.066950665308
0	10297	99.089410476006	0.002986135273
0	10301	99.092396611279	0.08397125141
0	10307	99.176367862689	0.157899256084
0	10312	99.334267118773	0.018376897855
0	10317	99.352644016628	0.029535219576
0	10322	99.382179236204	0.095689766263
0	10327	99.477869002467	0.074766909038
0	10332	99.552635911505	0.014289431499
0	10337	99.566925343004	0.024064066698
0	10342	99.590989409702	0.134467778917
0	10348	99.725457188619	0.059196354423
0	10353	99.784653543042	0.098965060342
0	10358	99.883618603384	0.017046937663
0	10363	99.900665541047	0.158518168718
0	10368	100.059183709765	0.086239326774
0	10373	100.145423036539	0.04518836506
0	10378	100.190611401599	0.006189781216
0	10382	100.196801182815	0.052675491278
0	10388	100.249476674093	0.099104958217
0	10393	100.34858163231	0.041298843655
0	10398	100.389880475965	0.004544834217
0	10402	100.394425310182	0.002977810509
0	10405	100.397403120691	0.019274786733
0	10413	100.416677907424	0.04912873568
0	10418	100.465806643104	0.074678555651
0	10423	100.540485198755	0.128273691013
0	10428	100.668758889768	0.057480652631
0	10433	100.726239542399	0.144021988217
0	10438	100.870261530616	0.029194680629
0	10443	100.899456211245	0.02829390629
0	10448	100.927750117535	0.004233530216
0	10452	100.931983647751	0.001299966918
0	10455	100.933283614669	0.043832896288
0	10463	100.977116510957	0.021816595514
0	10468	100.998933106471	0.003241241503
0	10472	101.002174347974	0.02493732625
0	10478	101.027111674224	0.009297590441
0	10483	101.036409264665	0.061028532055
0	10488	101.09743779672	0.045595704498
0	10493	101.143033501218	0.038719134946
0	10498	101.181752636164	0.050128344499
0	10503	101.231880980663	0.144412337495
0	10508	101.376293318158	0.053943486045
0	10513	101.430236804203	0.14586672011
0	10518	101.576103524313	0.045677190639
0	10523	101.621780714952	0.015044779617
0	10528	101.636825494569	0.129550484978
0	10533	101.766375979547	0.002790281397
0	10537	101.769166260944	0.055516146503
0	10543	101.824682407447	0.01903907803
0	10548	101.843721485477	0.129404190277
0	10553	101.973125675754	0.084487828568
0	10558	102.057613504322	0.002058273246
0	10562	102.059671777568	0.051412650926
0	10568	102.111084428494	0.010149004133
0	10573	102.121233432627	0.046313586365
0	10578	102.167547018992	0.001508606207
0	10582	102.169055625199	0.001734938838
0	10585	102.170790564037	0.042596715106
0	10593	102.213387279143	0.013877554877
0	10598	102.22726483402	0.048046940041
0	10603	102.275311774061	0.103331938095
0	10608	102.378643712156	0.065830356085
0	10613	102.444474068241	0.028935660818
0	10618	102.473409729059	0.113874041921
0	10623	102.58728377098	0.004844032007
0	10627	102.592127802987	0.014771424444
0	10633	102.606899227431	0.025427707675
0	10638	102.632326935106	0.092438887346
0	10643	102.724765822452	0.046783981321
0	10648	102.771549803773	0.021365716966
0	10653	102.792915520739	0.008478273089
0	10658	102.801393793828	0.067145849676
0	10663	102.868539643504	0.018283052281
0	10668	102.886822695785	0.015699877294
0	10673	102.902522573079	0.009969267738
0	10678	102.912491840817	0.070832804504
0	10683	102.983324645321	0.034056517429
0	10688	103.01738116275	0.018622302166
0	10693	103.036003464916	0.018785010473
0	10698	103.054788475389	0.033263378463
0	10703	103.088051853852	0.037631723182
0	10708	103.125683577034	0.112850321998
0	10713	103.238533899032	0.025689412443
0	10718	103.264223311475	0.008507764065
0	10723	103.27273107554	0.079307946356
0	10728	103.352039021896	0.004977517405
0	10732	103.357016539301	0.020297209946
0	10738	103.377313749247	0.009633610332
0	10743	103.386947359579	0.066388783304
0	10748	103.453336142883	0.051475308794
0	10753	103.504811451677	0.129325028408
0	10758	103.634136480085	0.023337000994
0	10763	103.657473481079	0.135687560479
0	10768	103.793161041558	0.123581669301
0	10775	103.916742710859	0.042337700596
0	10781	103.959080411455	0.036634565054
0	10786	103.995714976509	0.00255391137
0	10790	103.998268887879	0.01668020701
0	10796	104.014949094889	0.095431268031
0	10801	104.11038036292	0.025499131072
0	10806	104.135879493992	0.102371474442
0	10811	104.238250968434	0.053745444092
0	10816	104.291996412526	0.002979232955
0	10820	104.294975645481	0.215009528083
0	10827	104.509985173564	0.051480373876
0	10832	104.56146554744	0.013398230005
0	10837	104.574863777445	0.023355795842
0	10842	104.598219573287	0.01304420842
0	10847	104.611263781707	0.088929720188
0	10852	104.700193501895	0.101484175378
0	10857	104.801677677273	0.010362495698
0	10862	104.812040172971	0.003846384476
0	10866	104.815886557447	0.009628696809
0	10871	104.825515254256	0.024909992968
0	10877	104.850425247224	0.057791393014
0	10882	104.908216640238	0.007884013102
0	10887	104.91610065334	0.026546645972
0	10892	104.942647299312	0.176339402883
0	10897	105.118986702195	0.179433977541
0	10903	105.298420679736	0.002206667168
0	10907	105.300627346904	0.037689790569
0	10913	105.338317137473	0.043574683477
0	10918	105.38189182095	0.017981093072
0	10923	105.399872914022	0.0675270391
0	10928	105.467399953122	0.017301063192
0	10933	105.484701016314	0.011740290056
0	10938	105.49644130637	0.266620310427
0	10943	105.763061616797	0.054582725413
0	10948	105.81764434221	0.099874514087
0	10953	105.917518856297	0.035084199273
0	10958	105.95260305557	0.010529658054
0	10963	105.963132713624	0.035577773089
0	10968	105.998710486713	0.021047378467
0	10973	106.01975786518	0.010604763054
0	10978	106.030362628234	0.095571901989
0	10983	106.125934530223	0.030814126859
0	10988	106.156748657082	0.079893368316
0	10993	106.236642025398	0.014552360089
0	10998	106.251194385487	0.016745434205
0	11003	106.267939819692	0.082797971162
0	11008	106.350737790854	0.049196660534
0	11013	106.399934451388	0.108599016113
0	11018	106.508533467501	0.086555039022
0	11023	106.595088506523	0.011870572344
0	11028	106.606959078867	0.003858516186
0	11032	106.610817595053	0.04726758116
0	11038	106.658085176213	0.039009060853
0	11043	106.697094237066	0.093746627806
0	11049	106.790840864872	0.054185916552
0	11054	106.845026781424	0.002135937582
0	11058	106.847162719006	0.100450203762
0	11064	106.947612922768	0.027056594506
0	11069	106.974669517274	0.064384464736
0	11074	107.03905398201	0.002317108705
0	11078	107.041371090715	0.042355971687
0	11084	107.083727062402	0.063123551062
0	11089	107.146850613464	0.207609425052
0	11094	107.354460038516	0.055246910843
0	11099	107.409706949359	0.105267142648
0	11104	107.514974092007	0.080038043205
0	11109	107.595012135212	0.029113923001
0	11114	107.624126058213	0.000348011843
0	11118	107.624474070056	0.031801457712
0	11124	107.656275527768	0.009583430794
0	11130	107.665858958562	0.033358728528
0	11135	107.69921768709	0.014384082047
0	11140	107.713601769137	0.023480508126
0	11145	107.737082277263	0.007711477312
0	11149	107.744793754575	0.019811865638
0	11155	107.764605620213	0.018246472725
0	11160	107.782852092938	0.090034113805
0	11165	107.872886206743	0.037654359676
0	11170	107.910540566419	0.017154685744
0	11175	107.927695252163	0.03731674008
0	11180	107.965011992243	0.008797291404
0	11185	107.973809283647	0.021859938197
0	11190	107.995669221844	0.020523680584
0	11195	108.016192902428	0.059059672135
0	11200	108.075252574563	0.043020783385
0	11205	108.118273357948	0.079744004964
0	11210	108.198017362912	0.053658867915
0	11215	108.251676230827	0.196429730973
0	11221	108.4481059618	0.014484623787
0	11226	108.462590585587	0.028824987026
0	11231	108.491415572613	0.086081792874
0	11236	108.577497365487	0.029745156431
0	11241	108.607242521918	0.07860767207
0	11246	108.685850193988	0.026582722356
0	11251	108.712432916344	0.053491991655
0	11256	108.765924907999	0.114677203498
0	11261	108.880602111497	0.023619648212
0	11266	108.904221759709	0.000945962824
0	11270	108.905167722533	0.018053475823
0	11276	108.923221198356	0.018829442972
0	11281	108.942050641328	0.047274106146
0	11286	108.989324747474	0.112757274777
0	11291	109.102082022251	0.014415587719
0	11296	109.11649760997	0.044836292611
0	11301	109.161333902581	0.012526515037
0	11306	109.173860417618	0.006655049775
0	11310	109.180515467393	0.011921056982
0	11316	109.192436524375	0.007929909171
0	11321	109.200366433546	0.042542781799
0	11326	109.242909215345	0.068254956495
0	11331	109.31116417184	0.011920134115
0	11336	109.323084305955	0.036948594168
0	11341	109.360032900123	0.165377378444
0	11346	109.525410278567	0.036973231683
0	11351	109.56238351025	0.035660755115
0	11356	109.598044265365	0.020266827277
0	11361	109.618311092642	0.042769981608
0	11366	109.66108107425	0.007231024748
0	11370	109.668312098998	0.067092711667
0	11376	109.735404810665	0.025093102325
0	11381	109.76049791299	0.01222822979
0	11386	109.77272614278	0.022981481885
0	11391	109.795707624665	0.084180415518
0	11396	109.879888040183	0.014657892823
0	11401	109.894545933006	0.016327222531
0	11406	109.910873155537	0.029336551901
0	11411	109.940209707438	0.008052505986
0	11416	109.948262213424	0.006555778694
0	11420	109.954817992118	0.084734078314
0	11426	110.039552070432	0.155859846058
0	11431	110.19541191649	0.018913480344
0	11436	110.214325396834	0.04749379225
0	11441	110.261819189084	0.002430343222
0	11445	110.264249532306	0.021697084313
0	11451	110.285946616619	0.04275660572
0	11456	110.328703222339	0.070912639345
0	11461	110.399615861684	0.174662001349
0	11466	110.574277863033	0.039841638648
0	11471	110.614119501681	0.094873110599
0	11476	110.70899261228	0.007504384157
0	11480	110.716496996437	0.042106844517
0	11486	110.758603840954	0.084892249499
0	11491	110.843496090453	0.01672753536
0	11496	110.860223625813	0.016772988111
0	11501	110.876996613924	0.043865076173
0	11506	110.920861690097	0.00641308156
0	11510	110.927274771657	0.013209637949
0	11516	110.940484409606	0.018951594104
[...]
4	39687	395.298700266644	0.007777777778
4	39692	395.329224453095	0.007777777778
4	39697	395.339871183117	0.007777777778
4	39702	395.381604119766	0.007777777778
4	39707	395.460049883082	0.007777777778
4	39712	395.546968778541	0.007777777778
4	39717	395.665164242689	0.007777777778
4	39722	395.683256670719	0.007777777778
4	39727	395.735129998907	0.007777777778
4	39732	395.76588525348	0.007777777778
4	39740	395.773663031258	0.014289225957
4	39745	395.781440809036	0.019437276856
4	39747	395.789218586814	0.015929148431
4	39752	395.814686947937	0.007777777778
4	39757	395.850951825084	0.007777777778
4	39762	395.877171732601	0.007777777778
4	39767	395.925787807342	0.007777777778
4	39772	395.973468154133	0.007777777778
4	39777	396.037759381268	0.007777777778
4	39782	396.045537159046	0.011099950617
4	39787	396.097364740559	0.007777777778
4	39792	396.248650738472	0.007777777778
4	39800	396.25642851625	0.01387070306
4	39802	396.264206294028	0.016907321465
4	39807	396.360282812126	0.007777777778
4	39812	396.454611805677	0.007777777778
4	39817	396.462389583455	0.007851816696
4	39822	396.479697643909	0.007777777778
4	39827	396.704479683234	0.007777777778
4	39832	396.785274553225	0.007777777778
4	39837	396.796904937454	0.007777777778
4	39842	396.81358626612	0.007777777778
4	39847	396.868952155537	0.007777777778
4	39852	397.017454424985	0.007777777778
4	39857	397.039439162152	0.007777777778
4	39868	397.04721693993	0.01280772856
4	39870	397.054994717708	0.019914561336
4	39875	397.062772495486	0.025698120576
4	39877	397.070550273264	0.017089415168
4	39882	397.103926290495	0.007777777778
4	39887	397.111737439982	0.007777777778
4	39892	397.135100109845	0.007777777778
4	39897	397.274562017204	0.007777777778
4	39902	397.282339794982	0.012823584041
4	39907	397.29011757276	0.012531170966
4	39912	397.409294281467	0.007777777778
4	39917	397.417072059245	0.015514721183
4	39922	397.445122006036	0.007777777778
4	39927	397.611538145175	0.007777777778
4	39932	397.634593584351	0.007777777778
4	39937	397.735434590457	0.007777777778
4	39942	397.760722797014	0.007777777778
4	39947	397.78416408854	0.007777777778
4	39952	397.81046726608	0.007777777778
4	39957	397.834081679588	0.007777777778
4	39962	397.923983392601	0.007777777778
4	39967	397.984954718607	0.007777777778
4	39972	398.033689507977	0.007777777778
4	39977	398.074353162004	0.007777777778
4	39982	398.091630407881	0.007777777778
4	39987	398.111673160789	0.007777777778
4	39992	398.139315112689	0.007777777778
4	39997	398.24499819984	0.007777777778
4	40003	398.284804758173	0.007777777778
4	40008	398.310917385321	0.007777777778
4	40013	398.406929541038	0.007777777778
4	40018	398.466383208991	0.007777777778
4	40023	398.483925278143	0.007777777778
4	40028	398.510474113889	0.007777777778
4	40033	398.603987043536	0.007777777778
4	40038	398.67004277191	0.007777777778
4	40043	398.678690171319	0.007777777778
4	40048	398.786628078673	0.007777777778
4	40053	398.829564522629	0.007777777778
4	40058	398.924702180988	0.007777777778
4	40063	398.942229233034	0.007777777778
4	40068	398.964175810397	0.007777777778
4	40073	398.986850904558	0.007777777778
4	40078	399.055843633079	0.007777777778
4	40083	399.072472354947	0.007777777778
4	40088	399.080250132725	0.015207682195
4	40093	399.106755437804	0.007777777778
4	40098	399.139889401798	0.007777777778
4	40103	399.176199542379	0.007777777778
4	40108	399.183977320157	0.012109039906
4	40113	399.230171215207	0.007777777778
4	40118	399.257101502379	0.007777777778
4	40123	399.298712202944	0.007777777778
4	40128	399.386811340406	0.007777777778
4	40133	399.403905125721	0.007777777778
4	40138	399.425788970134	0.007777777778
4	40143	399.43889767344	0.007777777778
4	40148	399.446675451218	0.009509765936
4	40153	399.495189226536	0.007777777778
4	40158	399.519786408171	0.007777777778
4	40163	399.672624507542	0.007777777778
4	40168	399.693431241307	0.007777777778
4	40173	399.742978032001	0.007777777778
4	40178	399.820983593222	0.007777777778
4	40183	399.862547271329	0.007777777778
4	40188	399.895802626854	0.007777777778
4	40193	399.903580404632	0.012504170959
4	40198	399.984809462078	0.007777777778
5	1094	10.431928260281	0.10869256635598
5	1110	10.540620826637	1.014788458942
5	1236	11.555409285579	0.24782181893317
5	1246	11.803231104512	0.85708568350676
5	1313	12.660316788019	0.99359738830487
5	1439	13.653914176324	0.039846338379161
5	1440	13.693760514703	1.9655707315333
5	1596	15.659331246236	0.44287668452021
5	1632	16.102207930756	0.042148461242357
5	1633	16.144356391998	2.9129214059574
5	1899	19.057277797955	1.3569927606042
5	2060	20.414270558559	0.061922933319874
5	2068	20.476193491879	0.84494114451473
5	2137	21.321134636394	1.9954100344707
5	2358	23.316544670865	0.034915713995064
5	2359	23.35146038486	2.0979357170375
5	2525	25.449396101898	0.24272555941171
5	2540	25.69212166131	0.052550572939785
5	2547	25.74467223425	0.66858924546472
5	2662	26.413261479715	1.0567564555492
5	2754	27.470017935264	0.3184242848494
5	2775	27.788442220113	0.80240722507918
5	2835	28.590849445192	0.12676965627517
5	2857	28.717619101467	0.91009310731339
5	2972	29.62771220878	0.35615233853934
5	3004	29.983864547319	0.66073540627495
5	3055	30.644599953594	0.47458058901778
5	3115	31.119180542612	0.33266292807637
5	3147	31.451843470688	0.00112453117653
5	3148	31.452968001865	0.35343123351751
5	3173	31.806399235383	0.64938259068554
5	3260	32.455781826069	0.82441577344499
5	3316	33.280197599514	0.74374871199148
5	3417	34.023946311505	0.50425962969785
5	3448	34.528205941203	0.047570972168839
5	3459	34.575776913372	1.5544797279802
5	3620	36.130256641352	0.39317521992993
5	3686	36.523431861282	0.54211745383225
5	3707	37.065549315114	0.51852200365025
5	3738	37.584071318764	0.15537266936693
5	3759	37.739443988131	0.35205209916295
5	3782	38.091496087294	0.16358619998637
5	3801	38.25508228728	1.0940235252689
5	3892	39.349105812549	0.056825779051044
5	3903	39.4059315916	0.7290234834317
5	3984	40.134955075032	1.265980111564
5	4117	41.400935186596	1.4204686873615
5	4275	42.821403873958	0.34575953362815
5	4322	43.167163407586	0.19421121530382
5	4337	43.36137462289	0.2216120691316
5	4344	43.582986692022	0.71844942640838
5	4414	44.30143611843	1.7800122732135
5	4586	46.081448391644	1.5783591471319
5	4717	47.659807538776	0.83930913710845
5	4773	48.499116675884	0.95092351588871
5	4859	49.450040191773	0.085928057337032
5	4874	49.53596824911	0.065487204898195
5	4896	49.601455454008	0.78745472510197
5	4977	50.38891017911	0.4404002745374
5	5028	50.829310453647	0.17311456490977
5	5049	51.002425018557	0.77990853242247
5	5170	51.782333550979	1.1293675719295
5	5356	52.911701122909	1.6342995894963
5	5542	54.546000712405	0.12609881220188
5	5548	54.672099524607	0.25242283870224
5	5584	54.924522363309	0.58878007264374
5	5680	55.513302435953	3.3124566456711
5	6076	58.825759081624	2.1890995589736
5	6362	61.014858640598	1.6954798677744
5	6583	62.710338508372	1.5958690299339
5	6773	64.306207538306	0.39703274134373
5	6820	64.70324027965	0.070399644373866
5	6826	64.773639924024	0.61595158352422
5	6912	65.389591507548	3.2387661187234
5	7218	68.628357626271	1.440489903332
5	7359	70.068847529603	1.0764753187381
5	7455	71.145322848341	0.051354516554964
5	7456	71.196677364896	1.2686040538939
5	7606	72.46528141879	1.7785819264799
5	7773	74.24386334527	1.3609259572201
5	7894	75.60478930249	0.0099372672301773
5	7899	75.61472656972	2.1869051941006
5	8136	77.801631763821	0.2396524649061
5	8172	78.041284228727	0.1438076342984
5	8187	78.185091863025	0.19536570716685
5	8214	78.380457570192	1.5004695209792
5	8365	79.880927091171	2.5592059899309
5	8600	82.440133081102	1.8201065164807
5	8797	84.260239597583	1.8980592741619
5	8927	86.158298871745	1.767875587104
5	9139	87.926174458849	0.26313990257919
5	9165	88.189314361428	0.029590509278999
5	9166	88.218904870707	1.7613815401658
5	9382	89.980286410873	0.49491043267185
5	9433	90.475196843545	0.34009739583928
5	9468	90.815294239384	0.57492332913502
5	9550	91.390217568519	3.0421585534816
5	9811	94.432376122001	0.73529310883991
5	9891	95.167669230841	0.41798313734416
5	9943	95.585652368185	0.6789931639747
5	9994	96.26464553216	0.73355765985091
5	10095	96.998203192011	0.13975561197447
5	10106	97.137958803985	2.5602124156278
5	10347	99.698171219613	4.1594296582855
5	10773	103.857600877899	0.010753249033097
5	10774	103.868354126932	0.067960181394755
5	10780	103.936314308327	0.46548587666412
5	10826	104.401800184991	0.86579743374349
5	10902	105.267597618734	1.5204405368208
5	11048	106.788038155555	0.8693470975134
5	11128	107.657385253068	0.69863831006671
5	11220	108.356023563135	3.086485887923
5	11576	111.442509451058	0.061258402976065
5	11596	111.503767854034	0.21995336516442
5	11608	111.723721219198	0.25569642155683
5	11619	111.979417640755	0.087002717420494
5	11630	112.066420358175	3.1536204057974
5	11891	115.220040763972	2.1529952591561
5	12062	117.373036023128	0.17990737640577
5	12083	117.552943399534	0.015820682251141
5	12089	117.568764081785	0.44025111938683
5	12130	118.009015201172	1.587650215363
5	12291	119.596665416535	3.7615040712988
5	12672	123.358169487834	1.4618391115992
5	12827	124.820008599433	0.60036689959601
5	12873	125.420375499029	2.0560671561676
5	13069	127.476442655197	1.1000719494272
5	13156	128.576514604624	2.4782498958643
5	13392	131.054764500488	0.49937449925551
5	13453	131.554138999744	0.31994798729095
5	13459	131.874086987035	1.0493956594641
5	13530	132.923482646499	0.2696864725746
5	13541	133.193169119074	1.2915420275724
5	13657	134.484711146646	0.37181735847435
5	13718	134.85652850512	2.4418376645006
5	13919	137.298366169621	1.2575257028984
5	14095	138.555891872519	0.31546901339542
5	14126	138.871360885914	0.086359398683182
5	14132	138.957720284597	0.49850223410239
5	14178	139.456222518699	1.1254279572847
5	14284	140.581650475984	1.1234859882292
5	14370	141.705136464213	1.9556298995927
5	14606	143.660766363806	0.67078706049915
5	14647	144.331553424305	1.1805717124238
5	14753	145.512125136729	0.74317124479296
5	14834	146.255296381522	1.5375065790107
5	14985	147.792802960533	0.40241687804728
5	15011	148.19521983858	0.43584377794465
5	15057	148.631063616525	3.1939566150058
5	15397	151.825020231531	0.24870763157244
5	15414	152.073727863103	0.26223472223288
5	15440	152.335962585336	0.28153088246218
5	15481	152.617493467798	1.433119873359
5	15587	154.050613341157	1.2997956930587
5	15708	155.350409034216	0.17332760307085
5	15723	155.523736637287	0.066276316263417
5	15725	155.59001295355	3.9442596718961
5	16061	159.534272625446	0.60465558029073
5	16132	160.138928205737	0.28817482684524
5	16163	160.427103032582	0.66880064016829
5	16244	161.09590367275	0.17242193814654
5	16265	161.268325610897	1.0240842930561
5	16366	162.292409903953	0.77745879318263
5	16416	163.069868697136	0.11223839798729
5	16427	163.182107095123	0.16084358997731
5	16439	163.3429506851	0.85240070858556
5	16525	164.195351393686	0.94129211662835
5	16616	165.136643510314	3.2275583165818
5	16957	168.364201826896	0.83993917745503
5	17033	169.204141004351	0.72501063016759
5	17069	169.929151634519	1.8827937676756
5	17200	171.811945402195	0.84356328272857
5	17286	172.655508684924	0.017657046551596
5	17294	172.673165731476	4.4234040952322
5	17748	177.096569826708	0.454101551386
5	17789	177.550671378094	1.7889889240685
5	17925	179.339660302162	0.97340389784159
5	18051	180.313064200004	0.68944142685229
5	18132	181.002505626856	0.26078394627918
5	18143	181.263289573135	0.083546122969157
5	18149	181.346835696104	0.62412586601684
5	18225	181.970961562121	2.0483072165908
5	18451	184.019268778712	0.74365919158035
5	18537	184.762927970292	1.248574175572
5	18698	186.011502145864	1.1456123541125
5	18824	187.157114499977	1.3171864796473
5	18934	188.474300979624	0.13313795457868
5	18956	188.607438934203	1.735114430321
5	19147	190.342553364524	0.49958232169172
5	19183	190.842135686216	1.3664102222062
5	19364	192.208545908422	0.14705310184861
5	19375	192.355599010271	0.53283715433263
5	19416	192.888436164604	0.62499332617901
5	19477	193.513429490783	0.72299901443931
5	19538	194.236428505222	0.69769070122989
5	19614	194.934119206452	1.8743250791907
5	19810	196.808444285643	0.14194795009271
5	19826	196.950392235736	1.9580174972335
5	19997	198.90840973297	2.739499238226
5	20218	201.647908971196	0.3717938190479
5	20264	202.019702790244	0.91440321905383
5	20314	202.934106009298	0.12713633658553
5	20341	203.061242345884	0.80724421263875
5	20432	203.868486558523	0.73597009315058
5	20513	204.604456651674	3.3308758241236
5	20839	207.935332475798	0.59592985299314
5	20905	208.531262328791	0.16519544850955
5	20926	208.696457777301	2.2758192509974
5	21157	210.972277028298	0.51862057558346
5	21208	211.490897603881	0.67944615307952
5	21274	212.170343756961	0.8132161037996
5	21340	212.983559860761	0.70214255841166
5	21411	213.685702419173	0.34518476182349
5	21436	214.030887180996	0.4543250154851
5	21473	214.485212196481	1.0795420028645
5	21636	215.564754199346	1.5278861415146
5	21755	217.092640340861	0.87486097630804
5	21841	217.967501317169	2.9550321809423
5	22172	220.922533498111	3.1482780704101
5	22483	224.070811568521	0.13927932278083
5	22509	224.210090891302	1.0807221504432
5	22610	225.290813041745	1.082087576682
5	22716	226.372900618427	4.9164576245996
5	23202	231.289358243027	0.17880651387232
5	23218	231.468164756899	0.59013119808509
5	23279	232.058295954984	0.36952684249575
5	23310	232.42782279748	0.051182703790433
5	23311	232.47900550127	3.4001026865728
5	23632	235.879108187843	0.13096925600534
5	23643	236.010077443848	0.65943135570127
5	23729	236.669508799549	0.49065601055035
5	23800	237.160164810099	0.77815499266473
5	23866	237.938319802764	0.72522117750103
5	23962	238.663540980265	1.2419278666419
5	24117	239.905468846907	0.51680009373973
5	24164	240.422268940647	1.1629324042415
5	24310	241.585201344888	1.8556971698106
5	24501	243.440898514699	0.037669825086744
5	24516	243.478568339786	4.8634434845789
5	25042	248.342011824365	2.1907804662172
5	25194	250.532792290582	0.57815789008899
5	25245	251.110950180671	0.20897466117905
5	25256	251.31992484185	2.795018768988
5	25517	254.114943610838	1.5233875490486
5	25648	255.638331159887	2.470505912729
5	25924	258.108837072616	1.0326170550149
5	26035	259.141454127631	0.095356608057502
5	26051	259.236810735689	0.66436342026497
5	26097	259.901174155954	0.092225187679147
5	26123	259.993399343633	2.6457086197639
5	26339	262.639107963397	1.3513087193762
5	26465	263.990416682773	0.31454831722036
5	26506	264.304964999993	0.042255418823799
5	26512	264.347220418817	1.6829713501688
5	26698	266.030191768986	1.1484097848986
5	26819	267.178601553885	1.1875814531906
5	26950	268.366183007076	3.1398350226013
5	27286	271.506018029677	0.26857405776211
5	27341	271.774592087439	0.59638358425813
5	27358	272.370975671697	3.064068788785
5	27709	275.435044460482	0.50283756578119
5	27764	275.937882026263	0.88052720358899
5	27841	276.818409229852	1.1720615284622
5	27932	277.990470758314	0.8748284720192
5	27993	278.865299230333	1.1992808042813
5	28069	280.064580034614	0.17103691461614
5	28085	280.23561694923	0.92989191900725
5	28211	281.165508868237	0.55380351953351
5	28267	281.719312387771	2.8711666145991
5	28498	284.59047900237	0.26790808843421
5	28509	284.858387090804	0.46268256761138
5	28559	285.321069658415	0.91755987099529
5	28621	286.23862952941	0.026605745259003
5	28622	286.265235274669	0.44723821338294
5	28673	286.712473488052	0.18173569073668
5	28679	286.894209178789	0.18497321046417
5	28705	287.079182389253	0.81521863746761
5	28781	287.894401026721	0.4265556313182
5	28837	288.320956658039	0.58547857660217
5	28873	288.906435234641	0.24145648084968
5	28899	289.147891715491	7.7197114181423
5	29585	296.867603133633	1.5824469286181
5	29761	298.450050062251	0.38230343908028
5	29782	298.832353501331	1.5688206588474
5	29932	300.401174160178	2.4228933891724
5	30174	302.82406754935	0.17977323125092
5	30200	303.003840780601	1.9852433732174
5	30391	304.989084153818	1.3877515955072
5	30542	306.376835749325	1.4447613106074
5	30668	307.821597059932	0.057519605416285
5	30674	307.879116665348	0.2038237739761
5	30704	308.082940439324	0.26457826707377
5	30716	308.347518706398	0.43302531125666
5	30782	308.780544017655	1.0500976893242
5	30888	309.830641706979	0.016280782114156
5	30889	309.846922489093	1.2667058907683
5	31035	311.113628379861	1.2334279295616
5	31205	312.347056309423	0.65402160336286
5	31277	313.001077912786	0.38369876391817
5	31312	313.384776676704	0.41190781611151
5	31349	313.796684492816	1.0008909244997
5	31435	314.797575417316	0.49381494337527
5	31486	315.291390360691	1.3473561678232
5	31602	316.638746528514	1.9575581143687
5	31798	318.596304642883	0.18711537038641
5	31819	318.783420013269	0.71618167119715
5	31870	319.499601684466	1.9491083506194
5	32096	321.448710035085	2.0769647323205
5	32326	323.525674767406	0.55470297475897
5	32382	324.080377742165	2.9269257038033
5	32634	327.007303445968	0.56252062258545
5	32720	327.569824068553	2.7447200493317
5	33010	330.314544117885	1.4178389977982
5	33162	331.732383115683	0.67931909676606
5	33228	332.411702212449	0.043342462371045
5	33234	332.45504467482	0.91758725963392
5	33315	333.372631934454	0.8389800789687
5	33426	334.211612013423	0.2321465818926
5	33437	334.443758595316	0.16292802664874
5	33463	334.606686621965	3.1278537505155
5	33764	337.73454037248	0.53467635288794
5	33840	338.269216725368	4.3283309397336
5	34346	342.597547665102	1.5992755665645
5	34506	344.196823231666	1.7683096695616
5	34683	345.965132901228	0.0061874686756811
5	34684	345.971320369904	0.77195115972413
5	34759	346.743271529628	0.21688968298748
5	34776	346.960161212615	0.087234258004638
5	34777	347.04739547062	0.94350004646946
5	34933	347.990895517089	0.3767136525055
5	34964	348.367609169594	0.97144406227295
5	35095	349.339053231867	0.11217641462137
5	35106	349.451229646488	0.068105042662287
5	35107	349.51933468915	0.22929825958245
5	35123	349.748632948732	2.1716446355807
5	35404	351.920277584313	0.39381087825489
5	35449	352.314088462568	0.85622584242482
5	35551	353.170314304993	0.69637034405278
5	35587	353.866684649046	0.9513041007624
5	35708	354.817988749808	2.1063503645254
5	35924	356.924339114333	0.90706401950577
5	36020	357.831403133839	0.30246946395978
5	36041	358.133872597799	0.45509361120611
5	36112	358.588966209005	0.75531363279257
5	36198	359.344279841798	0.15233265868909
5	36213	359.496612500487	1.857019140198
5	36425	361.353631640685	0.84165834945663
5	36500	362.195289990142	0.1468360695939
5	36502	362.342126059736	0.095096186823719
5	36523	362.43722224656	0.51119904036358
5	36544	362.948421286924	0.43398560001716
5	36610	363.382406886941	0.84045366311401
5	36691	364.222860550055	0.82770327184762
5	36762	365.050563821903	0.20584554318292
5	36798	365.256409365086	1.9963936142295
5	36978	367.252802979316	0.013810862948129
5	36984	367.266613842264	0.51749821288895
5	37011	367.784112055153	0.89842394134017
5	37072	368.682535996493	0.28198130186149
5	37098	368.964517298354	0.015840026490588
5	37099	368.980357324845	1.3707663669382
5	37235	370.351123691783	0.88187414402861
5	37321	371.232997835812	0.22328131790608
5	37337	371.456279153718	0.52536903832712
5	37388	371.981648192045	0.14212222256116
5	37399	372.123770414606	0.25957927288625
5	37425	372.383349687492	0.04642498533398
5	37435	372.429774672826	0.21057750576682
5	37472	372.640352178593	2.1299420251407
5	37708	374.770294203734	2.4453350006158
5	37894	377.21562920435	2.2389659607046
5	38135	379.454595165055	0.8921357569376
5	38216	380.346730921993	0.40609890559083
5	38257	380.752829827584	0.18776958409164
5	38288	380.940599411676	0.41326195775887
5	38329	381.353861369435	1.2534238770935
5	38435	382.607285246528	0.12367801829491
5	38436	382.730963264823	0.27239427296368
5	38457	383.003357537787	0.31652203843802
5	38518	383.319879576225	2.5485513458625
5	38769	385.868430922088	4.2438878688143
5	39149	390.112318790902	1.2775255778694
5	39231	391.389844368771	1.081463015496
5	39367	392.471307384267	1.1298645271198
5	39465	393.601171911387	0.33426847475638
5	39539	393.935440386143	4.3283383715349
5	40000	398.263778757678	1.8249857011797

