version 2
run Non-monitoring-6-20210209-17:43:11-14752
attr configname Non-monitoring
attr datetime 20210209-17:43:11
attr experiment Non-monitoring
attr inifile aerocom.ini
attr iterationvars ""
attr iterationvarsf ""
attr measurement ""
attr network Aerocom
attr processid 14752
attr repetition 6
attr replication #6
attr resultdir results
attr runnumber 6
attr seedset 6
param **.t 1s
param **.k 50ms
param **.nA 1
param **.nDL 1
param **.s "70 byte"
param **.X 0s
param **.dimPoolMax 9000
param **.dimPoolMin 9000
param **.tDistribution "\"exponential\""
param **.m 1s
param **.DLMaxCapacity 0
param **.trasmitting false
param **.operationMode 1

vector 0 Aerocom.aircraft[0].packetGenerator arrivalTime:vector ETV
attr "" ""
attr source computeArrivalTime
vector 1 Aerocom.aircraft[0].dataLink[0] queueLength:vector ETV
attr "" ""
attr source computeQueueLength
vector 2 Aerocom.aircraft[0].dataLink[0] waitingTime:vector ETV
attr "" ""
attr source computeWaitingTime
vector 3 Aerocom.aircraft[0].dataLink[0] serviceTime:vector ETV
attr "" ""
attr source computeServiceTime
vector 4 Aerocom.aircraft[0].dataLink[0] responseTime:vector ETV
attr "" ""
attr source computeResponseTime
vector 5 Aerocom.aircraft[0].dataLink[0] tDistribution:vector ETV
attr "" ""
attr source computeTDistribution
0	993	10.015338775394	0.010627665437
0	998	10.025966440831	0.076451593639
0	1003	10.10241803447	0.053753710759
0	1008	10.156171745229	0.140315560017
0	1013	10.296487305246	0.038443678552
0	1018	10.334930983798	0.065791521213
0	1023	10.400722505011	0.032315705923
0	1028	10.433038210934	0.167125606733
0	1033	10.600163817667	0.052119704151
0	1038	10.652283521818	0.013539603864
0	1044	10.665823125682	0.033497733384
0	1049	10.699320859066	0.009624159823
0	1054	10.708945018889	0.038755305323
0	1059	10.747700324212	0.082323449784
0	1064	10.830023773996	0.125735012822
0	1069	10.955758786818	0.008425587608
0	1074	10.964184374426	0.030399536316
0	1079	10.994583910742	0.080090874959
0	1084	11.074674785701	0.050632161989
0	1089	11.12530694769	0.168595284099
0	1094	11.293902231789	0.046236268014
0	1099	11.340138499803	0.014951156657
0	1104	11.35508965646	0.014809458234
0	1109	11.369899114694	0.021553773154
0	1114	11.391452887848	0.071184998352
0	1119	11.4626378862	0.027210199239
0	1124	11.489848085439	0.038944518095
0	1129	11.528792603534	0.055293711595
0	1134	11.584086315129	0.017226238791
0	1139	11.60131255392	0.016327637047
0	1144	11.617640190967	0.100905369889
0	1149	11.718545560856	0.038598770144
0	1154	11.757144331	0.000585875878
0	1158	11.757730206878	0.004512418738
0	1161	11.762242625616	0.017349498661
0	1168	11.779592124277	0.098036383986
0	1174	11.877628508263	0.224964334464
0	1179	12.102592842727	0.011169325275
0	1184	12.113762168002	0.033204088241
0	1189	12.146966256243	0.044850208288
0	1194	12.191816464531	0.043855949639
0	1199	12.23567241417	0.116186868069
0	1204	12.351859282239	0.00091655244
0	1208	12.352775834679	0.023208748202
0	1214	12.375984582881	0.110638775777
0	1219	12.486623358658	0.135183117842
0	1224	12.6218064765	0.00646669936
0	1228	12.62827317586	0.078494087585
0	1234	12.706767263445	0.050548995084
0	1239	12.757316258529	0.014775157585
0	1244	12.772091416114	0.108645656813
0	1249	12.880737072927	0.068779769134
0	1254	12.949516842061	0.008168667279
0	1259	12.95768550934	0.027308463325
0	1264	12.984993972665	0.025103791465
0	1269	13.01009776413	0.071744767013
0	1274	13.081842531143	0.039805758684
0	1279	13.121648289827	0.072054517985
0	1284	13.193702807812	0.031977721623
0	1289	13.225680529435	0.007578279784
0	1293	13.233258809219	0.068591177706
0	1299	13.301849986925	0.057602386471
0	1304	13.359452373396	0.043079201519
0	1309	13.402531574915	0.002211629541
0	1313	13.404743204456	0.038732731925
0	1319	13.443475936381	0.034053039386
0	1324	13.477528975767	0.026825712765
0	1329	13.504354688532	0.009942127777
0	1334	13.514296816309	0.01529178069
0	1339	13.529588596999	0.002261315084
0	1343	13.531849912083	0.002065375753
0	1346	13.533915287836	0.02761643624
0	1354	13.561531724076	0.084637628321
0	1359	13.646169352397	0.083731630331
0	1365	13.729900982728	0.053849492891
0	1370	13.783750475619	0.018382838905
0	1375	13.802133314524	0.013910152892
0	1380	13.816043467416	0.013418320773
0	1385	13.829461788189	0.054610775977
0	1390	13.884072564166	0.001798098451
0	1394	13.885870662617	0.073241239125
0	1400	13.959111901742	0.014256671047
0	1405	13.973368572789	0.037727573692
0	1410	14.011096146481	0.075796156556
0	1415	14.086892303037	0.093509837726
0	1420	14.180402140763	0.061070383159
0	1425	14.241472523922	0.019756741607
0	1430	14.261229265529	0.043911846508
0	1435	14.305141112037	0.008051964947
0	1440	14.313193076984	0.20917594278
0	1445	14.522369019764	0.076513849217
0	1450	14.598882868981	0.04760730965
0	1455	14.646490178631	0.106740292258
0	1460	14.753230470889	0.159378234596
0	1465	14.912608705485	0.085570942703
0	1470	14.998179648188	0.033376940593
0	1475	15.031556588781	0.034587107705
0	1480	15.066143696486	0.151895038571
0	1485	15.218038735057	0.028318111909
0	1490	15.246356846966	0.069246661896
0	1495	15.315603508862	0.019862255713
0	1500	15.335465764575	0.030911636205
0	1505	15.36637740078	0.037826204328
0	1511	15.404203605108	0.025280008451
0	1516	15.429483613559	0.174003548753
0	1521	15.603487162312	0.042450011016
0	1526	15.645937173328	0.133126191394
0	1531	15.779063364722	0.106302093766
0	1536	15.885365458488	0.10322603513
0	1541	15.988591493618	0.015191399029
0	1546	16.003782892647	0.020746398894
0	1551	16.024529291541	0.057498326768
0	1556	16.082027618309	0.083890478838
0	1561	16.165918097147	0.037602325973
0	1566	16.20352042312	0.023900311679
0	1571	16.227420734799	0.007231760066
0	1575	16.234652494865	0.000387178332
0	1578	16.235039673197	0.116078458791
0	1586	16.351118131988	0.006043387086
0	1590	16.357161519074	0.075981103355
0	1598	16.433142622429	0.058853510475
0	1603	16.491996132904	0.028282151854
0	1608	16.520278284758	0.067567829656
0	1613	16.587846114414	0.035185790036
0	1618	16.62303190445	0.024922250983
0	1623	16.647954155433	0.060510784939
0	1628	16.708464940372	0.01744232211
0	1633	16.725907262482	0.032241977548
0	1638	16.75814924003	0.051534053806
0	1643	16.809683293836	0.020340744724
0	1648	16.83002403856	0.116788604969
0	1653	16.946812643529	0.037808568276
0	1658	16.984621211805	0.072647064109
0	1663	17.057268275914	0.00423545651
0	1667	17.061503732424	0.268898688855
0	1673	17.330402421279	0.06575581616
0	1678	17.396158237439	0.20210577091
0	1684	17.598264008349	0.106077689266
0	1689	17.704341697615	0.104009983799
0	1694	17.808351681414	0.004394358822
0	1698	17.812746040236	0.145511003238
0	1704	17.958257043474	0.028124202258
0	1709	17.986381245732	0.061204841296
0	1714	18.047586087028	0.038722344279
0	1719	18.086308431307	0.096014175792
0	1724	18.182322607099	0.13912736206
0	1729	18.321449969159	0.02035981789
0	1734	18.341809787049	0.046341720445
0	1739	18.388151507494	0.036300719464
0	1744	18.424452226958	0.004286780991
0	1748	18.428739007949	0.024012412449
0	1754	18.452751420398	0.112712682646
0	1759	18.565464103044	0.102267599502
0	1765	18.667731702546	0.008881695574
0	1770	18.67661339812	0.016626034376
0	1775	18.693239432496	0.016879964666
0	1780	18.710119397162	0.343615542712
0	1785	19.053734939874	0.030537413
0	1790	19.084272352874	0.056242233301
0	1795	19.140514586175	0.069148260763
0	1800	19.209662846938	0.139005992454
0	1805	19.348668839392	0.007718900882
0	1809	19.356387740274	0.0602544284
0	1815	19.416642168674	0.021880879738
0	1820	19.438523048412	0.041396244697
0	1825	19.479919293109	0.02608595368
0	1830	19.506005246789	0.048259312982
0	1835	19.554264559771	0.067225909833
0	1840	19.621490469604	0.002090607885
0	1844	19.623581077489	0.059863922409
0	1850	19.683444999898	0.079876972546
0	1855	19.763321972444	0.004573659698
0	1859	19.767895632142	0.038538641473
0	1865	19.806434273615	0.00397055061
0	1869	19.810404824225	0.018999486762
0	1875	19.829404310987	0.006883979227
0	1879	19.836288290214	0.047882722091
0	1885	19.884171012305	0.063121162859
0	1890	19.947292175164	0.28974852193
0	1895	20.237040697094	0.040467727067
0	1900	20.277508424161	0.024353243691
0	1905	20.301861667852	0.058867440007
0	1910	20.360729107859	0.029563579572
0	1915	20.390292687431	0.000182229425
0	1919	20.390474916856	0.006781144596
0	1922	20.397256061452	0.045868142485
0	1930	20.443124203937	0.024153408818
0	1935	20.467277612755	0.027912194557
0	1940	20.495189807312	0.122927123883
0	1945	20.618116931195	0.00064072991
0	1949	20.618757661105	0.019377167351
0	1955	20.638134828456	0.028943546718
0	1960	20.667078375174	0.033323522346
0	1965	20.70040189752	0.016104679605
0	1970	20.716506577125	0.010453835092
0	1975	20.726960412217	0.036077975243
0	1980	20.76303838746	0.016923507655
0	1985	20.779961895115	0.13918582618
0	1990	20.919147721295	0.029196170507
0	1995	20.948343891802	0.033677849269
0	2000	20.982021741071	0.148155997918
0	2005	21.130177738989	0.03217540646
0	2010	21.162353145449	0.004917095542
0	2014	21.167270240991	0.012974844736
0	2020	21.180245085727	0.012560244621
0	2025	21.192805330348	0.037583782266
0	2030	21.230389112614	0.042248180627
0	2035	21.272637293241	0.093014784619
0	2040	21.36565207786	0.178026894013
0	2045	21.543678971873	0.035003362343
0	2050	21.578682334216	0.006144390252
0	2054	21.584826724468	0.067838613529
0	2061	21.652665337997	0.061355818114
0	2066	21.714021156111	0.006358065217
0	2070	21.720379221328	0.070898510876
0	2076	21.791277732204	0.001158594664
0	2080	21.792436326868	0.035648689587
0	2086	21.828085016455	0.035956085837
0	2091	21.864041102292	0.067113416195
0	2096	21.931154518487	0.014034201266
0	2101	21.945188719753	0.132658793737
0	2106	22.07784751349	0.138848551885
0	2112	22.216696065375	0.012515320698
0	2117	22.229211386073	0.077347275961
0	2122	22.306558662034	0.049473973814
0	2127	22.356032635848	0.011320104953
0	2132	22.367352740801	0.060200152117
0	2137	22.427552892918	0.078566991419
0	2142	22.506119884337	0.026526057356
0	2147	22.532645941693	0.009820075132
0	2152	22.542466016825	0.16792979316
0	2157	22.710395809985	0.003283665725
0	2161	22.71367947571	0.006515192028
0	2166	22.720194667738	0.031342112057
0	2172	22.751536779795	0.002435113743
0	2176	22.753971893538	0.018007019917
0	2182	22.771978913455	0.032972049706
0	2187	22.804950963161	0.006074251406
0	2191	22.811025214567	0.012888090999
0	2197	22.823913305566	0.014490032235
0	2202	22.838403337801	0.173382991166
0	2207	23.011786328967	0.007442486045
0	2211	23.019228815012	0.135067653135
0	2217	23.154296468147	0.008753509883
0	2222	23.16304997803	0.001111130002
0	2226	23.164161108032	0.033011643703
0	2232	23.197172751735	0.001619043141
0	2236	23.198791794876	0.00716037584
0	2242	23.205952170716	0.020364280965
0	2248	23.226316451681	0.020590022021
0	2253	23.246906473702	0.065678376904
0	2258	23.312584850606	0.161353319017
0	2263	23.473938169623	0.003419017411
0	2267	23.477357187034	0.008669564646
0	2272	23.48602675168	0.019079589772
0	2278	23.505106341452	0.091624497137
0	2283	23.596730838589	0.01073432235
0	2288	23.607465160939	0.035989705081
0	2293	23.64345486602	0.017403254103
0	2298	23.660858120123	0.112682785298
0	2303	23.773540905421	0.036868424244
0	2308	23.810409329665	0.01243417068
0	2313	23.822843500345	0.029423526969
0	2318	23.852267027314	0.035430057193
0	2323	23.887697084507	0.000684382433
0	2327	23.88838146694	0.029218604944
0	2333	23.917600071884	0.0458229039
0	2339	23.963422975784	0.049431760923
0	2345	24.012854736707	0.022694773421
0	2350	24.035549510128	0.000358841792
0	2354	24.03590835192	0.000959676239
0	2357	24.036868028159	0.00629178101
0	2360	24.043159809169	0.000481121131
0	2365	24.0436409303	0.042562293522
0	2375	24.086203223822	0.007659194826
0	2379	24.093862418648	0.222361004376
0	2385	24.316223423024	0.105395865686
0	2390	24.42161928871	0.00691286061
0	2394	24.42853214932	0.0644435845
0	2400	24.49297573382	0.004329527394
0	2404	24.497305261214	0.036364507377
0	2410	24.533669768591	0.016987233839
0	2415	24.55065700243	0.149002039963
0	2420	24.699659042393	0.072344695934
0	2425	24.772003738327	0.012680649685
0	2430	24.784684388012	0.012243049697
0	2435	24.796927437709	0.04337346036
0	2440	24.840300898069	0.03182408995
0	2445	24.872124988019	0.003970615708
0	2449	24.876095603727	0.004258330488
0	2454	24.880353934215	0.076932052536
0	2460	24.957285986751	0.051656851946
0	2465	25.008942838697	0.034018402084
0	2470	25.042961240781	0.017618018763
0	2476	25.060579259544	0.039042888095
0	2481	25.099622147639	0.034209273355
0	2486	25.133831420994	0.065461167528
0	2491	25.199292588522	0.05751848734
0	2496	25.256811075862	0.001017442257
0	2500	25.257828518119	0.03463465244
0	2506	25.292463170559	0.156913491329
0	2511	25.449376661888	0.022778385473
0	2516	25.472155047361	0.054924156955
0	2521	25.527079204316	0.021076357873
0	2526	25.548155562189	0.004678099361
0	2530	25.55283366155	0.006766164244
0	2535	25.559599825794	0.056030060293
0	2541	25.615629886087	0.018322063977
0	2546	25.633951950064	0.071912483611
0	2551	25.705864433675	0.050938493765
0	2556	25.75680292744	0.064675939296
0	2561	25.821478866736	0.007569946101
0	2565	25.829048812837	0.011079045874
0	2571	25.840127858711	0.026441353966
0	2576	25.866569212677	0.05696202464
0	2581	25.923531237317	0.018417547486
0	2586	25.941948784803	0.12390545416
0	2591	26.065854238963	0.075044370929
0	2596	26.140898609892	0.090568927724
0	2601	26.231467537616	0.087550063282
0	2606	26.319017600898	0.041622675185
0	2611	26.360640276083	0.075098258827
0	2616	26.43573853491	0.018958130756
0	2621	26.454696665666	0.011727756688
0	2626	26.466424422354	0.019639485262
0	2631	26.486063907616	0.015603247634
0	2636	26.50166715525	0.06195306251
0	2641	26.56362021776	0.018992121291
0	2646	26.582612339051	0.087628734033
0	2651	26.670241073084	0.041199550394
0	2656	26.711440623478	0.00819367331
0	2661	26.719634296788	0.194678737335
0	2667	26.914313034123	0.016567473927
0	2672	26.93088050805	0.00516699752
0	2676	26.93604750557	0.054788421492
0	2682	26.990835927062	0.06280449507
0	2687	27.053640422132	0.022399176472
0	2692	27.076039598604	0.091549306959
0	2698	27.167588905563	0.017195716379
0	2703	27.184784621942	0.027998352597
0	2708	27.212782974539	0.104100592978
0	2713	27.316883567517	0.004063896746
0	2717	27.320947464263	0.037393219297
0	2723	27.35834068356	0.27569429253
0	2728	27.63403497609	0.058447655283
0	2733	27.692482631373	0.044091101208
0	2738	27.736573732581	0.092436761324
0	2743	27.829010493905	0.031472485797
0	2748	27.860482979702	0.014138340122
0	2753	27.874621319824	0.015983276904
0	2758	27.890604596728	0.00987840725
0	2763	27.900483003978	0.053935361113
0	2768	27.954418365091	0.014229444531
0	2773	27.968647809622	0.004785297518
0	2777	27.97343310714	0.022767273082
0	2783	27.996200380222	0.019180837273
0	2788	28.015381217495	0.114587094199
0	2793	28.129968311694	0.05441568299
0	2798	28.184383994684	0.034691711018
0	2803	28.219075705702	0.011697694489
0	2808	28.230773400191	0.144829119707
0	2813	28.375602519898	0.021417759496
0	2818	28.397020279394	0.045129216114
0	2823	28.442149495508	0.096761072473
0	2828	28.538910567981	0.012279162931
0	2833	28.551189730912	0.066250749578
0	2838	28.61744048049	0.023060365853
0	2843	28.640500846343	0.006821138166
0	2847	28.647321984509	0.06095923795
0	2853	28.708281222459	0.025421300179
0	2858	28.733702522638	0.005658128607
0	2862	28.739360651245	0.001272416287
0	2865	28.740633067532	0.039044503783
0	2873	28.779677571315	0.022175269331
0	2879	28.801852840646	0.051740349492
0	2884	28.853593190138	0.004048249148
0	2888	28.857641439286	0.124138801754
0	2894	28.98178024104	0.131128857802
0	2899	29.112909098842	0.010821420525
0	2905	29.123730519367	0.042956878937
0	2910	29.166687398304	0.055189527291
0	2915	29.221876925595	0.063170431485
0	2920	29.28504735708	0.063719865397
0	2925	29.348767222477	0.019942100256
0	2930	29.368709322733	0.017469109901
0	2935	29.386178432634	0.004242600605
0	2939	29.390421033239	0.010818149516
0	2944	29.401239182755	0.016056840215
0	2950	29.41729602297	0.036114172366
0	2955	29.453410195336	0.025009376906
0	2960	29.478419572242	0.043050545774
0	2965	29.521470118016	0.039734868481
0	2970	29.561204986497	0.046693296403
0	2975	29.6078982829	0.002069120245
0	2979	29.609967403145	0.05008330171
0	2985	29.660050704855	0.071653259418
0	2990	29.731703964273	0.092843141021
0	2995	29.824547105294	0.020631423069
0	3000	29.845178528363	0.010224403668
0	3005	29.855402932031	0.030411824943
0	3010	29.885814756974	0.041000076263
0	3015	29.926814833237	0.035542581491
0	3020	29.962357414728	0.002051769203
0	3024	29.964409183931	0.022037271607
0	3030	29.986446455538	0.029878942447
0	3035	30.016325397985	0.144568322383
0	3040	30.160893720368	0.023254397175
0	3045	30.184148117543	0.024040325996
0	3050	30.208188443539	0.06176160674
0	3055	30.269950050279	0.064459192365
0	3060	30.334409242644	0.039018420234
0	3065	30.373427662878	0.023608569932
0	3070	30.39703623281	0.086007297473
0	3075	30.483043530283	0.011519324011
0	3080	30.494562854294	0.106150181499
0	3085	30.600713035793	0.129687019179
0	3091	30.730400054972	0.006665976507
0	3095	30.737066031479	0.014476668497
0	3101	30.751542699976	0.019875077656
0	3106	30.771417777632	0.139934303192
0	3111	30.911352080824	0.060110603893
0	3116	30.971462684717	0.041847635882
0	3121	31.013310320599	0.030427016061
0	3126	31.04373733666	0.013042497135
0	3131	31.056779833795	0.018261008039
0	3136	31.075040841834	0.07877276466
0	3141	31.153813606494	0.074793239309
0	3146	31.228606845803	0.030698748823
0	3151	31.259305594626	0.258944531867
0	3156	31.518250126493	0.028647868113
0	3161	31.546897994606	0.004423835731
0	3165	31.551321830337	0.078275395606
0	3171	31.629597225943	0.078923724361
0	3176	31.708520950304	0.040472091015
0	3181	31.748993041319	0.067088296099
0	3186	31.816081337418	0.006442833462
0	3190	31.82252417088	0.00608695135
0	3195	31.82861112223	0.020580714937
0	3201	31.849191837167	0.011327997828
0	3206	31.860519834995	0.041861018356
0	3211	31.902380853351	0.042039944178
0	3217	31.944420797529	0.005707997353
0	3221	31.950128794882	0.051990550401
0	3227	32.002119345283	0.13718167375
0	3232	32.139301019033	0.097037162041
0	3237	32.236338181074	0.011990294554
0	3242	32.248328475628	0.03830542423
0	3247	32.286633899858	0.105774891203
0	3252	32.392408791061	0.001182691642
0	3256	32.393591482703	0.042058826469
0	3262	32.435650309172	0.069603804129
0	3267	32.505254113301	0.038768677685
0	3272	32.544022790986	0.018238926583
0	3277	32.562261717569	0.053152548738
0	3282	32.615414266307	0.035735328246
0	3287	32.651149594553	0.021929218732
0	3292	32.673078813285	0.081734858513
0	3297	32.754813671798	0.065374977459
0	3302	32.820188649257	0.031631204779
0	3307	32.851819854036	0.041619329024
0	3312	32.89343918306	0.130319524255
0	3317	33.023758707315	0.054055576989
0	3322	33.077814284304	0.009716655509
0	3327	33.087530939813	0.02088028811
0	3332	33.108411227923	0.011296037428
0	3337	33.119707265351	0.011924722791
0	3342	33.131631988142	0.009767363905
0	3347	33.141399352047	0.060923555578
0	3352	33.202322907625	0.001646678286
0	3356	33.203969585911	0.057488658809
0	3363	33.26145824472	0.021874467423
0	3368	33.283332712143	0.041473684051
0	3373	33.324806396194	0.014942438414
0	3378	33.339748834608	0.196760758626
0	3383	33.536509593234	0.071843046403
0	3388	33.608352639637	0.028719623
0	3393	33.637072262637	0.000430217779
0	3397	33.637502480416	0.001486454939
0	3400	33.638988935355	0.044697734914
0	3408	33.683686670269	0.017988518622
0	3413	33.701675188891	0.046051839966
0	3418	33.747727028857	0.062443100587
0	3423	33.810170129444	0.003345969001
0	3427	33.813516098445	0.049041390659
0	3433	33.862557489104	0.060988848901
0	3438	33.923546338005	0.014460536082
0	3443	33.938006874087	0.041896393264
0	3448	33.979903267351	0.145760258068
0	3453	34.125663525419	0.218319681852
0	3458	34.343983207271	0.110544129018
0	3463	34.454527336289	0.030209071193
0	3468	34.484736407482	0.035644908058
0	3473	34.52038131554	0.030189434804
0	3478	34.550570750344	0.045445806042
0	3483	34.596016556386	0.001881161203
0	3487	34.597897717589	0.034662722802
0	3493	34.632560440391	0.001720703659
0	3497	34.63428114405	0.068617279424
0	3503	34.702898423474	0.031217341525
0	3508	34.734115764999	0.080482031604
0	3514	34.814597796603	0.094313847046
0	3519	34.908911643649	0.055058115654
0	3524	34.963969759303	0.044182462213
0	3529	35.008152221516	0.079008859569
0	3534	35.087161081085	0.014179782734
0	3539	35.101340863819	0.007851500535
0	3544	35.109192364354	0.158363305228
0	3549	35.267555669582	0.068572696787
0	3554	35.336128366369	0.135293213818
0	3560	35.471421580187	0.041906701326
0	3565	35.513328281513	0.029720335424
0	3570	35.543048616937	0.146966395447
0	3575	35.690015012384	0.02978666356
0	3580	35.719801675944	0.035557153917
0	3585	35.755358829861	0.017411386573
0	3590	35.772770216434	0.025629928358
0	3595	35.798400144792	0.000435278401
0	3599	35.798835423193	0.056564129826
0	3605	35.855399553019	0.002060227222
0	3609	35.857459780241	0.030502862091
0	3615	35.887962642332	0.095184453865
0	3620	35.983147096197	0.000934912559
0	3624	35.984082008756	0.338448133162
0	3630	36.322530141918	0.206752557416
0	3635	36.529282699334	0.044958155785
0	3640	36.574240855119	0.009602461002
0	3645	36.583843316121	0.031769051743
0	3650	36.615612367864	0.041518665158
0	3655	36.657131033022	0.077914203007
0	3660	36.735045236029	0.085663805287
0	3665	36.820709041316	0.033185710112
0	3670	36.853894751428	0.066857075505
0	3675	36.920751826933	0.021881704623
0	3680	36.942633531556	0.076293068474
0	3685	37.01892660003	0.00254001499
0	3689	37.02146661502	0.016926705463
0	3695	37.038393320483	0.24057742276
0	3700	37.278970743243	0.066461843641
0	3706	37.345432586884	0.160628071148
0	3711	37.506060658032	0.012301953301
0	3716	37.518362611333	0.00854300157
0	3721	37.526905612903	0.021785205082
0	3726	37.548690817985	0.015609474338
0	3731	37.564300292323	0.075731222235
0	3736	37.640031514558	0.021260915646
0	3741	37.661292430204	0.092654072724
0	3746	37.753946502928	0.040952506646
0	3751	37.794899009574	0.011448195345
0	3756	37.806347204919	0.00473678708
0	3760	37.811083991999	0.058290618653
0	3766	37.869374610652	0.06503333136
0	3771	37.934407942012	0.165939900992
0	3776	38.100347843004	0.000590697951
0	3780	38.100938540955	0.044832013343
0	3786	38.145770554298	0.031173178623
0	3791	38.176943732921	0.030656162505
0	3796	38.207599895426	0.018177305814
0	3801	38.22577720124	0.008489659296
0	3806	38.234266860536	0.051650998922
0	3811	38.285917859458	0.158715545351
0	3816	38.444633404809	0.227529944805
0	3821	38.672163349614	0.040908512928
0	3826	38.713071862542	0.007818242699
0	3831	38.720890105241	0.030575525085
0	3836	38.751465630326	0.048893859165
0	3841	38.800359489491	0.089233481063
0	3846	38.889592970554	0.028430885672
0	3851	38.918023856226	0.093724431621
0	3856	39.011748287847	0.231515242694
0	3861	39.243263530541	0.044162086108
0	3866	39.287425616649	0.100311745363
0	3872	39.387737362012	0.027918247324
0	3877	39.415655609336	0.062027698852
0	3882	39.477683308188	0.016638561073
0	3887	39.494321869261	0.053977039015
0	3892	39.548298908276	0.049079618932
0	3897	39.597378527208	0.015117716935
0	3902	39.612496244143	0.084401450781
0	3907	39.696897694924	0.011624906035
0	3912	39.708522600959	0.083800678059
0	3917	39.792323279018	0.029613787187
0	3922	39.821937066205	0.014086773407
0	3927	39.836023839612	0.023857226421
0	3932	39.859881066033	0.020233383675
0	3937	39.880114449708	0.017664813691
0	3942	39.897779263399	0.000805273159
0	3946	39.898584536558	0.009061313809
0	3951	39.907645850367	0.010674010596
0	3956	39.918319860963	0.05024360332
0	3962	39.968563464283	0.028170430659
0	3967	39.996733894942	0.017395568116
0	3972	40.014129463058	0.004959384237
0	3976	40.019088847295	0.033486862205
0	3982	40.0525757095	0.057514297523
0	3987	40.110090007023	0.012121970115
0	3992	40.122211977138	0.041215434542
0	3997	40.16342741168	0.061063339699
0	4002	40.224490751379	0.018059006424
0	4007	40.242549757803	0.017970110969
0	4012	40.260519868772	0.036286810949
0	4017	40.296806679721	0.015174202648
0	4022	40.311980882369	0.029337932763
0	4027	40.341318815132	0.070958421459
0	4032	40.412277236591	0.04968783972
0	4037	40.461965076311	0.092484746272
0	4042	40.554449822583	0.006260012352
0	4046	40.560709834935	0.046042399722
0	4052	40.606752234657	0.013836160417
0	4057	40.620588395074	0.011383127988
0	4062	40.631971523062	0.009717392605
0	4067	40.641688915667	0.012934298786
0	4072	40.654623214453	0.03006148026
0	4077	40.684684694713	0.003100447264
0	4081	40.687785141977	0.001996442326
0	4084	40.689781584303	0.003149334045
0	4089	40.692930918348	0.018831922422
0	4096	40.71176284077	0.031311563484
0	4102	40.743074404254	0.053526550629
0	4107	40.796600954883	0.045001595061
0	4113	40.841602549944	0.027591554707
0	4118	40.869194104651	0.00200200627
0	4122	40.871196110921	0.043331278567
0	4128	40.914527389488	0.013294623251
0	4133	40.927822012739	0.062960010661
0	4138	40.9907820234	0.008184952015
0	4143	40.998966975415	0.070279206839
0	4148	41.069246182254	0.080447365958
0	4153	41.149693548212	0.006760329553
0	4157	41.156453877765	0.004624333583
0	4162	41.161078211348	0.051659515555
0	4169	41.212737726903	0.003359136797
0	4173	41.2160968637	0.120390835402
0	4180	41.336487699102	0.005323632311
0	4184	41.341811331413	0.030730420994
0	4190	41.372541752407	0.036108978028
0	4195	41.408650730435	0.060605866246
0	4200	41.469256596681	0.001874715364
0	4204	41.471131312045	0.011036549788
0	4209	41.482167861833	0.144197994053
0	4215	41.626365855886	0.026195346559
0	4220	41.652561202445	0.247536335534
0	4225	41.900097537979	0.025242202771
0	4230	41.92533974075	0.008389196887
0	4235	41.933728937637	0.008152839778
0	4240	41.941881777415	0.00300418198
0	4244	41.944885959395	0.126856959718
0	4250	42.071742919113	0.034039850108
0	4255	42.105782769221	0.010375024751
0	4260	42.116157793972	0.09178206767
0	4265	42.207939861642	0.176713580689
0	4270	42.384653442331	0.01208640621
0	4275	42.396739848541	0.001335119902
0	4279	42.398074968443	0.005081512136
0	4282	42.403156480579	0.015288348955
0	4289	42.418444829534	0.019421558791
0	4295	42.437866388325	0.005260394945
0	4299	42.44312678327	0.084488039304
0	4305	42.527614822574	0.044975537133
0	4310	42.572590359707	0.022307631061
0	4315	42.594897990768	0.084773683433
0	4320	42.679671674201	0.021253924897
0	4325	42.700925599098	0.088103255327
0	4330	42.789028854425	0.078541098167
0	4335	42.867569952592	0.051559518439
0	4340	42.919129471031	0.049494884869
0	4345	42.9686243559	0.035600449666
0	4350	43.004224805566	0.030387765538
0	4355	43.034612571104	0.092571752198
0	4360	43.127184323302	0.015812149331
0	4365	43.142996472633	0.029096648288
0	4370	43.172093120921	0.071928058939
0	4375	43.24402117986	0.003876365546
0	4379	43.247897545406	0.055939861227
0	4385	43.303837406633	0.014157448093
0	4390	43.317994854726	0.034196359639
0	4395	43.352191214365	0.029219056256
0	4400	43.381410270621	0.030554794747
0	4405	43.411965065368	0.069405969372
0	4410	43.48137103474	0.019612354918
0	4415	43.500983389658	0.010355175652
0	4420	43.51133856531	0.041117608798
0	4425	43.552456174108	0.093855898037
0	4431	43.646312072145	0.034466481169
0	4436	43.680778553314	0.090163021452
0	4443	43.770941574766	0.035445894121
0	4448	43.806387468887	0.043344745828
0	4453	43.849732214715	0.043065516558
0	4458	43.892797731273	0.015438280042
0	4463	43.908236011315	0.089106598595
0	4468	43.99734260991	2.3475491e-005
0	4472	43.997366085401	0.045604518432
0	4478	44.042970603833	0.00557204088
0	4482	44.048542644713	0.037593412836
0	4488	44.086136057549	0.022952025178
0	4493	44.109088082727	0.092132964985
0	4498	44.201221047712	0.016899969185
0	4503	44.218121016897	0.008494435462
0	4508	44.226615452359	0.056956649511
0	4513	44.28357210187	0.078952975238
0	4518	44.362525077108	0.009226230192
0	4523	44.3717513073	0.081266761554
0	4528	44.453018068854	0.03244725562
0	4533	44.485465324474	0.07583150681
0	4538	44.561296831284	0.043388139365
0	4543	44.604684970649	0.054256226927
0	4548	44.658941197576	0.034328613779
0	4553	44.693269811355	0.001536846811
0	4557	44.694806658166	0.070033770014
0	4563	44.76484042818	0.023349373151
0	4568	44.788189801331	0.02559286104
0	4573	44.813782662371	0.042346163351
0	4578	44.856128825722	0.310462921678
0	4584	45.1665917474	0.027127763556
0	4589	45.193719510956	0.158897202697
0	4594	45.352616713653	0.102334570066
0	4599	45.454951283719	0.015138273373
0	4604	45.470089557092	0.121825900095
0	4609	45.591915457187	0.062168372212
0	4614	45.654083829399	0.012918445067
0	4619	45.667002274466	0.062915718185
0	4624	45.729917992651	0.048947256255
0	4629	45.778865248906	0.066735222311
0	4634	45.845600471217	0.042652870415
0	4639	45.888253341632	0.029733925248
0	4644	45.91798726688	0.044385801184
0	4649	45.962373068064	0.043132105086
0	4655	46.00550517315	0.201257243176
0	4660	46.206762416326	0.007237724411
0	4664	46.214000140737	0.005225969315
0	4669	46.219226110052	0.002861030102
0	4672	46.222087140154	0.139248279064
0	4681	46.361335419218	0.059232426643
0	4686	46.420567845861	0.011671895018
0	4691	46.432239740879	0.036518529142
0	4696	46.468758270021	0.044301702683
0	4701	46.513059972704	0.042403423413
0	4706	46.555463396117	0.020044559485
0	4711	46.575507955602	0.004427162881
0	4715	46.579935118483	0.010452183403
0	4720	46.590387301886	0.019973849128
0	4726	46.610361151014	0.018899704008
0	4731	46.629260855022	0.0123278563
0	4736	46.641588711322	0.042995586208
0	4741	46.68458429753	0.048251590439
0	4746	46.732835887969	0.019965542172
0	4751	46.752801430141	0.048661668004
0	4756	46.801463098145	0.047052566822
0	4761	46.848515664967	0.020056933957
0	4766	46.868572598924	0.020853931627
0	4771	46.889426530551	0.010693578806
0	4777	46.900120109357	0.097438677245
0	4782	46.997558786602	0.059916215385
0	4787	47.057475001987	0.001775040109
0	4791	47.059250042096	0.017770131556
0	4797	47.077020173652	0.089802795429
0	4802	47.166822969081	0.043450211662
0	4808	47.210273180743	0.000890158652
0	4812	47.211163339395	0.027739775255
0	4818	47.23890311465	0.018541817005
0	4823	47.257444931655	0.004510043001
0	4827	47.261954974656	0.000256535237
0	4830	47.262211509893	0.004595944156
0	4835	47.266807454049	0.067892620236
0	4843	47.334700074285	0.02864257563
0	4848	47.363342649915	0.033175261806
0	4853	47.396517911721	0.003235740287
0	4857	47.399753652008	0.036414355654
0	4863	47.436168007662	0.042663378947
0	4868	47.478831386609	0.006684251956
0	4872	47.485515638565	0.008916318113
0	4878	47.494431956678	0.072933487849
0	4884	47.567365444527	0.021879707849
0	4889	47.589245152376	0.045321748108
0	4894	47.634566900484	0.042774239867
0	4899	47.677341140351	0.035884214094
0	4904	47.713225354445	0.048469171827
0	4909	47.761694526272	0.153200310103
0	4914	47.914894836375	0.017881926618
0	4919	47.932776762993	0.013682187991
0	4924	47.946458950984	0.025072034326
0	4929	47.97153098531	0.017754871925
0	4934	47.989285857235	0.007958993615
0	4939	47.99724485085	0.152323257989
0	4944	48.149568108839	0.052490674313
0	4949	48.202058783152	0.092340977773
0	4954	48.294399760925	0.013249210043
0	4959	48.307648970968	0.075698813601
0	4964	48.383347784569	0.063924939224
0	4969	48.447272723793	0.003345877838
0	4973	48.450618601631	0.006255055316
0	4978	48.456873656947	0.039921355042
0	4984	48.496795011989	0.026019242962
0	4989	48.522814254951	0.003835340019
0	4993	48.52664959497	0.040379691526
0	4999	48.567029286496	0.07671417447
0	5004	48.643743460966	0.014287877127
0	5009	48.658031338093	0.04891730641
0	5014	48.706948644503	0.059743923453
0	5019	48.766692567956	0.01478758647
0	5024	48.781480154426	0.001698445614
0	5028	48.78317860004	0.13819620915
0	5034	48.92137480919	0.007162532187
0	5038	48.928537341377	0.022577442684
0	5044	48.951114784061	0.004544039407
0	5048	48.955658823468	0.01770999547
0	5054	48.973368818938	0.006565180931
0	5058	48.979933999869	0.000756511585
0	5061	48.980690511454	0.038178980157
0	5069	49.018869491611	0.044939647058
0	5074	49.063809138669	0.023059697504
0	5079	49.086868836173	0.05798081546
0	5084	49.144849651633	0.006368183272
0	5088	49.151217834905	0.025573025801
0	5094	49.176790860706	0.025781080637
0	5099	49.202571941343	0.001028672847
0	5103	49.20360061419	0.014892060862
0	5109	49.218492675052	0.028532792351
0	5114	49.247025467403	0.014376900951
0	5119	49.261402368354	0.057393786948
0	5124	49.318796155302	0.159025584403
0	5130	49.477821739705	0.034764202133
0	5135	49.512585941838	0.051116343981
0	5140	49.563702285819	0.026972767863
0	5145	49.590675053682	0.023402161263
0	5150	49.614077214945	0.098756573946
0	5155	49.712833788891	0.059968212224
0	5161	49.772802001115	0.082945597421
0	5166	49.855747598536	0.002436723379
0	5170	49.858184321915	0.028121863594
0	5176	49.886306185509	0.017364879916
0	5181	49.903671065425	0.172850375735
0	5186	50.07652144116	0.047216336056
0	5191	50.123737777216	0.001773662946
0	5195	50.125511440162	0.181110762009
0	5201	50.306622202171	0.155240858212
0	5206	50.461863060383	0.028394475164
0	5211	50.490257535547	0.003311763506
0	5215	50.493569299053	0.00754859716
0	5220	50.501117896213	0.018486386342
0	5226	50.519604282555	0.014959540088
0	5231	50.534563822643	0.027798122936
0	5236	50.562361945579	0.041052888567
0	5241	50.603414834146	0.068551739218
0	5246	50.671966573364	0.020093834983
0	5251	50.692060408347	0.006407855074
0	5255	50.698468263421	0.016423975491
0	5261	50.714892238912	0.019194856897
0	5266	50.734087095809	0.040119925798
0	5271	50.774207021607	0.094344799845
0	5276	50.868551821452	0.012166998271
0	5281	50.880718819723	0.000773713887
0	5285	50.88149253361	0.003509801419
0	5288	50.885002335029	0.129160012592
0	5296	51.014162347621	0.051535676535
0	5301	51.065698024156	0.024830219106
0	5306	51.090528243262	0.008632906955
0	5311	51.099161150217	0.05561495576
0	5316	51.154776105977	0.039795387991
0	5321	51.194571493968	0.055625764576
0	5326	51.250197258544	0.126032560552
0	5331	51.376229819096	0.005777763653
0	5335	51.382007582749	0.09132194456
0	5341	51.473329527309	0.016605637109
0	5346	51.489935164418	0.027559456586
0	5351	51.517494621004	0.020195770764
0	5356	51.537690391768	0.146414494977
0	5361	51.684104886745	0.094498479969
0	5366	51.778603366714	0.046601200455
0	5371	51.825204567169	0.119544954868
0	5376	51.944749522037	0.003127431601
0	5380	51.947876953638	0.011878203625
0	5385	51.959755157263	0.241292796281
0	5391	52.201047953544	0.028075033589
0	5396	52.229122987133	0.008117006284
0	5401	52.237239993417	0.038520284172
0	5406	52.275760277589	0.019824652184
0	5411	52.295584929773	0.001550940128
0	5415	52.297135869901	0.106575986508
0	5421	52.403711856409	0.018714221729
0	5426	52.422426078138	0.008848020108
0	5431	52.431274098246	0.008355874033
0	5436	52.439629972279	0.058952772115
0	5441	52.498582744394	0.03253669015
0	5446	52.531119434544	0.012691430582
0	5451	52.543810865126	0.124211657568
0	5456	52.668022522694	0.148435607388
0	5462	52.816458130082	0.003725833971
0	5466	52.820183964053	0.138633825255
0	5472	52.958817789308	0.148619642579
0	5477	53.107437431887	0.031539762621
0	5482	53.138977194508	0.082759229466
0	5487	53.221736423974	0.107955518575
0	5492	53.329691942549	0.022162242465
0	5497	53.351854185014	0.015713778485
0	5502	53.367567963499	0.090186857816
0	5507	53.457754821315	0.021736787588
0	5512	53.479491608903	0.013803748908
0	5517	53.493295357811	0.01704730382
0	5522	53.510342661631	0.007806196754
0	5527	53.518148858385	0.007663291876
0	5531	53.525812150261	0.03670040601
0	5537	53.562512556271	0.039162252079
0	5542	53.60167480835	0.003939319674
0	5546	53.605614128024	0.022020685556
0	5552	53.62763481358	0.12487522185
0	5557	53.75251003543	0.061089740688
0	5562	53.813599776118	0.139581028972
0	5567	53.95318080509	0.073089374125
0	5572	54.026270179215	0.01028624423
0	5577	54.036556423445	0.034627206425
0	5582	54.07118362987	0.01279515332
0	5587	54.08397878319	0.012448918742
0	5592	54.096427701932	0.069166410667
0	5597	54.165594112599	0.021403331905
0	5602	54.186997444504	0.058149498086
0	5607	54.24514694259	0.003521166494
0	5611	54.248668109084	0.032797694697
0	5617	54.281465803781	0.005823454002
0	5621	54.287289257783	0.192648163827
0	5627	54.47993742161	0.039666592395
0	5632	54.519604014005	0.054546643308
0	5637	54.574150657313	0.045575314571
0	5642	54.619725971884	0.042367267545
0	5647	54.662093239429	0.0418019101
0	5652	54.703895149529	0.045260653959
0	5657	54.749155803488	0.053076836957
0	5662	54.802232640445	0.013387052971
0	5667	54.815619693416	0.017066042937
0	5672	54.832685736353	0.013185791675
0	5677	54.845871528028	0.072541232743
0	5682	54.918412760771	0.019719923333
0	5687	54.938132684104	0.025693621318
0	5692	54.963826305422	0.005123933472
0	5696	54.968950238894	0.021621898577
0	5702	54.990572137471	0.114317613339
0	5707	55.10488975081	0.024079116313
0	5712	55.128968867123	0.01706354704
0	5717	55.146032414163	0.020322268251
0	5722	55.166354682414	0.058191690524
0	5727	55.224546372938	0.037944372134
0	5732	55.262490745072	0.122336028911
0	5737	55.384826773983	0.015777004284
0	5742	55.400603778267	0.002486389994
0	5746	55.403090168261	0.056209318041
0	5752	55.459299486302	0.00577774511
0	5756	55.465077231412	0.025156889235
0	5762	55.490234120647	0.079968950085
0	5767	55.570203070732	0.040514054275
0	5772	55.610717125007	0.060554514328
0	5777	55.671271639335	0.026887047574
0	5782	55.698158686909	0.015696232193
0	5787	55.713854919102	0.002411454144
0	5791	55.716266373246	0.099996937397
0	5797	55.816263310643	0.03055296435
0	5802	55.846816274993	0.040566790164
0	5807	55.887383065157	0.009660720376
0	5812	55.897043785533	0.070842758106
0	5817	55.967886543639	0.040006551887
0	5822	56.007893095526	0.000808457593
0	5826	56.008701553119	0.026004226571
0	5832	56.03470577969	0.0041245653
0	5836	56.03883034499	0.008117719048
0	5841	56.046948064038	0.057201059511
0	5847	56.104149123549	0.032767951603
0	5852	56.136917075152	0.004226191893
0	5856	56.141143267045	0.00836568126
0	5861	56.149508948305	0.080530898053
0	5867	56.230039846358	0.106460159535
0	5872	56.336500005893	0.003132391964
0	5876	56.339632397857	0.0038944198
0	5879	56.343526817657	0.029754352955
0	5887	56.373281170612	0.139760984549
0	5892	56.513042155161	0.010070335565
0	5897	56.523112490726	0.006516994119
0	5901	56.529629484845	0.000675531985
0	5904	56.53030501683	0.0663132245
0	5912	56.59661824133	0.02362725564
0	5917	56.62024549697	0.054502621773
0	5922	56.674748118743	0.078154068137
0	5927	56.75290218688	0.044933009697
0	5932	56.797835196577	0.02629643019
0	5937	56.824131626767	0.038153254711
0	5942	56.862284881478	0.048950897449
0	5947	56.911235778927	0.000196415603
0	5951	56.91143219453	0.008243507608
0	5956	56.919675702138	0.024278830893
0	5962	56.943954533031	0.072279933007
0	5967	57.016234466038	0.025712624375
0	5972	57.041947090413	0.003928192865
0	5976	57.045875283278	0.036488681983
0	5982	57.082363965261	0.068367393644
0	5988	57.150731358905	0.007241767705
0	5992	57.15797312661	0.062287623516
0	5998	57.220260750126	0.019668510841
0	6003	57.239929260967	0.048676618788
0	6008	57.288605879755	0.044258159439
0	6013	57.332864039194	0.084596679955
0	6018	57.417460719149	0.004781081459
0	6022	57.422241800608	0.009214338937
0	6027	57.431456139545	0.101773121254
0	6033	57.533229260799	0.102226337972
0	6038	57.635455598771	0.033269948643
0	6043	57.668725547414	0.020647127181
0	6048	57.689372674595	0.016135727904
0	6053	57.705508402499	0.028794457066
0	6058	57.734302859565	0.037896139544
0	6063	57.772198999109	0.012759637203
0	6068	57.784958636312	0.062600960891
0	6073	57.847559597203	0.141237815473
0	6079	57.988797412676	0.040595972932
0	6084	58.029393385608	0.00699220739
0	6088	58.036385592998	0.08727446357
0	6094	58.123660056568	0.006867018301
0	6098	58.130527074869	0.01108009511
0	6104	58.141607169979	0.05596666333
0	6109	58.197573833309	0.013190190405
0	6114	58.210764023714	0.05751752655
0	6119	58.268281550264	0.018268205303
0	6124	58.286549755567	0.064472255067
0	6129	58.351022010634	0.120010054832
0	6134	58.471032065466	0.023283259153
0	6139	58.494315324619	0.068090674169
0	6144	58.562405998788	0.032308746397
0	6149	58.594714745185	0.203440409999
0	6154	58.798155155184	0.001274935979
0	6158	58.799430091163	0.010676940693
0	6163	58.810107031856	0.139537604635
0	6169	58.949644636491	0.010838778392
0	6174	58.960483414883	0.047979158048
0	6179	59.008462572931	0.079144819162
0	6184	59.087607392093	0.03874208752
0	6189	59.126349479613	9.7511656e-005
0	6193	59.126446991269	0.004387829871
0	6196	59.13083482114	0.2438476481
0	6204	59.37468246924	0.006057001665
0	6208	59.380739470905	0.045932206908
0	6214	59.426671677813	0.066000080907
0	6219	59.49267175872	0.007886100114
0	6224	59.500557858834	0.012324242221
0	6229	59.512882101055	0.109276297826
0	6234	59.622158398881	0.027293754422
0	6239	59.649452153303	0.015720470172
0	6244	59.665172623475	0.016210783718
0	6249	59.681383407193	0.011125466919
0	6254	59.692508874112	0.17584898421
0	6259	59.868357858322	0.039679758486
0	6264	59.908037616808	0.089907303961
0	6269	59.997944920769	0.113312745482
0	6274	60.111257666251	0.12863770756
0	6279	60.239895373811	0.075266370613
0	6284	60.315161744424	0.015019791742
0	6289	60.330181536166	0.020651350628
0	6294	60.350832886794	0.112794409182
0	6299	60.463627295976	0.081033893713
0	6304	60.544661189689	0.003849787699
0	6308	60.548510977388	0.008850153822
0	6313	60.55736113121	0.091667893945
0	6320	60.649029025155	0.113245893365
0	6325	60.76227491852	0.005384155621
0	6329	60.767659074141	0.202739673697
0	6336	60.970398747838	0.014468636592
0	6341	60.98486738443	0.033639829862
0	6347	61.018507214292	0.000716918404
0	6351	61.019224132696	0.001119946371
0	6354	61.020344079067	0.085341687647
0	6362	61.105685766714	0.047735030486
0	6367	61.1534207972	0.014967226244
0	6372	61.168388023444	0.069202482193
0	6377	61.237590505637	0.05474631054
0	6382	61.292336816177	0.007849366205
0	6387	61.300186182382	0.028954790258
0	6392	61.32914097264	0.052061314922
0	6397	61.381202287562	0.035443242577
0	6402	61.416645530139	0.013990763895
0	6407	61.430636294034	0.084875059924
0	6412	61.515511353958	0.009563374667
0	6417	61.525074728625	0.047213236044
0	6422	61.572287964669	0.13881606358
0	6427	61.711104028249	0.055333186102
0	6432	61.766437214351	0.055109979692
0	6437	61.821547194043	0.138678670125
0	6442	61.960225864168	0.0005392362
0	6446	61.960765100368	0.027699353759
0	6452	61.988464454127	0.050708348661
0	6457	62.039172802788	0.182049780352
0	6462	62.22122258314	0.092878236919
0	6467	62.314100820059	0.014610498965
0	6472	62.328711319024	0.032307658777
0	6477	62.361018977801	0.029812860804
0	6482	62.390831838605	0.004131182219
0	6486	62.394963020824	0.0243185468
0	6492	62.419281567624	0.143522216327
0	6498	62.562803783951	0.004445611515
0	6502	62.567249395466	0.001710654772
0	6505	62.568960050238	0.037315086085
0	6513	62.606275136323	0.152734522574
0	6518	62.759009658897	0.136491811025
0	6523	62.895501469922	0.003466961214
0	6527	62.898968431136	0.024609314228
0	6533	62.923577745364	0.00744654677
0	6537	62.931024292134	0.040544804383
0	6543	62.971569096517	0.158872733421
0	6549	63.130441829938	0.025369348189
0	6554	63.155811178127	0.004237496805
0	6558	63.160048674932	0.016952907448
0	6564	63.17700158238	0.104363188053
0	6569	63.281364770433	0.031667069485
0	6574	63.313031839918	0.201791867301
0	6579	63.514823707219	0.012457757118
0	6584	63.527281464337	0.013474543287
0	6589	63.540756007624	0.037832485687
0	6594	63.578588493311	0.003169740423
0	6598	63.581758233734	0.06667594696
0	6604	63.648434180694	0.025496475852
0	6609	63.673930656546	0.196076605745
0	6615	63.870007262291	0.017804891414
0	6620	63.887812153705	0.042978832366
0	6625	63.930790986071	0.165272254912
0	6630	64.096063240983	0.137009567077
0	6635	64.23307280806	0.017018201685
0	6640	64.250091009745	0.02798807333
0	6645	64.278079083075	0.070690723659
0	6651	64.348769806734	0.067052600912
0	6656	64.415822407646	0.074661784846
0	6661	64.490484192492	0.087651934143
0	6666	64.578136126635	0.034744515703
0	6671	64.612880642338	0.059695022795
0	6676	64.672575665133	0.084147388402
0	6681	64.756723053535	0.043638886509
0	6686	64.800361940044	0.010203648696
0	6691	64.81056558874	0.006775395848
0	6695	64.817340984588	0.010436698281
0	6701	64.827777682869	0.005569774686
0	6705	64.833347457555	0.003086463061
0	6710	64.836433920616	0.081457835583
0	6716	64.917891756199	0.00981573849
0	6721	64.927707494689	0.008263209518
0	6726	64.935970704207	0.00638969378
0	6730	64.942360397987	0.081906094781
0	6736	65.024266492768	0.015938070422
0	6741	65.04020456319	0.028181940338
0	6746	65.068386503528	0.012076516751
0	6751	65.080463020279	0.024954759189
0	6756	65.105417779468	0.014289350658
0	6761	65.119707130126	0.015931829225
0	6766	65.135638959351	0.09670409951
0	6771	65.232343058861	0.043749061298
0	6776	65.276092120159	0.081312286199
0	6782	65.357404406358	0.0151699029
0	6787	65.372574309258	0.071956618247
0	6792	65.444530927505	0.023834197337
0	6797	65.468365124842	0.056921652473
0	6802	65.525286777315	0.090371933508
0	6807	65.615658710823	0.076683753402
0	6813	65.692342464225	0.01089009888
0	6818	65.703232563105	0.053589118714
0	6823	65.756821681819	0.00880515439
0	6828	65.765626836209	0.050162444541
0	6833	65.81578928075	0.006973107836
0	6837	65.822762388586	0.025647958848
0	6843	65.848410347434	0.013487484869
0	6848	65.861897832303	0.003388657035
0	6852	65.865286489338	0.075471128665
0	6858	65.940757618003	0.068044216193
0	6863	66.008801834196	0.158501435495
0	6868	66.167303269691	0.032382127437
0	6873	66.199685397128	0.06932280054
0	6878	66.269008197668	0.061038432264
0	6883	66.330046629932	0.178839255135
0	6888	66.508885885067	0.070450264691
0	6893	66.579336149758	0.047791881832
0	6898	66.62712803159	0.115063421791
0	6903	66.742191453381	0.045814803139
0	6908	66.78800625652	0.067076759746
0	6913	66.855083016266	0.030576859351
0	6918	66.885659875617	0.066017018272
0	6923	66.951676893889	0.100997364194
0	6928	67.052674258083	0.035022600861
0	6933	67.087696858944	0.119795581437
0	6938	67.207492440381	0.045751695511
0	6943	67.253244135892	0.017248139522
0	6948	67.270492275414	0.003333479924
0	6952	67.273825755338	0.006951322808
0	6957	67.280777078146	0.004087981027
0	6960	67.284865059173	0.082761964305
0	6968	67.367627023478	0.025186142094
0	6973	67.392813165572	0.018643779653
0	6978	67.411456945225	0.061231997437
0	6984	67.472688942662	0.044991067049
0	6989	67.517680009711	0.138125888201
0	6994	67.655805897912	0.16480960524
0	6999	67.820615503152	0.055424378431
0	7004	67.876039881583	0.015589031343
0	7009	67.891628912926	0.001326914944
0	7013	67.89295582787	0.021118633485
0	7019	67.914074461355	0.054541336845
0	7024	67.9686157982	0.095460081343
0	7029	68.064075879543	0.020955830222
0	7034	68.085031709765	0.010919600879
0	7039	68.095951310644	0.122204442811
0	7044	68.218155753455	0.027254942887
0	7049	68.245410696342	0.062104881262
0	7054	68.307515577604	0.020963410505
0	7059	68.328478988109	0.008907620571
0	7064	68.33738660868	0.009918857895
0	7069	68.347305466575	0.002200002057
0	7073	68.349505468632	0.02484607552
0	7079	68.374351544152	0.117969881065
0	7084	68.492321425217	0.031662152131
0	7089	68.523983577348	0.074010593211
0	7094	68.597994170559	0.037405495313
0	7099	68.635399665872	0.023445516029
0	7104	68.658845181901	0.082517538894
0	7109	68.741362720795	0.009014660276
0	7114	68.750377381071	0.095379862889
0	7119	68.84575724396	0.024819705252
0	7124	68.870576949212	0.072084799472
0	7129	68.942661748684	0.001973064186
0	7133	68.94463481287	0.015593929172
0	7139	68.960228742042	0.022344099241
0	7144	68.982572841283	0.193559405329
0	7149	69.176132246612	0.013617168365
0	7154	69.189749414977	0.002232025937
0	7158	69.191981440914	0.027230790951
0	7164	69.219212231865	0.128160806886
0	7169	69.347373038751	0.203371920828
0	7175	69.550744959579	0.059985290374
0	7180	69.610730249953	0.084693871428
0	7185	69.695424121381	0.074921220215
0	7190	69.770345341596	0.206116967053
0	7195	69.976462308649	0.021573940539
0	7200	69.998036249188	0.022310036481
0	7205	70.020346285669	0.046585393267
0	7210	70.066931678936	0.04386168793
0	7215	70.110793366866	0.120967744088
0	7221	70.231761110954	0.051659082733
0	7226	70.283420193687	0.058265726816
0	7231	70.341685920503	0.010708118561
0	7236	70.352394039064	0.005002052879
0	7240	70.357396091943	0.012481770747
0	7246	70.36987786269	0.062078520174
0	7251	70.431956382864	0.083145139932
0	7257	70.515101522796	0.028608753835
0	7262	70.543710276631	0.004739523514
0	7266	70.548449800145	0.012275182546
0	7272	70.560724982691	0.129856854289
0	7277	70.69058183698	0.204056667614
0	7282	70.894638504594	0.076095271787
0	7287	70.970733776381	0.005653827122
0	7291	70.976387603503	0.145870826638
0	7297	71.122258430141	0.059171409132
0	7302	71.181429839273	0.101797876275
0	7308	71.283227715548	0.181030160882
0	7313	71.46425787643	0.02057971567
0	7318	71.4848375921	0.036378140344
0	7323	71.521215732444	0.050354904806
0	7329	71.57157063725	0.115375904701
0	7334	71.686946541951	0.008959285728
0	7339	71.695905827679	0.036556649674
0	7344	71.732462477353	0.007482252354
0	7348	71.739944729707	0.023221035852
0	7354	71.763165765559	0.010439206159
0	7359	71.773604971718	0.009432532148
0	7364	71.783037503866	0.161514687015
0	7369	71.944552190881	0.176835216153
0	7374	72.121387407034	0.090647896026
0	7379	72.21203530306	0.032233254216
0	7384	72.244268557276	0.029218917631
0	7389	72.273487474907	0.006076624478
0	7393	72.279564099385	0.019868619713
0	7399	72.299432719098	0.026170580861
0	7404	72.325603299959	0.093969879119
0	7409	72.419573179078	0.087198320634
0	7414	72.506771499712	0.023911128001
0	7419	72.530682627713	0.029663942869
0	7424	72.560346570582	0.002858188529
0	7428	72.563204759111	0.10937749035
0	7434	72.672582249461	0.110346535935
0	7440	72.782928785396	0.011544715477
0	7445	72.794473500873	0.024156662032
0	7450	72.818630162905	0.068100186072
0	7455	72.886730348977	0.014538794119
0	7460	72.901269143096	0.079895794467
0	7465	72.981164937563	0.048461609728
0	7470	73.029626547291	0.001898904288
0	7474	73.031525451579	0.063724929855
0	7480	73.095250381434	0.028651093315
0	7485	73.123901474749	0.102046227752
0	7490	73.225947702501	0.029306761686
0	7495	73.255254464187	0.011654922211
0	7500	73.266909386398	0.044189076914
0	7505	73.311098463312	0.126801773072
0	7510	73.437900236384	0.023589165899
0	7515	73.461489402283	0.253947553399
0	7521	73.715436955682	0.021659054157
0	7526	73.737096009839	0.022944986015
0	7531	73.760040995854	0.086688855494
0	7536	73.846729851348	0.111143644956
0	7541	73.957873496304	0.004412839312
0	7545	73.962286335616	0.016165185883
0	7551	73.978451521499	0.002340204241
0	7555	73.98079172574	0.04586215393
0	7561	74.02665387967	0.014314646306
0	7566	74.040968525976	0.00203284586
0	7570	74.043001371836	0.006979990059
0	7575	74.049981361895	0.183246049639
0	7581	74.233227411534	0.325590452347
0	7586	74.558817863881	0.031075220414
0	7591	74.589893084295	0.029509642223
0	7597	74.619402726518	0.110492594235
0	7602	74.729895320753	0.023325044476
0	7607	74.753220365229	0.032360363682
0	7612	74.785580728911	0.018860288479
0	7617	74.80444101739	0.022451237553
0	7622	74.826892254943	0.020452988709
0	7627	74.847345243652	0.018539912936
0	7632	74.865885156588	0.040924576131
0	7637	74.906809732719	0.037910177986
0	7642	74.944719910705	0.004143821544
0	7646	74.948863732249	0.08139576389
0	7652	75.030259496139	0.011584845095
0	7657	75.041844341234	0.033353891762
0	7662	75.075198232996	0.048418554927
0	7667	75.123616787923	0.007473813818
0	7671	75.131090601741	0.105680843894
0	7677	75.236771445635	0.012103723162
0	7682	75.248875168797	0.021246113684
0	7687	75.270121282481	0.029742055677
0	7692	75.299863338158	0.021790626442
0	7697	75.3216539646	0.100170210283
0	7702	75.421824174883	0.026704646343
0	7707	75.448528821226	0.024489291887
0	7712	75.473018113113	0.043019625647
0	7717	75.51603773876	0.069506792837
0	7722	75.585544531597	0.023519772988
0	7727	75.609064304585	0.116542669087
0	7732	75.725606973672	0.106600083453
0	7737	75.832207057125	0.161451679281
0	7742	75.993658736406	0.095346974493
0	7747	76.089005710899	0.05944632244
0	7752	76.148452033339	0.040372090578
0	7757	76.188824123917	0.068105090448
0	7762	76.256929214365	0.109905703788
0	7768	76.366834918153	0.135624891005
0	7773	76.502459809158	0.028051410649
0	7778	76.530511219807	0.148668971694
0	7784	76.679180191501	0.012975653375
0	7789	76.692155844876	0.020782772889
0	7794	76.712938617765	0.013356677303
0	7799	76.726295295068	0.012402498279
0	7804	76.738697793347	0.023541360526
0	7809	76.762239153873	0.026594069677
0	7814	76.78883322355	0.025193647216
0	7819	76.814026870766	0.113326196596
0	7826	76.927353067362	0.055130923468
0	7831	76.98248399083	0.04601288094
0	7836	77.02849687177	0.024379210299
0	7841	77.052876082069	0.034418649357
0	7846	77.087294731426	0.011130953173
0	7851	77.098425684599	0.024623280414
0	7856	77.123048965013	0.001794259541
0	7860	77.124843224554	0.007206608157
0	7865	77.132049832711	0.022479530736
0	7871	77.154529363447	0.003494187905
0	7875	77.158023551352	0.021600297618
0	7881	77.17962384897	0.138333662948
0	7886	77.317957511918	0.057048213852
0	7891	77.37500572577	0.04380475022
0	7896	77.41881047599	0.032334238969
0	7901	77.451144714959	0.028277654551
0	7906	77.47942236951	0.118595197607
0	7911	77.598017567117	0.030596857129
0	7916	77.628614424246	0.029262984917
0	7921	77.657877409163	0.018322970071
0	7926	77.676200379234	0.008955861585
0	7931	77.685156240819	0.0116942165
0	7936	77.696850457319	7.1598256e-005
0	7940	77.696922055575	0.061421763875
0	7946	77.75834381945	0.097904570418
0	7951	77.856248389868	0.069403047086
0	7956	77.925651436954	0.010880016399
0	7961	77.936531453353	0.321706888459
0	7966	78.258238341812	0.012274058972
0	7971	78.270512400784	0.098064930503
0	7976	78.368577331287	0.100972488978
0	7981	78.469549820265	0.076356257233
0	7986	78.545906077498	0.035865337611
0	7991	78.581771415109	0.01597424987
0	7996	78.597745664979	0.0345490649
0	8001	78.632294729879	0.046522391673
0	8006	78.678817121552	0.047378088586
0	8012	78.726195210138	0.098161149176
0	8017	78.824356359314	0.002854491351
0	8021	78.827210850665	0.091673308624
0	8027	78.918884159289	0.033385438799
0	8032	78.952269598088	0.092260790337
0	8037	79.044530388425	0.005376835703
0	8041	79.049907224128	0.028731995659
0	8047	79.078639219787	0.019263133539
0	8052	79.097902353326	0.121805794931
0	8057	79.219708148257	0.059882818667
0	8062	79.279590966924	0.032321746015
0	8067	79.311912712939	0.017978054814
0	8072	79.329890767753	0.040858609285
0	8077	79.370749377038	0.031089828675
0	8082	79.401839205713	0.062247445138
0	8087	79.464086650851	0.00596708206
0	8091	79.470053732911	0.050210147177
0	8097	79.520263880088	0.000920955658
0	8101	79.521184835746	0.241931429988
0	8107	79.763116265734	0.154070922481
0	8112	79.917187188215	0.010587599076
0	8117	79.927774787291	0.02662217259
0	8122	79.954396959881	0.022748483589
0	8127	79.97714544347	0.070544096675
0	8132	80.047689540145	0.172010795362
0	8138	80.219700335507	0.046315805236
0	8143	80.266016140743	0.085616490305
0	8148	80.351632631048	0.003486954615
0	8152	80.355119585663	0.156004480803
0	8158	80.511124066466	0.0310064984
0	8163	80.542130564866	0.008885072773
0	8168	80.551015637639	0.00706136135
0	8172	80.558076998989	0.064502375592
0	8178	80.622579374581	0.048617996349
0	8183	80.67119737093	0.042099703083
0	8188	80.713297074013	0.039426051122
0	8193	80.752723125135	0.064554224506
0	8198	80.817277349641	0.038326314498
0	8203	80.855603664139	0.056878905204
0	8208	80.912482569343	0.01543007695
0	8213	80.927912646293	0.03293749955
0	8218	80.960850145843	0.006999306227
0	8222	80.96784945207	0.004778380305
0	8227	80.972627832375	0.101021696306
0	8233	81.073649528681	0.009974634716
0	8238	81.083624163397	0.09255061025
0	8243	81.176174773647	0.016798069089
0	8248	81.192972842736	0.014135914829
0	8253	81.207108757565	0.04495769174
0	8258	81.252066449305	0.134898398316
0	8263	81.386964847621	0.018187559755
0	8268	81.405152407376	0.037807633809
0	8273	81.442960041185	0.034648376367
0	8278	81.477608417552	0.038498422429
0	8283	81.516106839981	0.008198553587
0	8288	81.524305393568	0.034907998445
0	8293	81.559213392013	0.062535195092
0	8299	81.621748587105	0.011186954815
0	8304	81.63293554192	0.103515703758
0	8309	81.736451245678	0.21559418872
0	8314	81.952045434398	0.0219020423
0	8319	81.973947476698	0.093422681646
0	8324	82.067370158344	0.019015316507
0	8329	82.086385474851	0.026536466252
0	8334	82.112921941103	0.103794332616
0	8339	82.216716273719	0.015653354159
0	8345	82.232369627878	0.021206237783
0	8350	82.253575865661	0.133377119608
0	8355	82.386952985269	0.04154658414
0	8360	82.428499569409	0.03786608216
0	8365	82.466365651569	0.022326690428
0	8370	82.488692341997	0.090176858958
0	8375	82.578869200955	0.110086470344
0	8380	82.688955671299	0.042327862185
0	8385	82.731283533484	0.028776132104
0	8390	82.760059665588	0.043002273338
0	8395	82.803061938926	0.019832707975
0	8401	82.822894646901	0.059139759916
0	8406	82.882034406817	0.016975524545
0	8411	82.899009931362	0.05463477123
0	8416	82.953644702592	0.005795710947
0	8420	82.959440413539	0.034697322866
0	8426	82.994137736405	0.00081064817
0	8430	82.994948384575	0.027810296976
0	8436	83.022758681551	0.035302272339
0	8441	83.05806095389	0.000853594679
0	8445	83.058914548569	0.057361363309
0	8451	83.116275911878	0.016580346492
0	8456	83.13285625837	0.005450352254
0	8460	83.138306610624	0.02891086328
0	8466	83.167217473904	0.016006452353
0	8471	83.183223926257	0.005409367531
0	8475	83.188633293788	0.096618270871
0	8482	83.285251564659	0.050721440952
0	8488	83.335973005611	0.046965238654
0	8493	83.382938244265	0.016442526445
0	8498	83.39938077071	0.064204471999
0	8503	83.463585242709	0.051640564216
0	8508	83.515225806925	0.03220293739
0	8513	83.547428744315	0.082537922978
0	8518	83.629966667293	0.033587998053
0	8523	83.663554665346	0.035062033509
0	8528	83.698616698855	0.122633850838
0	8533	83.821250549693	0.006028472129
0	8537	83.827279021822	0.027490489228
0	8543	83.85476951105	0.038792528897
0	8548	83.893562039947	0.077212836811
0	8553	83.970774876758	0.110184994302
0	8559	84.08095987106	0.048605726932
0	8564	84.129565597992	0.011985244156
0	8569	84.141550842148	0.010366521431
0	8574	84.151917363579	0.017652464124
0	8579	84.169569827703	0.181380611363
0	8584	84.350950439066	0.028066672242
0	8589	84.379017111308	0.047739112762
0	8594	84.42675622407	0.009694428569
0	8599	84.436450652639	0.021296614385
0	8604	84.457747267024	0.004498322891
0	8608	84.462245589915	0.010437487365
0	8613	84.47268307728	0.000243752151
0	8616	84.472926829431	0.098614035599
0	8625	84.57154086503	0.131509556454
0	8630	84.703050421484	0.176413602649
0	8636	84.879464024133	0.025648207537
0	8641	84.90511223167	0.166870939367
0	8646	85.071983171037	0.011908919178
0	8651	85.083892090215	0.046475829025
0	8656	85.13036791924	0.01948849027
0	8661	85.14985640951	0.03923790511
0	8666	85.18909431462	0.0375836556
0	8671	85.22667797022	0.027666773056
0	8676	85.254344743276	0.008430955583
0	8681	85.262775698859	0.009212966686
0	8686	85.271988665545	0.015194618654
0	8691	85.287183284199	0.002826163511
0	8695	85.29000944771	0.030521587619
0	8701	85.320531035329	0.027305616783
0	8706	85.347836652112	0.069512600911
0	8712	85.417349253023	0.02210091778
0	8717	85.439450170803	0.088777909517
0	8722	85.52822808032	0.019363182054
0	8727	85.547591262374	0.054744305455
0	8732	85.602335567829	0.052807992591
0	8737	85.65514356042	0.09873288209
0	8743	85.75387644251	0.017165392736
0	8748	85.771041835246	0.001922424411
0	8752	85.772964259657	0.016894264962
0	8758	85.789858524619	0.120960701103
0	8763	85.910819225722	0.031477874506
0	8768	85.942297100228	0.107780441058
0	8773	86.050077541286	0.074981878371
0	8778	86.125059419657	0.027480324864
0	8783	86.152539744521	0.060296733972
0	8788	86.212836478493	0.036380455402
0	8793	86.249216933895	0.010631182049
0	8798	86.259848115944	0.122487264714
0	8803	86.382335380658	0.039880323113
0	8808	86.422215703771	0.036574570313
0	8813	86.458790274084	0.043329507254
0	8818	86.502119781338	0.018186531771
0	8823	86.520306313109	0.052936831672
0	8828	86.573243144781	0.017002944374
0	8833	86.590246089155	0.012907892442
0	8838	86.603153981597	0.049525687464
0	8843	86.652679669061	0.13031586979
0	8848	86.782995538851	0.034956744727
0	8853	86.817952283578	0.111033076489
0	8858	86.928985360067	0.023462552182
0	8863	86.952447912249	0.03117839563
0	8868	86.983626307879	0.029669959057
0	8873	87.013296266936	0.024938344761
0	8878	87.038234611697	0.003950735641
0	8882	87.042185347338	0.015573433605
0	8888	87.057758780943	0.022790215526
0	8893	87.080548996469	0.000272391823
0	8897	87.080821388292	0.031211666088
0	8903	87.11203305438	0.01960700353
0	8908	87.13164005791	0.03413283936
0	8913	87.16577289727	0.102647895467
0	8919	87.268420792737	0.014891529483
0	8924	87.28331232222	0.067907509353
0	8929	87.351219831573	0.006917026499
0	8933	87.358136858072	0.041032745715
0	8939	87.399169603787	0.020593973248
0	8944	87.419763577035	0.009377492105
0	8949	87.42914106914	0.027694624128
0	8954	87.456835693268	0.005270230458
0	8958	87.462105923726	0.07688287422
0	8964	87.538988797946	0.042576254065
0	8969	87.581565052011	0.03559378539
0	8974	87.617158837401	0.014031009124
0	8979	87.631189846525	0.035109292372
0	8984	87.666299138897	0.066204493435
0	8989	87.732503632332	0.058830161719
0	8994	87.791333794051	0.045679831747
0	8999	87.837013625798	0.042048397413
0	9004	87.879062023211	0.006583154199
0	9008	87.88564517741	0.078657777351
0	9014	87.964302954761	0.055789791616
0	9019	88.020092746377	0.044323616557
0	9024	88.064416362934	0.132341865516
0	9030	88.19675822845	0.044172036592
0	9035	88.240930265042	0.023280824072
0	9040	88.264211089114	0.037697367985
0	9045	88.301908457099	0.019027809746
0	9050	88.320936266845	0.058969364279
0	9056	88.379905631124	0.027132083836
0	9061	88.40703771496	0.094509385375
0	9066	88.501547100335	0.000252136962
0	9070	88.501799237297	0.032965790274
0	9076	88.534765027571	0.088138378396
0	9081	88.622903405967	0.062259086666
0	9086	88.685162492633	0.044481467251
0	9091	88.729643959884	0.007485773019
0	9095	88.737129732903	0.003640967532
0	9100	88.740770700435	0.149228773336
0	9106	88.889999473771	0.009118099642
0	9111	88.899117573413	0.02205288861
0	9116	88.921170462023	0.021607734146
0	9121	88.942778196169	0.064700216911
0	9126	89.00747841308	0.006972240269
0	9130	89.014450653349	0.171682322067
0	9136	89.186132975416	0.057816033785
0	9142	89.243949009201	0.002831356633
0	9147	89.246780365834	0.006839459602
0	9152	89.253619825436	0.028632527804
0	9158	89.28225235324	0.002362136612
0	9162	89.284614489852	0.018218108775
0	9168	89.302832598627	0.018282989268
0	9173	89.321115587895	0.066045623766
0	9178	89.387161211661	0.015559688143
0	9183	89.402720899804	0.020305493265
0	9188	89.423026393069	0.100480477812
0	9193	89.523506870881	0.004586669928
0	9197	89.528093540809	0.015921218852
0	9203	89.544014759661	0.057867640245
0	9208	89.601882399906	0.032416847268
0	9214	89.634299247174	0.004415601323
0	9218	89.638714848497	0.01098235844
0	9223	89.649697206937	0.198668106404
0	9229	89.848365313341	0.01059629556
0	9234	89.858961608901	0.127372637646
0	9239	89.986334246547	0.032912910524
0	9244	90.019247157071	0.107703033573
0	9249	90.126950190644	0.002996882814
0	9253	90.129947073458	0.232603403986
0	9259	90.362550477444	0.005748174015
0	9263	90.368298651459	0.119810400228
0	9269	90.488109051687	0.004903660863
0	9273	90.49301271255	0.00050156964
0	9276	90.49351428219	0.035258621314
0	9284	90.528772903504	0.010227795001
0	9289	90.539000698505	0.042179992284
0	9294	90.581180690789	0.057406221974
0	9299	90.638586912763	0.046918114717
0	9304	90.68550502748	0.009797335812
0	9309	90.695302363292	0.049164036988
0	9314	90.74446640028	0.014656663375
0	9320	90.759123063655	0.144518767105
0	9325	90.90364183076	0.01216531351
0	9330	90.91580714427	0.004679986636
0	9334	90.920487130906	0.048540636683
0	9340	90.969027767589	0.009277585048
0	9345	90.978305352637	0.056865912273
0	9350	91.03517126491	0.043804742644
0	9355	91.078976007554	0.024980256338
0	9360	91.103956263892	0.088807968873
0	9365	91.192764232765	0.105395462946
0	9372	91.298159695711	0.204286618693
0	9377	91.502446314404	0.008070904632
0	9382	91.510517219036	0.005593133156
0	9386	91.516110352192	0.124004855068
0	9393	91.64011520726	0.000910930841
0	9397	91.641026138101	0.037885028932
0	9403	91.678911167033	0.017197002204
0	9408	91.696108169237	0.029773029897
0	9413	91.725881199134	0.13663103422
0	9418	91.862512233354	0.000177700173
0	9422	91.862689933527	0.061447360297
0	9428	91.924137293824	0.136387059902
0	9433	92.060524353726	0.05337501236
0	9438	92.113899366086	0.125403410498
0	9443	92.239302776584	0.00280063454
0	9447	92.242103411124	0.137049851523
0	9453	92.379153262647	0.007839208362
0	9458	92.386992471009	0.017585137057
0	9463	92.404577608066	0.080477757663
0	9468	92.485055365729	0.036224530741
0	9473	92.52127989647	0.015481423799
0	9478	92.536761320269	0.174693772134
0	9483	92.711455092403	0.030527106393
0	9488	92.741982198796	0.11783885985
0	9493	92.859821058646	0.007272239688
0	9497	92.867093298334	0.078793375568
0	9503	92.945886673902	0.005465771373
0	9507	92.951352445275	0.015326600852
0	9513	92.966679046127	0.039086315696
0	9518	93.005765361823	0.001845974139
0	9522	93.007611335962	0.025842198865
0	9528	93.033453534827	0.047485192759
0	9533	93.080938727586	0.012781693428
0	9538	93.093720421014	0.02210939047
0	9543	93.115829811484	0.008637497395
0	9548	93.124467308879	0.034806522578
0	9553	93.159273831457	0.058630465682
0	9559	93.217904297139	0.057705983935
0	9564	93.275610281074	0.042524772114
0	9569	93.318135053188	0.05471469426
0	9574	93.372849747448	0.003815451837
0	9578	93.376665199285	0.031243346289
0	9584	93.407908545574	0.017734685039
0	9589	93.425643230613	0.029487241352
0	9594	93.455130471965	0.060290763481
0	9599	93.515421235446	0.059991914964
0	9604	93.57541315041	0.080536237912
0	9609	93.655949388322	0.009661268911
0	9614	93.665610657233	0.029404216968
0	9619	93.695014874201	0.028157964341
0	9624	93.723172838542	0.066406011964
0	9629	93.789578850506	0.026978676652
0	9634	93.816557527158	0.00807791147
0	9639	93.824635438628	0.022244902433
0	9644	93.846880341061	0.022686310183
0	9649	93.869566651244	0.041160039948
0	9654	93.910726691192	0.018857711137
0	9659	93.929584402329	0.024711554556
0	9664	93.954295956885	0.075880886684
0	9669	94.030176843569	0.002720290213
0	9673	94.032897133782	0.035297598348
0	9680	94.06819473213	0.003352916933
0	9684	94.071547649063	0.020210904922
0	9690	94.091758553985	0.144405748474
0	9695	94.236164302459	0.041288794181
0	9700	94.27745309664	0.013823384073
0	9705	94.291276480713	0.083095763909
0	9710	94.374372244622	0.028267078696
0	9715	94.402639323318	0.023127233495
0	9720	94.425766556813	0.018189837853
0	9725	94.443956394666	0.039662579204
0	9730	94.48361897387	0.046697559267
0	9735	94.530316533137	0.048929253797
0	9740	94.579245786934	0.006201048162
0	9744	94.585446835096	0.011417099173
0	9750	94.596863934269	0.014189081739
0	9755	94.611053016008	0.060812014612
0	9760	94.67186503062	0.044014534577
0	9765	94.715879565197	0.084868877804
0	9770	94.800748443001	0.003310432009
0	9774	94.80405887501	0.028698837192
0	9780	94.832757712202	0.029551702652
0	9785	94.862309414854	0.044327859963
0	9790	94.906637274817	0.086271336175
0	9795	94.992908610992	0.000523574609
0	9799	94.993432185601	0.001889202603
0	9802	94.995321388204	0.024647415418
0	9810	95.019968803622	0.026844888616
0	9815	95.046813692238	0.020031253564
0	9820	95.066844945802	0.010019759763
0	9825	95.076864705565	0.098074688866
0	9830	95.174939394431	0.079229843622
0	9835	95.254169238053	0.001720708539
0	9839	95.255889946592	0.005745760274
0	9842	95.261635706866	0.0224086827
0	9850	95.284044389566	0.065779353898
0	9856	95.349823743464	0.051066540167
0	9861	95.400890283631	0.000138031098
0	9865	95.401028314729	0.002480376314
0	9868	95.403508691043	0.051932627312
0	9876	95.455441318355	0.098394657446
0	9882	95.553835975801	0.032356576422
0	9887	95.586192552223	0.014388532506
0	9892	95.600581084729	0.0206052965
0	9897	95.621186381229	0.03350173503
0	9902	95.654688116259	0.007414823824
0	9906	95.662102940083	0.040562680801
0	9912	95.702665620884	0.012356097473
0	9917	95.715021718357	0.021494986151
0	9922	95.736516704508	0.117927540665
0	9928	95.854444245173	0.032135255471
0	9933	95.886579500644	0.032210924752
0	9938	95.918790425396	0.095166204446
0	9943	96.013956629842	0.010388962989
0	9948	96.024345592831	0.013094280729
0	9953	96.03743987356	0.054480191675
0	9958	96.091920065235	0.000445219405
0	9962	96.09236528464	0.000718902997
0	9965	96.093084187637	0.046510333935
0	9973	96.139594521572	0.05557440407
0	9978	96.195168925642	0.030551659762
0	9983	96.225720585404	0.039508046676
0	9988	96.26522863208	0.053284137571
0	9993	96.318512769651	0.038440123972
0	9998	96.356952893623	0.018867849924
0	10003	96.375820743547	0.008350731152
0	10008	96.384171474699	0.033522368306
0	10013	96.417693843005	0.155916144777
0	10018	96.573609987782	0.022380946627
0	10023	96.595990934409	0.002590465594
0	10027	96.598581400003	0.011216060297
0	10032	96.6097974603	0.001391104232
0	10035	96.611188564532	0.032287042109
0	10043	96.643475606641	0.040997969983
0	10048	96.684473576624	0.035094113116
0	10053	96.71956768974	0.022437723243
0	10059	96.742005412983	0.009812652314
0	10064	96.751818065297	0.121739163078
0	10069	96.873557228375	0.035258198824
0	10074	96.908815427199	0.18780832715
0	10079	97.096623754349	0.012280595983
0	10084	97.108904350332	0.016779094494
0	10089	97.125683444826	0.037124021408
0	10095	97.162807466234	0.066012927274
0	10100	97.228820393508	0.079628376309
0	10105	97.308448769817	0.043473395006
0	10110	97.351922164823	0.079458240051
0	10115	97.431380404874	0.04071367433
0	10120	97.472094079204	0.050026839814
0	10125	97.522120919018	0.057367624037
0	10130	97.579488543055	0.034392538104
0	10135	97.613881081159	0.004850992995
0	10139	97.618732074154	0.011565976518
0	10145	97.630298050672	0.01449095963
0	10150	97.644789010302	0.023453165972
0	10155	97.668242176274	0.048006116507
0	10160	97.716248292781	0.164647428651
0	10165	97.880895721432	0.054456005892
0	10170	97.935351727324	0.09744463539
0	10175	98.032796362714	0.02022965117
0	10180	98.053026013884	0.002738203896
0	10184	98.05576421778	0.022353750393
0	10190	98.078117968173	0.069232701708
0	10195	98.147350669881	0.054122648999
0	10200	98.20147331888	0.059282712212
0	10205	98.260756031092	0.014268954462
0	10210	98.275024985554	0.102610643472
0	10215	98.377635629026	0.002000213259
0	10219	98.379635842285	0.024664791458
0	10225	98.404300633743	0.025399724581
0	10230	98.429700358324	0.104222641411
0	10235	98.533922999735	0.061447780762
0	10240	98.595370780497	0.010819001258
0	10245	98.606189781755	0.028597972272
0	10250	98.634787754027	0.005540801176
0	10254	98.640328555203	0.043415904548
0	10260	98.683744459751	0.192418148621
0	10265	98.876162608372	0.047912201484
0	10271	98.924074809856	0.057734890394
0	10276	98.98180970025	0.166136038517
0	10281	99.147945738767	0.00648087029
0	10285	99.154426609057	0.048539780361
0	10292	99.202966389418	0.051239133465
0	10297	99.254205522883	0.031346393804
0	10302	99.285551916687	0.01520118989
0	10307	99.300753106577	0.016441739922
0	10312	99.317194846499	0.194379113145
0	10319	99.511573959644	0.024266352575
0	10324	99.535840312219	0.163591014526
0	10329	99.699431326745	0.016571595122
0	10334	99.716002921867	0.003407868337
0	10338	99.719410790204	0.00444405239
0	10343	99.723854842594	0.015726207043
0	10349	99.739581049637	0.234123356109
0	10354	99.973704405746	0.013007771049
0	10359	99.986712176795	0.019782397472
0	10364	100.006494574267	0.046920418869
0	10369	100.053414993136	0.05175133495
0	10374	100.105166328086	0.190376714549
0	10379	100.295543042635	0.05371762458
0	10384	100.349260667215	0.08637556674
0	10389	100.435636233955	0.085493987281
0	10394	100.521130221236	0.173158085272
0	10399	100.694288306508	0.013363678307
0	10404	100.707651984815	0.078669689198
0	10409	100.786321674013	0.028058301335
0	10414	100.814379975348	0.002471399355
0	10418	100.816851374703	0.041835059321
0	10425	100.858686434024	0.037217908638
0	10430	100.895904342662	0.046769375039
0	10435	100.942673717701	0.003695054527
0	10439	100.946368772228	0.03336343535
0	10445	100.979732207578	0.023933190724
0	10450	101.003665398302	0.124219394062
0	10455	101.127884792364	0.086396010821
0	10460	101.214280803185	0.005976798774
0	10464	101.220257601959	0.02799295158
0	10470	101.248250553539	0.095257419253
0	10476	101.343507972792	0.158093823225
0	10481	101.501601796017	0.020202890191
0	10486	101.521804686208	0.02283749574
0	10491	101.544642181948	0.006459097518
0	10495	101.551101279466	0.037675361935
0	10501	101.588776641401	0.006080028585
0	10505	101.594856669986	0.005560654121
0	10510	101.600417324107	0.044272156876
0	10516	101.644689480983	0.088250365491
0	10521	101.732939846474	0.022140594737
0	10526	101.755080441211	0.001637173959
0	10530	101.75671761517	0.014210741199
0	10536	101.770928356369	0.066999660115
0	10543	101.837928016484	0.206137763936
0	10548	102.04406578042	0.022132435084
0	10553	102.066198215504	0.056908580632
0	10558	102.123106796136	0.064473026671
0	10563	102.187579822807	0.078981224175
0	10568	102.266561046982	0.050884371898
0	10573	102.31744541888	0.007696855438
0	10577	102.325142274318	0.021091956797
0	10583	102.346234231115	0.054164301226
0	10588	102.400398532341	0.002844287891
0	10592	102.403242820232	0.024815600506
0	10598	102.428058420738	0.051282044712
0	10603	102.47934046545	0.055158154905
0	10608	102.534498620355	0.002287748661
0	10612	102.536786369016	0.099309405192
0	10618	102.636095774208	0.116224331985
0	10623	102.752320106193	0.00898119078
0	10628	102.761301296973	0.012569510539
0	10633	102.773870807512	0.132069643562
0	10638	102.905940451074	0.02150193647
0	10643	102.927442387544	0.049066490726
0	10648	102.97650887827	0.038502416501
0	10653	103.015011294771	0.015989989019
0	10658	103.03100128379	0.059245241772
0	10663	103.090246525562	0.021593086887
0	10668	103.111839612449	0.113380633734
0	10673	103.225220246183	0.023524966298
0	10678	103.248745212481	0.002271910039
0	10682	103.25101712252	0.045008425248
0	10688	103.296025547768	0.048979989425
0	10693	103.345005537193	0.032897792512
0	10699	103.377903329705	0.062434263486
0	10704	103.440337593191	0.002822874629
0	10708	103.44316046782	0.087810539223
0	10714	103.530971007043	0.010054179128
0	10719	103.541025186171	0.018544738568
0	10724	103.559569924739	0.078318127178
0	10729	103.637888051917	0.037622788671
0	10734	103.675510840588	0.099359894867
0	10740	103.774870735455	0.006663085327
0	10744	103.781533820782	0.043534117425
0	10750	103.825067938207	0.010999075913
0	10755	103.83606701412	0.065922505197
0	10760	103.901989519317	0.00333550649
0	10764	103.905325025807	0.030450078389
0	10770	103.935775104196	0.051375107529
0	10775	103.987150211725	0.005877976361
0	10779	103.993028188086	0.050400021843
0	10785	104.043428209929	0.024533799041
0	10790	104.06796200897	0.032745660135
0	10795	104.100707669105	0.312446323819
0	10800	104.413153992924	0.004606555118
0	10804	104.417760548042	0.044232753644
0	10810	104.461993301686	0.005567516911
0	10814	104.467560818597	0.013895254567
0	10820	104.481456073164	0.147523354782
0	10825	104.628979427946	0.01360811666
0	10830	104.642587544606	0.044125351951
0	10835	104.686712896557	0.101460455166
0	10840	104.788173351723	0.070178041301
0	10845	104.858351393024	0.047239057781
0	10850	104.905590450805	0.099749523386
0	10855	105.005339974191	0.046388436931
0	10860	105.051728411122	0.009059869687
0	10865	105.060788280809	0.001325158686
0	10869	105.062113439495	0.096855893985
0	10875	105.15896933348	0.049626107904
0	10880	105.208595441384	0.026570994179
0	10885	105.235166435563	0.030024799832
0	10890	105.265191235395	0.076580586769
0	10895	105.341771822164	0.001755976105
0	10899	105.343527798269	0.182832547101
0	10906	105.52636034537	0.000636660333
0	10910	105.526997005703	0.040497903973
0	10916	105.567494909676	0.074923015167
0	10921	105.642417924843	0.001632421047
0	10925	105.64405034589	0.018501573691
0	10931	105.662551919581	0.009976714086
0	10936	105.672528633667	0.149348008576
0	10941	105.821876642243	0.013899355863
0	10946	105.835775998106	0.05969856186
0	10951	105.895474559966	0.009894738333
0	10956	105.905369298299	0.036345028491
0	10961	105.94171432679	0.021404306865
0	10966	105.963118633655	0.034007998187
0	10971	105.997126631842	0.038356029859
0	10976	106.035482661701	0.032122195706
0	10981	106.067604857407	0.011406331888
0	10986	106.079011189295	0.200114163076
0	10991	106.279125352371	0.003227142844
0	10995	106.282352495215	0.043127803251
0	11001	106.325480298466	0.001889205154
0	11005	106.32736950362	0.016676954888
0	11011	106.344046458508	0.006114787056
0	11015	106.350161245564	0.003456695309
0	11020	106.353617940873	0.061194967505
0	11026	106.414812908378	0.054807433689
0	11031	106.469620342067	0.023287315491
0	11036	106.492907657558	0.013760592887
0	11041	106.506668250445	0.008793791377
0	11046	106.515462041822	0.005093249126
0	11050	106.520555290948	0.045965682886
0	11056	106.566520973834	0.000326737406
0	11060	106.56684771124	0.145152899785
0	11066	106.712000611025	0.001282228784
0	11070	106.713282839809	0.009601343929
0	11075	106.722884183738	0.000323952243
0	11078	106.723208135981	0.017883263623
0	11085	106.741091399604	0.088295997019
0	11091	106.829387396623	0.019020551377
0	11096	106.848407948	0.171646796497
0	11101	107.020054744497	0.005615233002
0	11105	107.025669977499	0.026610158701
0	11111	107.0522801362	0.001800734262
0	11115	107.054080870462	0.009498373445
0	11120	107.063579243907	0.005443293035
0	11125	107.069022536942	0.069977648232
0	11131	107.139000185174	0.027390934789
0	11136	107.166391119963	0.053239380304
0	11141	107.219630500267	0.013301813157
0	11146	107.232932313424	0.049212780258
0	11151	107.282145093682	0.028796604897
0	11156	107.310941698579	0.03617290215
0	11161	107.347114600729	0.049173152078
0	11166	107.396287752807	0.035414904692
0	11171	107.431702657499	0.020276355944
0	11176	107.451979013443	0.014957223228
0	11181	107.466936236671	0.028018217083
0	11186	107.494954453754	0.048569517308
0	11191	107.543523971062	0.019786372614
0	11196	107.563310343676	0.055964546846
0	11201	107.619274890522	0.070608310719
0	11206	107.689883201241	0.01654486953
0	11211	107.706428070771	0.040724388469
0	11216	107.74715245924	0.209428138683
0	11221	107.956580597923	0.014245250701
0	11226	107.970825848624	0.126857451479
0	11231	108.097683300103	0.036276778819
0	11236	108.133960078922	0.035276904131
0	11241	108.169236983053	0.009276342084
0	11246	108.178513325137	0.06590960339
0	11251	108.244422928527	0.057398375787
0	11256	108.301821304314	0.082477465154
0	11261	108.384298769468	0.002165977729
0	11265	108.386464747197	0.009819351312
0	11270	108.396284098509	0.010123521277
0	11275	108.406407619786	0.043501669784
0	11281	108.44990928957	0.105656801963
0	11286	108.555566091533	0.008586648928
0	11291	108.564152740461	0.034072796633
0	11296	108.598225537094	0.028337787322
0	11301	108.626563324416	0.021407188505
0	11306	108.647970512921	0.033761899409
0	11311	108.68173241233	0.016333017391
0	11316	108.698065429721	0.093860620585
0	11322	108.791926050306	0.033285710601
0	11327	108.825211760907	0.052054347469
0	11332	108.877266108376	0.054884442648
0	11337	108.932150551024	0.041743156576
0	11342	108.9738937076	0.058066151309
0	11347	109.031959858909	0.034601172788
0	11352	109.066561031697	0.012838170306
0	11357	109.079399202003	0.058649200979
0	11362	109.138048402982	0.133008324526
0	11367	109.271056727508	0.007167044007
0	11371	109.278223771515	0.111306431087
0	11377	109.389530202602	0.004751041371
0	11381	109.394281243973	0.053370003835
0	11387	109.447651247808	0.01498541922
0	11392	109.462636667028	0.029927341297
0	11397	109.492564008325	0.095144298867
0	11402	109.587708307192	0.054721482625
0	11407	109.642429789817	0.056753207039
0	11412	109.699182996856	0.003638846313
0	11416	109.702821843169	0.014497285542
0	11422	109.717319128711	0.027935357029
0	11427	109.74525448574	0.085266417568
0	11432	109.830520903308	0.096752964258
0	11437	109.927273867566	0.059241722465
0	11442	109.986515590031	0.076676341762
[...]
4	40561	394.002891898996	0.007777777778
4	40567	394.229413775273	0.007777777778
4	40572	394.25782201282	0.007777777778
4	40577	394.284522348512	0.007777777778
4	40582	394.327453074656	0.007777777778
4	40587	394.345622507089	0.007777777778
4	40592	394.356843299438	0.007777777778
4	40597	394.391721591054	0.007777777778
4	40602	394.482202461073	0.007777777778
4	40607	394.506362361563	0.007777777778
4	40612	394.587063206412	0.007777777778
4	40617	394.597065698947	0.007777777778
4	40622	394.604843476725	0.008243566502
4	40627	394.616764286124	0.007777777778
4	40632	394.718928663126	0.007777777778
4	40637	394.795927898139	0.007777777778
4	40645	394.803705675917	0.01374590774
4	40647	394.811483453695	0.018368143951
4	40652	394.867903352685	0.007777777778
4	40657	394.875681130463	0.015522009044
4	40662	394.883458908241	0.014329351047
4	40667	394.894144470926	0.007777777778
4	40672	394.912394132739	0.007777777778
4	40677	394.930092954653	0.007777777778
4	40682	394.941551706015	0.007777777778
4	40687	394.959802823307	0.007777777778
4	40692	394.979214846158	0.007777777778
4	40697	395.00699730657	0.007777777778
4	40702	395.01789349045	0.007777777778
4	40707	395.112454378873	0.007777777778
4	40712	395.228263732	0.007777777778
4	40717	395.244128703087	0.007777777778
4	40722	395.261106260498	0.007777777778
4	40727	395.344765224857	0.007777777778
4	40732	395.379276788372	0.007777777778
4	40737	395.393764839333	0.007777777778
4	40742	395.401542617111	0.010559205156
4	40747	395.417992245231	0.007777777778
4	40752	395.454153103889	0.007777777778
4	40757	395.465186358519	0.007777777778
4	40762	395.579356476738	0.007777777778
4	40767	395.662639954678	0.007777777778
4	40772	395.927961883708	0.007777777778
4	40777	395.943473990931	0.007777777778
4	40782	395.980073780252	0.007777777778
4	40787	396.070475631387	0.007777777778
4	40792	396.119845963595	0.007777777778
4	40797	396.127623741373	0.009035461763
4	40802	396.144035023553	0.007777777778
4	40807	396.251943781341	0.007777777778
4	40812	396.343525025647	0.007777777778
4	40817	396.382044982477	0.007777777778
4	40822	396.518126160635	0.007777777778
4	40827	396.56822635952	0.007777777778
4	40832	396.583838436192	0.007777777778
4	40837	396.617853647862	0.007777777778
4	40842	396.765651601083	0.007777777778
4	40847	396.773429378861	0.014326936682
4	40852	396.781207156639	0.008881287176
4	40857	396.817424594892	0.007777777778
4	40862	396.951515218624	0.007777777778
4	40867	397.030257878955	0.007777777778
4	40872	397.066744481572	0.007777777778
4	40877	397.07452225935	0.012219565353
4	40882	397.082300037128	0.010520578469
4	40887	397.106053770729	0.007777777778
4	40892	397.113831548507	0.011574771979
4	40897	397.12206288748	0.007777777778
4	40902	397.171995845869	0.007777777778
4	40907	397.186990258369	0.007777777778
4	40912	397.35061496208	0.007777777778
4	40917	397.367968918343	0.007777777778
4	40922	397.401675368651	0.007777777778
4	40927	397.423260323557	0.007777777778
4	40932	397.496841824469	0.007777777778
4	40937	397.526807583447	0.007777777778
4	40942	397.544777328359	0.007777777778
4	40947	397.583593744977	0.007777777778
4	40952	397.676073519286	0.007777777778
4	40957	397.715490942977	0.007777777778
4	40962	397.744346624012	0.007777777778
4	40967	397.859676161058	0.007777777778
4	40972	397.96898819406	0.007777777778
4	40977	398.026577159475	0.007777777778
4	40982	398.034354937253	0.014615170163
4	40987	398.058277987258	0.007777777778
4	40992	398.077111866775	0.007777777778
4	40997	398.212724835241	0.007777777778
4	41003	398.246034932171	0.007777777778
4	41008	398.400334936559	0.007777777778
4	41013	398.413933460233	0.007777777778
4	41018	398.455160397677	0.007777777778
4	41023	398.462938175455	0.013927140355
4	41028	398.508544172157	0.007777777778
4	41033	398.667373351361	0.007777777778
4	41038	398.855382687181	0.007777777778
4	41043	398.863160464959	0.011026664834
4	41048	398.886661235129	0.007777777778
4	41053	398.902897398974	0.007777777778
4	41058	398.910675176752	0.014491061521
4	41063	398.973598496565	0.007777777778
4	41068	398.98853070529	0.007777777778
4	41073	399.038788097701	0.007777777778
4	41078	399.052541323364	0.007777777778
4	41083	399.087253619266	0.007777777778
4	41088	399.203949652014	0.007777777778
4	41094	399.316906405071	0.007777777778
4	41099	399.324684182849	0.015342844636
4	41104	399.39302123911	0.007777777778
4	41109	399.433754591366	0.007777777778
4	41114	399.441532369144	0.011120157495
4	41119	399.457991691023	0.007777777778
4	41124	399.484791117376	0.007777777778
4	41129	399.492568895154	0.014492666766
4	41134	399.52698772021	0.007777777778
4	41139	399.549495064253	0.007777777778
4	41144	399.557272842031	0.008553834005
4	41149	399.582606260268	0.007777777778
4	41154	399.639226800805	0.007777777778
4	41159	399.647004578583	0.008153174407
4	41164	399.793766595438	0.007777777778
4	41169	399.87670697057	0.007777777778
4	41175	399.91065420499	0.007777777778
4	41180	399.918431982768	0.013348840852
4	41186	399.953096474408	0.007777777778
5	1043	10.660451858266	3.0423617142248
5	1364	13.702813572491	1.6919366219648
5	1510	15.394750194456	0.97150988988747
5	1595	16.366260084343	0.036549450896537
5	1597	16.40280953524	1.022639325863
5	1683	17.425448861103	1.17686871569
5	1764	18.602317576793	3.0048063223147
5	2060	21.607123899108	0.47591053993054
5	2110	22.083034439039	1.1173843565838
5	2239	23.200418795623	0.73087178321312
5	2338	23.931290578836	0.042044959618934
5	2344	23.973335538455	1.0728026377843
5	2474	25.046138176239	1.8424685458582
5	2666	26.888606722097	0.21548572009971
5	2697	27.104092442197	1.6958365542402
5	2878	28.799928996437	0.31788894059009
5	2903	29.117817937027	1.5256089006295
5	3090	30.643426837657	1.2679992060234
5	3216	31.91142604368	1.3290347738241
5	3362	33.240460817504	1.5278745748297
5	3513	34.768335392334	0.64891539044714
5	3559	35.417250782781	1.8993066099206
5	3705	37.316557392702	2.0114264583619
5	3871	39.327983851064	1.4927438840791
5	4112	40.820727735143	0.37910200986866
5	4168	41.199829745012	0.037353336946041
5	4179	41.237183081958	2.3701570053374
5	4430	43.607340087295	0.12408329425615
5	4441	43.731423381551	0.0013719131306854
5	4442	43.732795294682	1.3914303205159
5	4583	45.124225615198	0.85681968228108
5	4654	45.981045297479	0.27340871482754
5	4680	46.254454012307	0.64345149240079
5	4776	46.897905504708	0.29411070874364
5	4807	47.192016213452	0.31752464837955
5	4883	47.509540861832	1.9492945919447
5	5129	49.458835453777	0.31251960788426
5	5160	49.771355061661	2.9913224468786
5	5461	52.76267750854	4.3516440315912
5	5987	57.114321540131	0.82482168547946
5	6078	57.93914322561	2.6552142539118
5	6319	60.594357479522	0.19696487484421
5	6335	60.791322354366	0.20447239994352
5	6346	60.99579475431	1.4707719273063
5	6497	62.466566681616	0.60411850483023
5	6548	63.070685186446	0.67802418702044
5	6614	63.748709373466	0.59301741631969
5	6650	64.341726789786	0.99764469100934
5	6781	65.339371480795	0.29165541394043
5	6812	65.631026894735	1.8294483966361
5	6983	67.460475291371	2.0730361475494
5	7174	69.53351143892	0.61811280554686
5	7220	70.151624244467	0.34088833938985
5	7256	70.492512583857	0.68903579089374
5	7306	71.181548374751	0.38486860291166
5	7328	71.566416977663	1.1375957164296
5	7439	72.704012694093	0.85787618149356
5	7520	73.561888875587	1.0520701183634
5	7596	74.61395899395	1.6504499776764
5	7766	76.264408971626	0.31306174706767
5	7783	76.577470718694	0.27639241276194
5	7824	76.853863131456	0.069698119230742
5	7825	76.923561250687	1.8012746816988
5	8011	78.724835932386	1.4759789916428
5	8137	80.200814924029	1.3748874484277
5	8298	81.575702372457	0.65582083025136
5	8344	82.231523202708	0.58216031991757
5	8400	82.813683522626	0.39929380879568
5	8481	83.212977331422	0.093269131816358
5	8487	83.306246463238	0.71465903028989
5	8558	84.020905493528	0.48345245668322
5	8624	84.504357950211	0.30602097868521
5	8635	84.810378928896	0.54137781431955
5	8710	85.351756743216	0.37180533508959
5	8742	85.723562078306	1.4480520264001
5	8917	87.171614104706	0.98578401539248
5	9029	88.157398120098	0.22224147495128
5	9055	88.379639595049	0.81520140243982
5	9141	89.194840997489	0.050285536645223
5	9146	89.245126534134	0.38357577667081
5	9213	89.628702310805	1.12098570302
5	9318	90.749688013825	0.50226771674
5	9370	91.251955730565	0.02001939637876
5	9371	91.271975126944	0.29837178099909
5	9392	91.570346907943	1.5924139999807
5	9557	93.162760907924	0.8728508534471
5	9676	94.035611761371	1.2570555582653
5	9855	95.292667319636	0.17629421186988
5	9881	95.468961531506	0.35003278611182
5	9927	95.818994317618	0.91163613278411
5	10058	96.730630450402	0.39872158792309
5	10093	97.129352038325	1.7476865715229
5	10269	98.877038609848	0.31215807636891
5	10291	99.189196686217	0.17006701265232
5	10317	99.359263698869	0.14682494661169
5	10318	99.506088645481	1.3253893860855
5	10424	100.831478031567	0.46514342952667
5	10475	101.296621461094	0.52533611664188
5	10541	101.821957577736	0.015867062879055
5	10542	101.837824640615	1.5081813751415
5	10697	103.346006015756	0.4227040543701
5	10739	103.768710070126	1.6294904529053
5	10905	105.398200523031	3.3137354481585
5	11321	108.711935971189	1.5421131948743
5	11487	110.254049166063	0.21797471255562
5	11508	110.472023878619	0.89719181382888
5	11594	111.369215692448	3.4381775037285
5	11979	114.807393196176	1.0921011541568
5	12106	115.899494350333	0.087502771378177
5	12117	115.986997121711	1.0400621639138
5	12218	117.027059285625	0.26155530606599
5	12249	117.288614591691	0.55449277561489
5	12305	117.843107367306	0.17491868608486
5	12326	118.018026053391	0.72065884775316
5	12392	118.738684901144	2.6551259240716
5	12652	121.393810825216	0.69566602848956
5	12689	122.089476853706	2.6003668209941
5	12945	124.6898436747	0.037788897661466
5	12951	124.727632572361	1.8779897067232
5	13177	126.605622279084	1.2313991527185
5	13283	127.837021431803	0.60787734254672
5	13364	128.44489877435	0.96871782885044
5	13485	129.4136166032	0.7826416516817
5	13571	130.196258254882	1.5042158134629
5	13742	131.700474068345	0.40847316286568
5	13783	132.108947231211	0.61509315850648
5	13819	132.724040389717	1.2071525987539
5	13985	133.931192988471	0.47772222743059
5	14026	134.408915215902	1.0049945758237
5	14142	135.413909791726	0.34515894686995
5	14177	135.759068738596	0.48109529314634
5	14234	136.240164031742	0.81470225217075
5	14315	137.054866283913	2.2929171677132
5	14571	139.347783451626	0.087917533765773
5	14577	139.435700985392	0.51105874879314
5	14653	139.946759734185	0.99772226404709
5	14759	140.944481998232	0.44716491241419
5	14790	141.391646910646	2.8926430660275
5	15106	144.284289976673	1.7402487094976
5	15272	146.024538686171	2.218589042432
5	15503	148.243127728603	0.049119175111393
5	15504	148.292246903714	2.1085209220236
5	15720	150.400767825738	1.2595601193285
5	15811	151.660327945066	0.42274092825758
5	15842	152.083068873324	0.10667513830617
5	15852	152.18974401163	1.2143616876985
5	15959	153.404105699328	3.3892015138589
5	16335	156.793307213187	0.74937390022874
5	16411	157.542681113416	0.21875108069626
5	16447	157.761432194112	1.0768027170364
5	16532	158.838234911148	1.6602101098501
5	16694	160.498445020998	0.31237188521102
5	16725	160.810816906209	0.3503416522312
5	16741	161.16115855844	0.93589942118051
5	16857	162.097057979621	0.80456613734088
5	16982	162.901624116962	0.049355561936011
5	16989	162.950979678898	1.559779665925
5	17080	164.510759344823	1.1890862797648
5	17211	165.699845624588	1.0386856000291
5	17302	166.738531224617	0.35563531403984
5	17342	167.094166538657	0.63990906318528
5	17414	167.734075601842	0.18108498604794
5	17454	167.91516058789	1.9347826575153
5	17650	169.849943245405	0.40384432971849
5	17682	170.253787575123	0.74853238815794
5	17738	171.002319963281	0.18084793534766
5	17759	171.183167898629	0.39625910888978
5	17820	171.579427007519	2.460854022028
5	18036	174.040281029547	1.3969041547538
5	18192	175.437185184301	0.3341100271261
5	18232	175.771295211427	4.5850679464147
5	18689	180.356363157842	0.11384895847209
5	18695	180.470212116314	0.92434971703923
5	18796	181.394561833353	0.12443208087349
5	18811	181.518993914226	1.4810938647512
5	18923	183.000087778977	1.4086364769521
5	19073	184.408724255929	2.1265222917461
5	19310	186.535246547675	1.8256955798629
5	19491	188.360942127538	0.23678532215653
5	19497	188.597727449695	0.03618383461449
5	19508	188.633911284309	3.8983790231163
5	19944	192.532290307425	0.12947536009311
5	19945	192.661765667518	1.9834861570861
5	20136	194.645251824604	2.2164812842588
5	20332	196.861733108863	1.5156853185348
5	20458	198.377418427398	0.72379658583012
5	20543	199.101215013228	0.49511845281843
5	20600	199.596333466046	2.5825505201778
5	20900	202.178883986224	0.61767703905655
5	20946	202.796561025281	0.87046359383431
5	21037	203.667024619115	0.1941792199925
5	21064	203.861203839108	1.4839353532578
5	21179	205.345139192366	0.62689810535816
5	21271	205.972037297724	0.54935320011776
5	21342	206.521390497842	0.57461068008145
5	21428	207.096001177923	1.7456285410028
5	21629	208.841629718926	0.61388519579989
5	21690	209.455514914726	0.4867910510729
5	21730	209.942305965799	1.0103242161095
5	21832	210.952630181909	0.43749145732252
5	21873	211.390121639232	3.8836106049311
5	22219	215.273732244163	0.55875357320457
5	22280	215.832485817368	1.1708076942051
5	22406	217.003293511573	0.50263457041794
5	22457	217.505928081991	0.083457993548377
5	22472	217.589386075539	1.8619440783141
5	22679	219.451330153853	0.26678852228731
5	22719	219.71811867614	0.46812349253836
5	22756	220.186242168678	0.41272953955997
5	22797	220.598971708238	0.46454809537028
5	22843	221.063519803608	0.49707978824557
5	22864	221.560599591854	0.53775662323196
5	22960	222.098356215086	1.616324268805
5	23091	223.714680483891	0.55259333774068
5	23157	224.267273821632	0.053845472238543
5	23162	224.321119293871	1.0870934206599
5	23244	225.408212714531	0.11940521155931
5	23265	225.52761792609	0.21044443191827
5	23296	225.738062358008	0.83314481345697
5	23352	226.571207171465	1.281857413657
5	23483	227.853064585122	0.084268919019476
5	23494	227.937333504141	0.2925753221328
5	23515	228.229908826274	0.62588549892606
5	23581	228.8557943252	3.2880688886965
5	23952	232.143863213896	1.1304451207956
5	24078	233.274308334692	0.14232566254322
5	24099	233.416633997235	0.0075494236848586
5	24100	233.42418342092	1.6440122416312
5	24336	235.068195662551	1.1350661336663
5	24467	236.203261796217	0.43849790362363
5	24487	236.641759699841	1.6195753808475
5	24659	238.261335080689	0.08843598911158
5	24670	238.349771069801	3.5795259879942
5	25001	241.929297057795	1.3136714914422
5	25147	243.242968549237	1.9673952453997
5	25358	245.210363794637	5.6842318022927
5	25929	250.89459559693	0.54648192190303
5	25990	251.441077518833	0.0096390752514466
5	25991	251.450716594084	2.3003138329636
5	26237	253.751030427048	0.27124902142734
5	26283	254.022279448475	0.36954789500918
5	26339	254.391827343484	0.6197569169283
5	26430	255.011584260412	1.2325820803969
5	26540	256.244166340809	1.4492717990709
5	26647	257.69343813988	0.81792623364671
5	26758	258.511364373527	3.5936897577944
5	27109	262.105054131321	0.3865715220531
5	27135	262.491625653374	2.4763077021562
5	27411	264.96793335553	0.045884285908996
5	27412	265.013817641439	0.8853900677269
5	27513	265.899207709166	0.3193829151499
5	27539	266.218590624316	0.58766226265933
5	27605	266.806252886975	2.482085271015
5	27871	269.28833815799	0.58174165755861
5	27921	269.870079815549	0.82434894582007
5	28018	270.694428761369	1.1841419870963
5	28144	271.878570748465	0.13025751495064
5	28160	272.008828263416	1.2969692399861
5	28321	273.305797503402	0.82784270231925
5	28402	274.133640205721	1.3270175034854
5	28573	275.460657709206	0.50177516639827
5	28604	275.962432875604	0.48486637984392
5	28620	276.447299255448	0.77193946914922
5	28700	277.219238724597	2.907646604792
5	28977	280.126885329389	0.34883628451094
5	29042	280.4757216139	1.5782748777635
5	29223	282.053996491663	0.7056918460085
5	29310	282.759688337672	0.29815628699045
5	29341	283.057844624662	1.0315216577392
5	29431	284.089366282401	1.0119400550576
5	29548	285.101306337459	0.29327251498459
5	29559	285.394578852444	1.8652371660424
5	29735	287.259816018486	2.1599272720723
5	30046	289.419743290558	0.007805530561921
5	30047	289.42754882112	1.5553064934097
5	30202	290.98285531453	0.080165342979609
5	30209	291.06302065751	1.2490497104889
5	30337	292.312070367999	4.5492756136818
5	30776	296.861345981681	0.19835010704777
5	30792	297.059696088729	1.5652536300746
5	30977	298.624949718804	2.0360722661868
5	31174	300.661021984991	1.3351731140872
5	31350	301.996195099078	3.7422043025933
5	31706	305.738399401671	2.012829026214
5	31887	307.751228427885	1.0755174293702
5	32023	308.826745857255	0.26234463252002
5	32048	309.089090489775	0.028586409418641
5	32059	309.117676899194	0.11149288922064
5	32076	309.229169788415	0.25933699540563
5	32102	309.488506783821	1.3584273375406
5	32253	310.846934121362	2.4420139124216
5	32539	313.288948033784	0.64465484776061
5	32605	313.933602881545	1.8107623387055
5	32766	315.74436522025	1.425670870673
5	32917	317.170036090923	0.67447311140215
5	32993	317.844509202325	0.66551865989269
5	33069	318.510027862218	0.049992359157299
5	33070	318.560020221375	0.32287243667129
5	33095	318.882892658046	0.69517763642846
5	33157	319.578070294474	0.48091634433165
5	33213	320.058986638806	0.14061390647427
5	33228	320.19960054528	1.1276335538476
5	33340	321.327234099128	0.47613211254336
5	33386	321.803366211671	1.3335919763542
5	33502	323.136958188025	0.64941878569519
5	33538	323.78637697372	3.5269201578515
5	33939	327.313297131572	3.7159904454353
5	34360	331.029287577007	1.143701887302
5	34465	332.172989464309	0.066253456698544
5	34472	332.239242921008	0.67423120692116
5	34538	332.913474127929	3.9847842207672
5	34939	336.898258348696	0.13742839388781
5	34950	337.035686742584	0.54693137298024
5	34986	337.582618115564	0.70083853680438
5	35042	338.283456652368	3.5685221500807
5	35388	341.851978802449	0.52707206103778
5	35449	342.379050863487	0.47454030049028
5	35499	342.853591163977	0.29517322927641
5	35526	343.148764393253	0.064331325069776
5	35527	343.213095718323	0.96250752736952
5	35618	344.175603245693	1.5960723148786
5	35784	345.771675560572	2.253932494808
5	36025	348.02560805538	1.6952013362321
5	36121	349.720809391612	1.1011226236516
5	36217	350.821932015264	0.41869179228588
5	36262	351.24062380755	0.85767602707945
5	36334	352.098299834629	0.096021334768598
5	36335	352.194321169398	1.0461730351708
5	36450	353.240494204569	0.25246803232331
5	36492	353.492962236892	3.2461639141516
5	36827	356.739126151044	2.6531117177091
5	37114	359.392237868753	1.9978191551218
5	37350	361.390057023875	0.74336762227914
5	37431	362.133424646154	1.526608856186
5	37607	363.66003350234	0.043688866137325
5	37608	363.703722368477	0.37266397057603
5	37649	364.076386339053	1.860866312388
5	37785	365.937252651441	0.31733591391985
5	37806	366.254588565361	0.81870933100283
5	37877	367.073297896364	3.1554444256043
5	38163	370.228742321968	0.22649844200471
5	38194	370.455240763973	0.72658542810868
5	38290	371.181826192082	0.16634547903655
5	38306	371.348171671119	0.54029824908018
5	38337	371.888469920199	1.9807018699093
5	38498	373.869171790108	1.0184980733086
5	38594	374.887669863417	0.99162855455833
5	38705	375.879298417975	1.1696594937605
5	38831	377.048957911736	1.5493001592747
5	38947	378.598258071011	1.4631170707848
5	39073	380.061375141796	0.42085010206802
5	39124	380.482225243864	0.58492901139933
5	39194	381.067154255263	0.90449820042699
5	39306	381.97165245569	3.0223738254615
5	39622	384.994026281152	0.64867031474716
5	39672	385.642696595899	0.76097919611901
5	39749	386.403675792018	1.546285549268
5	39945	387.949961341286	0.37623846565548
5	39996	388.326199806941	2.271968963519
5	40177	390.59816877046	0.22755584860837
5	40203	390.825724619068	3.1777610244241
5	40563	394.003485643492	4.2231520688851
5	41000	398.226637712377	1.0459020811091
5	41091	399.272539793486	0.63080960251571
5	41172	399.903349396002	0.029277950551066
5	41183	399.932627346553	1.2137848534042

