version 2
run Non-monitoring-2-20210209-17:43:08-30684
attr configname Non-monitoring
attr datetime 20210209-17:43:08
attr experiment Non-monitoring
attr inifile aerocom.ini
attr iterationvars ""
attr iterationvarsf ""
attr measurement ""
attr network Aerocom
attr processid 30684
attr repetition 2
attr replication #2
attr resultdir results
attr runnumber 2
attr seedset 2
param **.t 1s
param **.k 50ms
param **.nA 1
param **.nDL 1
param **.s "70 byte"
param **.X 0s
param **.dimPoolMax 9000
param **.dimPoolMin 9000
param **.tDistribution "\"exponential\""
param **.m 1s
param **.DLMaxCapacity 0
param **.trasmitting false
param **.operationMode 1

vector 0 Aerocom.aircraft[0].packetGenerator arrivalTime:vector ETV
attr "" ""
attr source computeArrivalTime
vector 1 Aerocom.aircraft[0].dataLink[0] queueLength:vector ETV
attr "" ""
attr source computeQueueLength
vector 2 Aerocom.aircraft[0].dataLink[0] waitingTime:vector ETV
attr "" ""
attr source computeWaitingTime
vector 3 Aerocom.aircraft[0].dataLink[0] serviceTime:vector ETV
attr "" ""
attr source computeServiceTime
vector 4 Aerocom.aircraft[0].dataLink[0] responseTime:vector ETV
attr "" ""
attr source computeResponseTime
vector 5 Aerocom.aircraft[0].dataLink[0] tDistribution:vector ETV
attr "" ""
attr source computeTDistribution
0	991	10.009046581726	0.019478254405
0	996	10.028524836131	0.02292942436
0	1001	10.051454260491	0.00124084291
0	1005	10.052695103401	0.088058607678
0	1011	10.140753711079	0.060531770836
0	1016	10.201285481915	0.016172402908
0	1021	10.217457884823	0.079679454295
0	1026	10.297137339118	0.006714203355
0	1030	10.303851542473	0.006547708414
0	1035	10.310399250887	0.041366061895
0	1041	10.351765312782	0.095155022514
0	1046	10.446920335296	0.015553608654
0	1051	10.46247394395	0.11879572873
0	1056	10.58126967268	0.074590507201
0	1061	10.655860179881	0.011027490382
0	1066	10.666887670263	0.009886361877
0	1071	10.67677403214	0.004556440046
0	1075	10.681330472186	0.076452071881
0	1081	10.757782544067	0.101157364566
0	1087	10.858939908633	0.046824202827
0	1092	10.90576411146	0.084299166182
0	1097	10.990063277642	0.002132270014
0	1101	10.992195547656	0.018111898043
0	1107	11.010307445699	0.041194139417
0	1113	11.051501585116	0.001299563155
0	1117	11.052801148271	0.055151762222
0	1123	11.107952910493	0.071259794599
0	1128	11.179212705092	0.139348666404
0	1133	11.318561371496	0.050914320359
0	1138	11.369475691855	0.077090332203
0	1143	11.446566024058	0.041555045935
0	1148	11.488121069993	0.069400886563
0	1153	11.557521956556	0.120117794117
0	1160	11.677639750673	0.03436332238
0	1165	11.712003073053	0.056458210862
0	1170	11.768461283915	0.002183620412
0	1174	11.770644904327	0.016676214346
0	1180	11.787321118673	0.084877265526
0	1185	11.872198384199	0.029891464616
0	1190	11.902089848815	0.000685869586
0	1194	11.902775718401	0.243208992601
0	1200	12.145984711002	0.039929961208
0	1205	12.18591467221	0.014591697247
0	1210	12.200506369457	0.041827415021
0	1215	12.242333784478	0.108134173002
0	1220	12.35046795748	0.005990911542
0	1224	12.356458869022	0.021131135656
0	1230	12.377590004678	0.003241661105
0	1234	12.380831665783	0.01660158356
0	1240	12.397433249343	0.042750871507
0	1245	12.44018412085	0.060471857484
0	1250	12.500655978334	0.033226554372
0	1255	12.533882532706	0.021685706983
0	1261	12.555568239689	0.017935429061
0	1266	12.57350366875	0.002379418011
0	1270	12.575883086761	0.002030452849
0	1273	12.57791353961	0.024348180181
0	1281	12.602261719791	0.050241636622
0	1286	12.652503356413	0.078050819919
0	1291	12.730554176332	0.006638622701
0	1295	12.737192799033	0.119573410839
0	1301	12.856766209872	0.00058368588
0	1305	12.857349895752	0.003572372235
0	1308	12.860922267987	0.01619425058
0	1315	12.877116518567	0.14588581515
0	1321	13.023002333717	0.017944264904
0	1326	13.040946598621	0.016423205704
0	1331	13.057369804325	0.009941918403
0	1336	13.067311722728	0.085385649478
0	1342	13.152697372206	0.003466323062
0	1346	13.156163695268	0.001567433483
0	1349	13.157731128751	0.075532586394
0	1357	13.233263715145	0.086501508296
0	1362	13.319765223441	0.025603692963
0	1367	13.345368916404	0.061961204038
0	1372	13.407330120442	0.014105868902
0	1377	13.421435989344	0.095207297421
0	1382	13.516643286765	0.037092947496
0	1387	13.553736234261	0.002230085089
0	1391	13.55596631935	0.014717592863
0	1397	13.570683912213	0.035347176494
0	1402	13.606031088707	0.095496236591
0	1407	13.701527325298	0.01161962281
0	1412	13.713146948108	0.033034345576
0	1417	13.746181293684	0.065680898182
0	1422	13.811862191866	0.048795395314
0	1427	13.86065758718	0.05175301263
0	1432	13.91241059981	0.180730359563
0	1437	14.093140959373	0.076661823714
0	1442	14.169802783087	0.021905680807
0	1447	14.191708463894	0.027993894319
0	1452	14.219702358213	0.012721755096
0	1457	14.232424113309	0.049742643065
0	1462	14.282166756374	0.192484828772
0	1467	14.474651585146	0.021802803708
0	1472	14.496454388854	0.044224394679
0	1477	14.540678783533	0.153570855608
0	1483	14.694249639141	0.199991880176
0	1488	14.894241519317	0.047885870808
0	1493	14.942127390125	0.173152701122
0	1499	15.115280091247	0.033726521172
0	1504	15.149006612419	0.061056616281
0	1509	15.2100632287	0.014811442141
0	1514	15.224874670841	0.000978808862
0	1518	15.225853479703	0.013516444051
0	1523	15.239369923754	0.047444621021
0	1529	15.286814544775	0.036867066277
0	1534	15.323681611052	0.014354723565
0	1539	15.338036334617	0.055447221923
0	1544	15.39348355654	0.006930683388
0	1548	15.400414239928	0.039893011945
0	1554	15.440307251873	0.022805914517
0	1559	15.46311316639	0.02401367532
0	1564	15.48712684171	0.011163021837
0	1569	15.498289863547	0.051639402936
0	1574	15.549929266483	0.072724680374
0	1580	15.622653946857	0.114029739139
0	1585	15.736683685996	0.136042464386
0	1590	15.872726150382	0.036470727199
0	1595	15.909196877581	0.001337860053
0	1599	15.910534737634	0.10652512558
0	1605	16.017059863214	0.014789987261
0	1610	16.031849850475	0.01076301381
0	1615	16.042612864285	0.01547580515
0	1620	16.058088669435	0.086863964978
0	1625	16.144952634413	0.007676660298
0	1629	16.152629294711	0.019577990651
0	1635	16.172207285362	0.151308858488
0	1640	16.32351614385	0.05906552658
0	1646	16.38258167043	0.014225153049
0	1651	16.396806823479	0.060578178624
0	1656	16.457385002103	0.022017283538
0	1661	16.479402285641	0.078059833712
0	1666	16.557462119353	0.002508858334
0	1670	16.559970977687	0.011822671491
0	1675	16.571793649178	0.013599010943
0	1681	16.585392660121	0.053497678884
0	1686	16.638890339005	0.107204230841
0	1691	16.746094569846	0.122543612153
0	1696	16.868638181999	0.166816872754
0	1701	17.035455054753	0.013072780907
0	1706	17.04852783566	0.053359725757
0	1711	17.101887561417	0.002957418417
0	1715	17.104844979834	0.017610041742
0	1721	17.122455021576	0.017152781437
0	1726	17.139607803013	0.003058461977
0	1730	17.14266626499	0.02936697242
0	1736	17.17203323741	0.099915750194
0	1741	17.271948987604	0.000397627652
0	1745	17.272346615256	0.008429270103
0	1750	17.280775885359	0.073853523777
0	1756	17.354629409136	0.015704594458
0	1761	17.370334003594	0.012987051098
0	1766	17.383321054692	0.039726297965
0	1771	17.423047352657	0.059776369951
0	1776	17.482823722608	0.014536163629
0	1781	17.497359886237	0.088139481701
0	1786	17.585499367938	0.093112772711
0	1791	17.678612140649	0.039402417086
0	1796	17.718014557735	0.034879339608
0	1801	17.752893897343	0.034976209872
0	1806	17.787870107215	0.033149272514
0	1811	17.821019379729	0.007896661939
0	1816	17.828916041668	0.117830224172
0	1821	17.94674626584	0.059151491344
0	1826	18.005897757184	0.123413326806
0	1831	18.12931108399	0.01402479061
0	1836	18.1433358746	0.013829042721
0	1841	18.157164917321	0.027806471894
0	1846	18.184971389215	0.000947261188
0	1850	18.185918650403	0.050651565992
0	1856	18.236570216395	0.055477043725
0	1861	18.29204726012	0.006527548348
0	1865	18.298574808468	0.015774141493
0	1871	18.314348949961	0.153494738885
0	1877	18.467843688846	0.000720488957
0	1881	18.468564177803	0.02736421928
0	1887	18.495928397083	0.005108856887
0	1891	18.50103725397	0.029844168931
0	1897	18.530881422901	0.027136261243
0	1902	18.558017684144	0.012555793214
0	1907	18.570573477358	0.006422827828
0	1911	18.576996305186	0.007816517163
0	1916	18.584812822349	0.011602214367
0	1922	18.596415036716	0.068265104615
0	1927	18.664680141331	0.068335462913
0	1932	18.733015604244	0.095491963435
0	1937	18.828507567679	0.03041163286
0	1942	18.858919200539	0.029101571156
0	1947	18.888020771695	0.006024251104
0	1951	18.894045022799	0.015089125506
0	1957	18.909134148305	0.012124198046
0	1962	18.921258346351	0.005110176688
0	1966	18.926368523039	0.133137057263
0	1973	19.059505580302	0.003182260101
0	1977	19.062687840403	0.000396303985
0	1980	19.063084144388	0.00706484797
0	1985	19.070148992358	0.051343217317
0	1993	19.121492209675	0.154554450074
0	1998	19.276046659749	0.051734365893
0	2003	19.327781025642	0.077287762143
0	2008	19.405068787785	0.057010992896
0	2013	19.462079780681	0.019376226343
0	2018	19.481456007024	0.043155684384
0	2023	19.524611691408	0.028161716732
0	2028	19.55277340814	0.07674626486
0	2033	19.629519673	0.037236341024
0	2038	19.666756014024	0.086255677597
0	2043	19.753011691621	0.041592364388
0	2048	19.794604056009	0.05204019294
0	2053	19.846644248949	0.07881201901
0	2058	19.925456267959	0.009900578353
0	2063	19.935356846312	0.005834180142
0	2067	19.941191026454	0.064781201962
0	2073	20.005972228416	0.030035745362
0	2078	20.036007973778	0.016753507149
0	2083	20.052761480927	0.040334755331
0	2088	20.093096236258	0.09209263709
0	2093	20.185188873348	0.122226180225
0	2098	20.307415053573	0.042217942432
0	2103	20.349632996005	0.128862630964
0	2108	20.478495626969	0.004456186788
0	2112	20.482951813757	0.03259630884
0	2118	20.515548122597	0.12092909688
0	2123	20.636477219477	0.00589790084
0	2127	20.642375120317	0.031037224607
0	2133	20.673412344924	0.060531537074
0	2138	20.733943881998	0.143150800031
0	2143	20.877094682029	0.035199516472
0	2148	20.912294198501	0.002066746197
0	2152	20.914360944698	0.005580501023
0	2155	20.919941445721	0.005683915472
0	2160	20.925625361193	0.106845281428
0	2168	21.032470642621	0.070471924897
0	2173	21.102942567518	0.003474590386
0	2177	21.106417157904	0.00213376812
0	2180	21.108550926024	0.028676109457
0	2188	21.137227035481	0.030034156982
0	2193	21.167261192463	0.058839526968
0	2198	21.226100719431	0.084664306236
0	2203	21.310765025667	0.012340120963
0	2208	21.32310514663	0.027167246157
0	2213	21.350272392787	0.007054982237
0	2217	21.357327375024	0.010533528015
0	2223	21.367860903039	0.088254591318
0	2228	21.456115494357	0.092706405357
0	2233	21.548821899714	0.040318789291
0	2238	21.589140689005	0.005672228651
0	2242	21.594812917656	0.01271121548
0	2248	21.607524133136	0.016985173845
0	2253	21.624509306981	0.041221856779
0	2259	21.66573116376	0.012229135763
0	2264	21.677960299523	0.087535607477
0	2269	21.765495907	0.031205989078
0	2274	21.796701896078	0.11664408686
0	2279	21.913345982938	0.019253014501
0	2284	21.932598997439	0.049420193947
0	2289	21.982019191386	0.119896559204
0	2294	22.10191575059	0.07906385829
0	2299	22.18097960888	0.077001977618
0	2304	22.257981586498	0.059892801234
0	2309	22.317874387732	0.061166393665
0	2314	22.379040781397	0.026862182012
0	2319	22.405902963409	0.007535531574
0	2323	22.413438494983	0.013992029394
0	2329	22.427430524377	0.047314478702
0	2335	22.474745003079	0.039635110693
0	2340	22.514380113772	0.095356840896
0	2345	22.609736954668	0.129419599683
0	2351	22.739156554351	0.128699002799
0	2356	22.86785555715	0.044531608375
0	2361	22.912387165525	0.054266631212
0	2366	22.966653796737	0.030527391571
0	2371	22.997181188308	0.014986347806
0	2376	23.012167536114	0.041953978026
0	2381	23.05412151414	0.016203451015
0	2386	23.070324965155	0.02812987469
0	2391	23.098454839845	0.050458418082
0	2396	23.148913257927	0.015146096511
0	2401	23.164059354438	0.064441345855
0	2406	23.228500700293	0.004179622324
0	2410	23.232680322617	0.018234437584
0	2416	23.250914760201	0.135834589748
0	2421	23.386749349949	0.056654377788
0	2427	23.443403727737	0.013038878024
0	2432	23.456442605761	0.03531095702
0	2437	23.491753562781	0.00067831831
0	2441	23.492431881091	0.088417506206
0	2447	23.580849387297	0.027323752591
0	2452	23.608173139888	0.057489710536
0	2457	23.665662850424	0.003406651623
0	2461	23.669069502047	0.120453542699
0	2467	23.789523044746	0.036967010157
0	2472	23.826490054903	0.006388238033
0	2476	23.832878292936	0.024408332459
0	2482	23.857286625395	0.091545747767
0	2487	23.948832373162	0.013346581661
0	2492	23.962178954823	0.148085727796
0	2497	24.110264682619	0.041463487409
0	2502	24.151728170028	0.042621324945
0	2507	24.194349494973	0.012076795583
0	2512	24.206426290556	0.000207682196
0	2516	24.206633972752	0.008545882413
0	2521	24.215179855165	0.001704334548
0	2524	24.216884189713	0.050369592995
0	2532	24.267253782708	0.026591059171
0	2537	24.293844841879	0.017979583736
0	2542	24.311824425615	0.030650046468
0	2547	24.342474472083	0.112712127925
0	2552	24.455186600008	0.032471044969
0	2557	24.487657644977	0.052622433494
0	2562	24.540280078471	0.057194216765
0	2567	24.597474295236	0.114557581459
0	2573	24.712031876695	0.070302702475
0	2578	24.78233457917	0.013260777666
0	2583	24.795595356836	0.085958376396
0	2588	24.881553733232	0.01499057244
0	2593	24.896544305672	0.021256037454
0	2598	24.917800343126	0.072922449243
0	2603	24.990722792369	0.047719119156
0	2608	25.038441911525	0.015269790911
0	2613	25.053711702436	0.024950398232
0	2618	25.078662100668	0.050634242017
0	2623	25.129296342685	0.064612095064
0	2628	25.193908437749	0.05092066687
0	2633	25.244829104619	0.041445211636
0	2638	25.286274316255	0.035165900113
0	2643	25.321440216368	0.045166076531
0	2648	25.366606292899	0.066890834968
0	2653	25.433497127867	0.024529635863
0	2658	25.45802676373	0.091089617611
0	2663	25.549116381341	0.0503190236
0	2668	25.599435404941	0.079887996393
0	2673	25.679323401334	0.101169121959
0	2678	25.780492523293	0.041357007608
0	2683	25.821849530901	0.052733660773
0	2688	25.874583191674	0.145407696259
0	2693	26.019990887933	0.006882365095
0	2697	26.026873253028	0.009127716046
0	2703	26.036000969074	0.004646256925
0	2708	26.040647225999	0.015996995528
0	2714	26.056644221527	0.056577394708
0	2719	26.113221616235	0.003519502806
0	2723	26.116741119041	0.021971322907
0	2729	26.138712441948	0.057053518777
0	2734	26.195765960725	0.018896851514
0	2739	26.214662812239	0.008818718917
0	2744	26.223481531156	0.110388132843
0	2749	26.333869663999	0.02143729412
0	2754	26.355306958119	0.099723920102
0	2759	26.455030878221	0.009028421345
0	2764	26.464059299566	0.081907902041
0	2769	26.545967201607	0.021929492285
0	2775	26.567896693892	0.022105671319
0	2780	26.590002365211	0.020917934804
0	2785	26.610920300015	0.05119118831
0	2790	26.662111488325	0.015183771474
0	2795	26.677295259799	0.045668816989
0	2800	26.722964076788	0.159866546349
0	2805	26.882830623137	0.013429432815
0	2810	26.896260055952	0.09469038776
0	2815	26.990950443712	0.044542878122
0	2820	27.035493321834	0.042255377966
0	2825	27.0777486998	0.290567928354
0	2830	27.368316628154	0.000527871234
0	2834	27.368844499388	0.002695078852
0	2837	27.37153957824	0.040511986824
0	2845	27.412051565064	0.013558978002
0	2850	27.425610543066	0.229508986543
0	2855	27.655119529609	0.020097571805
0	2860	27.675217101414	0.096451190992
0	2865	27.771668292406	0.080705990662
0	2871	27.852374283068	0.0172142355
0	2876	27.869588518568	0.02932052996
0	2881	27.898909048528	0.033063791094
0	2886	27.931972839622	0.003238848333
0	2890	27.935211687955	0.02675047333
0	2896	27.961962161285	0.019155110647
0	2901	27.981117271932	0.028779922441
0	2906	28.009897194373	0.088750810172
0	2911	28.098648004545	0.002345102742
0	2915	28.100993107287	0.067055965035
0	2921	28.168049072322	0.02513227458
0	2926	28.193181346902	0.016344359464
0	2931	28.209525706366	0.029312423175
0	2936	28.238838129541	0.065208105539
0	2941	28.30404623508	0.008533860468
0	2946	28.312580095548	0.019260588003
0	2951	28.331840683551	0.009864187022
0	2956	28.341704870573	0.008275663284
0	2961	28.349980533857	0.096912308409
0	2966	28.446892842266	0.209581547344
0	2971	28.65647438961	0.014081920255
0	2976	28.670556309865	0.01516551433
0	2981	28.685721824195	0.038673769674
0	2986	28.724395593869	0.046904737859
0	2991	28.771300331728	0.013490697281
0	2996	28.784791029009	0.124799338401
0	3001	28.90959036741	0.002587234732
0	3005	28.912177602142	0.051499624091
0	3011	28.963677226233	0.166995163026
0	3016	29.130672389259	0.027824243452
0	3021	29.158496632711	0.120795330339
0	3026	29.27929196305	0.025309815906
0	3031	29.304601778956	0.021994073357
0	3036	29.326595852313	0.002507150326
0	3040	29.329103002639	0.006073616269
0	3045	29.335176618908	0.004236876707
0	3048	29.339413495615	0.027197439013
0	3056	29.366610934628	0.029953751332
0	3061	29.39656468596	0.010096215934
0	3066	29.406660901894	0.127757452912
0	3072	29.534418354806	0.051412076619
0	3077	29.585830431425	0.013287513782
0	3082	29.599117945207	0.073733935807
0	3087	29.672851881014	0.1015741989
0	3092	29.774426079914	0.071620644259
0	3097	29.846046724173	0.08205339774
0	3102	29.928100121913	0.00336130926
0	3106	29.931461431173	0.009567349438
0	3111	29.941028780611	0.048678989209
0	3117	29.98970776982	0.018725761491
0	3122	30.008433531311	0.032275147299
0	3127	30.04070867861	0.027965551248
0	3132	30.068674229858	0.046474087653
0	3137	30.115148317511	0.098046917362
0	3142	30.213195234873	0.028152785216
0	3147	30.241348020089	0.050277403765
0	3152	30.291625423854	0.114896412239
0	3157	30.406521836093	0.087089676881
0	3164	30.493611512974	0.00948761051
0	3169	30.503099123484	0.034363434132
0	3174	30.537462557616	0.01491386997
0	3179	30.552376427586	0.043668835563
0	3184	30.596045263149	0.01143655242
0	3189	30.607481815569	0.030248778558
0	3194	30.637730594127	0.067172226131
0	3199	30.704902820258	0.014938612106
0	3204	30.719841432364	0.009740418526
0	3209	30.72958185089	0.048160813951
0	3214	30.777742664841	0.024236237697
0	3219	30.801978902538	0.042832449922
0	3224	30.84481135246	0.018661184667
0	3229	30.863472537127	0.101025920601
0	3234	30.964498457728	0.073475092209
0	3239	31.037973549937	0.129231886345
0	3245	31.167205436282	2.5964924e-005
0	3249	31.167231401206	0.042683669147
0	3255	31.209915070353	0.06959431893
0	3260	31.279509389283	0.059222001708
0	3265	31.338731390991	0.110751311947
0	3270	31.449482702938	0.024895205425
0	3275	31.474377908363	0.026104110783
0	3281	31.500482019146	0.056418636655
0	3286	31.556900655801	0.049915475432
0	3291	31.606816131233	0.316334433155
0	3297	31.923150564388	0.093091453324
0	3302	32.016242017712	0.140990070847
0	3307	32.157232088559	0.019952146893
0	3312	32.177184235452	0.007613118646
0	3316	32.184797354098	0.069622253525
0	3322	32.254419607623	0.139166973759
0	3327	32.393586581382	0.019449014937
0	3332	32.413035596319	0.001971230653
0	3336	32.415006826972	0.012284598707
0	3341	32.427291425679	0.001275361314
0	3344	32.428566786993	0.069497128655
0	3353	32.498063915648	0.009788505902
0	3358	32.50785242155	0.043494570896
0	3363	32.551346992446	0.018195619756
0	3368	32.569542612202	0.000617228025
0	3372	32.570159840227	0.209149925425
0	3378	32.779309765652	0.036221821343
0	3383	32.815531586995	0.143641623115
0	3388	32.95917321011	0.204768127459
0	3393	33.163941337569	0.07218676082
0	3398	33.236128098389	0.04815195955
0	3403	33.284280057939	0.048787453724
0	3408	33.333067511663	0.010988335015
0	3413	33.344055846678	0.173500974983
0	3418	33.517556821661	0.082888470679
0	3423	33.60044529234	0.042550467802
0	3428	33.642995760142	0.062309295088
0	3433	33.70530505523	0.011990301996
0	3438	33.717295357226	0.000363002999
0	3442	33.717658360225	0.007161990535
0	3445	33.72482035076	0.063830099746
0	3453	33.788650450506	0.072145229227
0	3458	33.860795679733	0.058579984389
0	3463	33.919375664122	0.037466653227
0	3468	33.956842317349	0.074117014556
0	3473	34.030959331905	0.085021388456
0	3478	34.115980720361	0.014726686287
0	3483	34.130707406648	0.078957817319
0	3488	34.209665223967	0.004277136732
0	3492	34.213942360699	0.05545995669
0	3498	34.269402317389	0.081020910471
0	3503	34.35042322786	0.074974985752
0	3508	34.425398213612	0.013665417145
0	3513	34.439063630757	0.058260821833
0	3518	34.49732445259	0.01389961275
0	3523	34.51122406534	0.027997709027
0	3528	34.539221774367	0.015153660093
0	3533	34.55437543446	0.088640504685
0	3538	34.643015939145	0.010631216954
0	3543	34.653647156099	0.123781528611
0	3548	34.77742868471	0.031426994971
0	3553	34.808855679681	0.075128330905
0	3558	34.883984010586	0.014829342612
0	3563	34.898813353198	0.004488011343
0	3567	34.903301364541	0.195583319159
0	3573	35.0988846837	0.149467121432
0	3578	35.248351805132	0.01357927154
0	3583	35.261931076672	0.032420709742
0	3588	35.294351786414	0.041052325632
0	3593	35.335404112046	0.108354758255
0	3598	35.443758870301	0.067111909316
0	3603	35.510870779617	0.00443912125
0	3607	35.515309900867	0.123601311352
0	3613	35.638911212219	0.139218553075
0	3618	35.778129765294	0.04531196882
0	3623	35.823441734114	0.018906379733
0	3628	35.842348113847	0.005099321321
0	3632	35.847447435168	0.027327992916
0	3638	35.874775428084	0.039435513203
0	3643	35.914210941287	0.057812888571
0	3648	35.972023829858	0.082905355084
0	3653	36.054929184942	0.004760292516
0	3657	36.059689477458	0.113594315002
0	3664	36.17328379246	0.011660644158
0	3669	36.184944436618	0.060361916521
0	3674	36.245306353139	0.043734786221
0	3679	36.28904113936	0.008525557428
0	3684	36.297566696788	0.024327111037
0	3689	36.321893807825	0.00258046908
0	3693	36.324474276905	0.00562482433
0	3698	36.330099101235	0.053001259877
0	3704	36.383100361112	0.000506808728
0	3708	36.38360716984	0.044066308175
0	3714	36.427673478015	0.113235581821
0	3719	36.540909059836	0.035250406002
0	3724	36.576159465838	0.055134839131
0	3729	36.631294304969	0.002244338533
0	3733	36.633538643502	0.01957306101
0	3739	36.653111704512	0.029922708704
0	3744	36.683034413216	0.108607164806
0	3749	36.791641578022	0.043886256274
0	3754	36.835527834296	0.170900359106
0	3759	37.006428193402	0.010402391614
0	3764	37.016830585016	0.004252908027
0	3768	37.021083493043	0.05306410088
0	3774	37.074147593923	0.015087718103
0	3779	37.089235312026	0.022176161905
0	3784	37.111411473931	0.037716200055
0	3789	37.149127673986	0.005509574819
0	3793	37.154637248805	0.126693213395
0	3799	37.2813304622	0.013206662889
0	3804	37.294537125089	0.013267099219
0	3809	37.307804224308	0.000414132001
0	3813	37.308218356309	0.136938975916
0	3819	37.445157332225	0.026715195519
0	3824	37.471872527744	0.115696453434
0	3829	37.587568981178	0.001500754296
0	3833	37.589069735474	0.020640056065
0	3839	37.609709791539	0.04838048513
0	3844	37.658090276669	0.012759808288
0	3849	37.670850084957	0.059866822555
0	3854	37.730716907512	0.010127610253
0	3859	37.740844517765	0.025493549261
0	3864	37.766338067026	0.002827326527
0	3868	37.769165393553	0.178023204709
0	3874	37.947188598262	0.156269213294
0	3879	38.103457811556	0.045330449341
0	3884	38.148788260897	0.007938761669
0	3889	38.156727022566	0.083693053958
0	3895	38.240420076524	0.158235122183
0	3900	38.398655198707	0.008941688714
0	3905	38.407596887421	0.020709722444
0	3910	38.428306609865	0.052717478342
0	3915	38.481024088207	0.003057190225
0	3919	38.484081278432	0.003115659363
0	3922	38.487196937795	0.085526859134
0	3930	38.572723796929	0.002804548943
0	3934	38.575528345872	0.081329843224
0	3941	38.656858189096	0.022760485381
0	3947	38.679618674477	0.031118075677
0	3952	38.710736750154	0.069039787716
0	3957	38.77977653787	0.073998313255
0	3962	38.853774851125	0.017493020756
0	3967	38.871267871881	0.069079117052
0	3973	38.940346988933	0.094960522283
0	3978	39.035307511216	0.029954813285
0	3983	39.065262324501	0.00453423925
0	3987	39.069796563751	0.016659880751
0	3993	39.086456444502	0.077636271719
0	3998	39.164092716221	0.007686093007
0	4002	39.171778809228	0.018099961573
0	4008	39.189878770801	0.120443859408
0	4015	39.310322630209	0.160429275121
0	4020	39.47075190533	0.004120503165
0	4024	39.474872408495	0.063227160615
0	4030	39.53809956911	0.064669504279
0	4035	39.602769073389	0.055677419983
0	4041	39.658446493372	0.004043280133
0	4045	39.662489773505	0.021400199548
0	4051	39.683889973053	0.055426379723
0	4056	39.739316352776	0.008529656337
0	4061	39.747846009113	0.003109390016
0	4065	39.750955399129	0.065801421238
0	4071	39.816756820367	0.005897188363
0	4075	39.82265400873	0.205610146854
0	4081	40.028264155584	0.032250528442
0	4086	40.060514684026	0.003630791514
0	4090	40.06414547554	0.004221166846
0	4095	40.068366642386	0.110145771783
0	4101	40.178512414169	0.001623732571
0	4105	40.18013614674	0.025637173766
0	4111	40.205773320506	0.051029438172
0	4116	40.256802758678	0.114980336687
0	4121	40.371783095365	0.112772803
0	4126	40.484555898365	0.001245195174
0	4130	40.485801093539	0.033008121208
0	4136	40.518809214747	0.039073154365
0	4141	40.557882369112	0.090903278929
0	4146	40.648785648041	0.050237228941
0	4151	40.699022876982	0.061719432438
0	4156	40.76074230942	0.019372569866
0	4161	40.780114879286	0.135175474219
0	4166	40.915290353505	0.01811598678
0	4171	40.933406340285	0.18317192598
0	4176	41.116578266265	0.094247009205
0	4181	41.21082527547	0.044355640539
0	4186	41.255180916009	0.050325834816
0	4191	41.305506750825	0.146008365735
0	4196	41.45151511656	0.004277804516
0	4200	41.455792921076	0.061097534939
0	4206	41.516890456015	0.066455402267
0	4211	41.583345858282	0.031243975241
0	4216	41.614589833523	0.007069582125
0	4220	41.621659415648	0.123270239748
0	4226	41.744929655396	0.109963638409
0	4231	41.854893293805	0.043326848409
0	4236	41.898220142214	0.065423619399
0	4241	41.963643761613	0.013669209724
0	4246	41.977312971337	0.008357390193
0	4251	41.98567036153	0.024673928335
0	4256	42.010344289865	0.01954122728
0	4261	42.029885517145	0.02741909752
0	4266	42.057304614665	0.009378042583
0	4271	42.066682657248	0.008959952055
0	4276	42.075642609303	0.0865488096
0	4281	42.162191418903	0.001265879672
0	4285	42.163457298575	0.148483457636
0	4291	42.311940756211	0.002702293576
0	4295	42.314643049787	0.000406111803
0	4298	42.31504916159	0.056717133105
0	4306	42.371766294695	0.004249848421
0	4310	42.376016143116	0.014643143958
0	4316	42.390659287074	0.030572750557
0	4321	42.421232037631	0.008246973855
0	4326	42.429479011486	0.037689316871
0	4331	42.467168328357	0.011006344601
0	4336	42.478174672958	0.095819189687
0	4341	42.573993862645	0.085265321097
0	4346	42.659259183742	0.021527457146
0	4351	42.680786640888	0.111170904726
0	4356	42.791957545614	0.01027595631
0	4361	42.802233501924	0.030286060859
0	4366	42.832519562783	0.0165540458
0	4371	42.849073608583	0.067515949832
0	4376	42.916589558415	0.001525110205
0	4380	42.91811466862	0.042787009422
0	4386	42.960901678042	0.016936729431
0	4391	42.977838407473	0.033521865734
0	4396	43.011360273207	0.056243440769
0	4401	43.067603713976	0.051697375435
0	4406	43.119301089411	0.042435242898
0	4411	43.161736332309	0.148123361573
0	4416	43.309859693882	0.050304692486
0	4421	43.360164386368	0.081086405851
0	4426	43.441250792219	0.171708411066
0	4431	43.612959203285	0.026418003035
0	4436	43.63937720632	0.028038796151
0	4441	43.667416002471	0.014478189234
0	4446	43.681894191705	0.012132716367
0	4451	43.694026908072	0.000131360143
0	4455	43.694158268215	0.001144323835
0	4458	43.69530259205	0.017214599895
0	4466	43.712517191945	0.05637925229
0	4472	43.768896444235	0.193648951069
0	4477	43.962545395304	0.000772503928
0	4481	43.963317899232	0.027572394114
0	4487	43.990890293346	0.007941425357
0	4492	43.998831718703	0.038835554997
0	4497	44.0376672737	0.033878586456
0	4502	44.071545860156	0.003289348134
0	4506	44.07483520829	0.007487093348
0	4511	44.082322301638	0.007669856088
0	4516	44.089992157726	0.04471521534
0	4522	44.134707373066	0.212008687533
0	4527	44.346716060599	0.0119803542
0	4532	44.358696414799	0.038364160772
0	4537	44.397060575571	0.078103987409
0	4542	44.47516456298	0.012497436635
0	4547	44.487661999615	0.004459840072
0	4551	44.492121839687	0.051352371789
0	4557	44.543474211476	0.027511707213
0	4562	44.570985918689	0.064886430259
0	4567	44.635872348948	0.003838081361
0	4571	44.639710430309	0.035070403365
0	4577	44.674780833674	0.028675161451
0	4582	44.703455995125	0.019936459963
0	4587	44.723392455088	0.065647487495
0	4592	44.789039942583	0.064042449916
0	4598	44.853082392499	0.012910084339
0	4603	44.865992476838	0.006974713055
0	4607	44.872967189893	0.006522444443
0	4612	44.879489634336	0.063736426088
0	4618	44.943226060424	0.179877698622
0	4624	45.123103759046	0.029687397922
0	4629	45.152791156968	0.031664026022
0	4634	45.18445518299	0.036342077598
0	4639	45.220797260588	0.144129656845
0	4645	45.364926917433	0.049282769189
0	4650	45.414209686622	0.048343268347
0	4655	45.462552954969	0.098160743314
0	4660	45.560713698283	0.005018552258
0	4664	45.565732250541	0.018937046137
0	4670	45.584669296678	0.001158087326
0	4674	45.585827384004	0.05955539415
0	4680	45.645382778154	0.110298431882
0	4686	45.755681210036	0.006198105095
0	4690	45.761879315131	0.045871280895
0	4696	45.807750596026	0.028863014814
0	4701	45.83661361084	0.036335481541
0	4706	45.872949092381	0.06314676904
0	4712	45.936095861421	0.200929023027
0	4718	46.137024884448	0.110328428684
0	4723	46.247353313132	0.142044999296
0	4728	46.389398312428	0.040726648317
0	4733	46.430124960745	0.068362766292
0	4738	46.498487727037	0.050171842212
0	4743	46.548659569249	0.013244490503
0	4748	46.561904059752	0.037990072798
0	4754	46.59989413255	0.136762016331
0	4759	46.736656148881	0.02121398766
0	4764	46.757870136541	0.030991729463
0	4769	46.788861866004	0.093465045856
0	4775	46.88232691186	0.055234053054
0	4780	46.937560964914	0.042695617143
0	4785	46.980256582057	0.030957733309
0	4790	47.011214315366	0.015119419035
0	4795	47.026333734401	0.006204509094
0	4799	47.032538243495	0.079754972734
0	4805	47.112293216229	0.007354279529
0	4809	47.119647495758	0.089942425358
0	4815	47.209589921116	0.079892631777
0	4820	47.289482552893	0.030154815521
0	4825	47.319637368414	0.197884742707
0	4830	47.517522111121	0.056911463336
0	4835	47.574433574457	0.019352269515
0	4841	47.593785843972	0.004895396014
0	4845	47.598681239986	0.05405400937
0	4851	47.652735249356	0.064109384824
0	4856	47.71684463418	0.034946257874
0	4861	47.751790892054	0.020509369099
0	4866	47.772300261153	0.041789104489
0	4871	47.814089365642	0.001140020669
0	4875	47.815229386311	0.118595086436
0	4881	47.933824472747	0.0610584855
0	4886	47.994882958247	0.002422227951
0	4890	47.997305186198	0.039731246324
0	4896	48.037036432522	0.01899021283
0	4901	48.056026645352	0.088091015414
0	4907	48.144117660766	0.085741647827
0	4912	48.229859308593	0.006120620617
0	4916	48.23597992921	0.025992602865
0	4922	48.261972532075	0.24959494678
0	4927	48.511567478855	0.130656587022
0	4932	48.642224065877	0.020212334962
0	4937	48.662436400839	0.046683032784
0	4942	48.709119433623	0.007190412927
0	4946	48.71630984655	0.023115290746
0	4952	48.739425137296	0.002164921535
0	4956	48.741590058831	0.041057868283
0	4962	48.782647927114	0.019345987075
0	4967	48.801993914189	0.025310317389
0	4972	48.827304231578	0.011779063243
0	4977	48.839083294821	0.14254553391
0	4982	48.981628828731	0.042703386679
0	4987	49.02433221541	0.110526587672
0	4992	49.134858803082	0.158967189562
0	4997	49.293825992644	0.086858582604
0	5002	49.380684575248	0.012218217514
0	5007	49.392902792762	0.060606680038
0	5012	49.4535094728	0.019958460605
0	5017	49.473467933405	0.079157202487
0	5022	49.552625135892	0.015470271824
0	5027	49.568095407716	0.008336390809
0	5032	49.576431798525	0.015808382949
0	5037	49.592240181474	0.010923915735
0	5042	49.603164097209	0.058092556752
0	5047	49.661256653961	0.009253149064
0	5052	49.670509803025	0.111851801532
0	5057	49.782361604557	0.065001137683
0	5062	49.84736274224	0.043883738579
0	5067	49.891246480819	0.00239427576
0	5071	49.893640756579	0.025597716144
0	5077	49.919238472723	0.053052822334
0	5082	49.972291295057	0.027734626472
0	5087	50.000025921529	0.03860215447
0	5092	50.038628075999	0.040258319522
0	5097	50.078886395521	0.257402289878
0	5102	50.336288685399	0.018225930304
0	5107	50.354514615703	0.001989704607
0	5111	50.35650432031	0.014899655931
0	5117	50.371403976241	0.019910529357
0	5122	50.391314505598	0.120352141065
0	5127	50.511666646663	0.013787012063
0	5132	50.525453658726	0.035821301297
0	5137	50.561274960023	0.023986698424
0	5142	50.585261658447	0.006368189699
0	5146	50.591629848146	0.10374740289
0	5152	50.695377251036	0.042266688856
0	5157	50.737643939892	0.012102870799
0	5162	50.749746810691	0.014381730033
0	5167	50.764128540724	0.003281160346
0	5171	50.76740970107	0.000270482297
0	5174	50.767680183367	0.032091928982
0	5182	50.799772112349	0.042443616102
0	5187	50.842215728451	0.075044537511
0	5192	50.917260265962	0.022173880292
0	5197	50.939434146254	0.152503268815
0	5203	51.091937415069	0.057487294964
0	5208	51.149424710033	0.085961497938
0	5213	51.235386207971	0.04759520146
0	5218	51.282981409431	0.002196854035
0	5222	51.285178263466	0.009540897065
0	5227	51.294719160531	0.129126510826
0	5233	51.423845671357	0.017930978073
0	5238	51.44177664943	0.050419845004
0	5243	51.492196494434	0.062916053625
0	5248	51.555112548059	0.025496821918
0	5253	51.580609369977	0.028166087043
0	5258	51.60877545702	0.200385155035
0	5263	51.809160612055	0.007235263473
0	5267	51.816395875528	0.005164758349
0	5272	51.821560633877	0.00955534243
0	5277	51.831115976307	0.029881351045
0	5283	51.860997327352	0.064672282097
0	5288	51.925669609449	0.004122364605
0	5292	51.929791974054	0.048968494735
0	5298	51.978760468789	0.015936529816
0	5303	51.994696998605	0.040529647426
0	5308	52.035226646031	0.123095359139
0	5313	52.15832200517	0.002870010778
0	5317	52.161192015948	0.323646684947
0	5323	52.484838700895	0.02459048476
0	5328	52.509429185655	0.009354785815
0	5333	52.51878397147	0.029505467417
0	5338	52.548289438887	0.01666432374
0	5343	52.564953762627	0.043895298185
0	5348	52.608849060812	0.061873409893
0	5353	52.670722470705	0.059550736863
0	5358	52.730273207568	0.003598742189
0	5362	52.733871949757	0.06327212343
0	5368	52.797144073187	0.025372060342
0	5373	52.822516133529	0.044823336895
0	5378	52.867339470424	0.235723962015
0	5383	53.103063432439	0.015785036926
0	5388	53.118848469365	0.161435626578
0	5394	53.280284095943	0.026238536172
0	5399	53.306522632115	0.062246795987
0	5404	53.368769428102	0.074724714262
0	5409	53.443494142364	0.116126319235
0	5414	53.559620461599	0.031328445749
0	5419	53.590948907348	0.026625951021
0	5424	53.617574858369	0.025870007517
0	5429	53.643444865886	0.046510436341
0	5434	53.689955302227	0.096389284169
0	5439	53.786344586396	0.070818955501
0	5444	53.857163541897	0.265891812447
0	5450	54.123055354344	0.122902318726
0	5455	54.24595767307	0.027251555522
0	5460	54.273209228592	0.000113686042
0	5464	54.273322914634	0.05028257759
0	5470	54.323605492224	0.208656358734
0	5476	54.532261850958	0.121122185728
0	5481	54.653384036686	0.009017831712
0	5486	54.662401868398	0.008389612372
0	5491	54.67079148077	0.086196252265
0	5496	54.756987733035	0.017208527981
0	5501	54.774196261016	0.030155463186
0	5506	54.804351724202	0.052101204606
0	5511	54.856452928808	0.056607216207
0	5516	54.913060145015	0.009823281862
0	5521	54.922883426877	0.003977800189
0	5525	54.926861227066	0.016432373545
0	5531	54.943293600611	0.015122545748
0	5536	54.958416146359	0.137602422115
0	5541	55.096018568474	0.03070925678
0	5546	55.126727825254	0.018908974556
0	5551	55.14563679981	0.09521219649
0	5556	55.2408489963	0.005049543128
0	5560	55.245898539428	0.119465376261
0	5566	55.365363915689	0.034590404206
0	5571	55.399954319895	0.01614638345
0	5576	55.416100703345	0.003953200059
0	5580	55.420053903404	0.003562068653
0	5583	55.423615972057	0.014449373882
0	5590	55.438065345939	0.019159134559
0	5596	55.457224480498	0.155246060632
0	5602	55.61247054113	0.02381783643
0	5607	55.63628837756	0.092108793186
0	5612	55.728397170746	0.044249056725
0	5617	55.772646227471	0.00805133747
0	5622	55.780697564941	0.010671593132
0	5627	55.791369158073	0.01413130853
0	5632	55.805500466603	0.032740902006
0	5637	55.838241368609	0.00281580055
0	5641	55.841057169159	0.027553093648
0	5647	55.868610262807	0.011147036547
0	5652	55.879757299354	0.079869194142
0	5657	55.959626493496	0.082779809447
0	5662	56.042406302943	0.005962169337
0	5666	56.04836847228	0.123195061701
0	5672	56.171563533981	0.002392478593
0	5676	56.173956012574	0.049037602405
0	5682	56.222993614979	0.059887449683
0	5687	56.282881064662	0.004466741805
0	5691	56.287347806467	0.033125156298
0	5697	56.320472962765	0.034787187469
0	5702	56.355260150234	0.017171594402
0	5707	56.372431744636	0.055051783254
0	5712	56.42748352789	0.105295378517
0	5717	56.532778906407	0.005633982474
0	5721	56.538412888881	0.101676426155
0	5727	56.640089315036	0.043639438788
0	5732	56.683728753824	0.004568441164
0	5736	56.688297194988	0.070454515699
0	5742	56.758751710687	0.031028990037
0	5747	56.789780700724	0.02435685157
0	5752	56.814137552294	0.054151953796
0	5757	56.86828950609	0.087326558276
0	5762	56.955616064366	0.032215542044
0	5767	56.98783160641	0.009302758886
0	5772	56.997134365296	0.004900479256
0	5776	57.002034844552	0.015319488348
0	5782	57.0173543329	0.062107573726
0	5787	57.079461906626	0.081727067332
0	5792	57.161188973958	0.085499137718
0	5797	57.246688111676	0.057686425107
0	5802	57.304374536783	0.154199660307
0	5807	57.45857419709	0.076162467908
0	5812	57.534736664998	0.004557237884
0	5816	57.539293902882	0.009839971466
0	5821	57.549133874348	0.02843935571
0	5827	57.577573230058	0.1533164728
0	5832	57.730889702858	0.005959975456
0	5836	57.736849678314	0.009737099439
0	5842	57.746586777753	0.01314191896
0	5847	57.759728696713	0.059691832123
0	5852	57.819420528836	0.024801311482
0	5857	57.844221840318	0.018447411151
0	5862	57.862669251469	0.006520948868
0	5866	57.869190200337	0.035581744169
0	5872	57.904771944506	0.00928748904
0	5877	57.914059433546	0.122958552721
0	5882	58.037017986267	0.028240343676
0	5887	58.065258329943	0.075198267735
0	5892	58.140456597678	0.034355764007
0	5897	58.174812361685	0.069121458008
0	5902	58.243933819693	0.08292450325
0	5907	58.326858322943	0.005873886654
0	5911	58.332732209597	0.068255150752
0	5917	58.400987360349	0.122223837012
0	5922	58.523211197361	0.016408054855
0	5927	58.539619252216	0.116691983513
0	5932	58.656311235729	0.179170524591
0	5937	58.83548176032	0.207119361497
0	5942	59.042601121817	0.080260291193
0	5947	59.12286141301	0.005996358997
0	5951	59.128857772007	0.117897949543
0	5957	59.24675572155	0.024128323744
0	5962	59.270884045294	0.030906542905
0	5967	59.301790588199	0.016076542528
0	5972	59.317867130727	0.065777792371
0	5977	59.383644923098	0.094427814874
0	5982	59.478072737972	0.072035178065
0	5987	59.550107916037	0.114701960696
0	5992	59.664809876733	0.019590380916
0	5997	59.684400257649	0.035179360687
0	6003	59.719579618336	0.026084648256
0	6008	59.745664266592	0.012505343836
0	6013	59.758169610428	0.220883437617
0	6020	59.979053048045	0.002472736572
0	6024	59.981525784617	0.022829191909
0	6030	60.004354976526	0.106416475608
0	6035	60.110771452134	0.012055941933
0	6040	60.122827394067	0.148225477325
0	6046	60.271052871392	0.020572475176
0	6051	60.291625346568	0.070258889064
0	6056	60.361884235632	0.04033308828
0	6061	60.402217323912	0.086859035191
0	6066	60.489076359103	0.068101462695
0	6071	60.557177821798	0.018625827458
0	6076	60.575803649256	0.037102750681
0	6081	60.612906399937	0.006905126442
0	6085	60.619811526379	0.006407330628
0	6090	60.626218857007	0.005313682675
0	6095	60.631532539682	0.051737719973
0	6101	60.683270259655	0.055732873202
0	6107	60.739003132857	0.091049113205
0	6112	60.830052246062	0.007650299853
0	6116	60.837702545915	0.040322405448
0	6122	60.878024951363	0.12822109805
0	6127	61.006246049413	0.012643928198
0	6133	61.018889977611	0.014045960802
0	6138	61.032935938413	0.048999332036
0	6143	61.081935270449	0.068929290809
0	6148	61.150864561258	0.131885067086
0	6153	61.282749628344	0.047214318486
0	6158	61.32996394683	0.044719881373
0	6163	61.374683828203	0.021147128124
0	6168	61.395830956327	0.022420497323
0	6173	61.41825145365	0.049879174861
0	6178	61.468130628511	0.030487744948
0	6184	61.498618373459	0.000904773889
0	6188	61.499523147348	0.044946522503
0	6194	61.544469669851	0.072293190562
0	6199	61.616762860413	0.006868922668
0	6203	61.623631783081	0.009435451207
0	6209	61.633067234288	0.082251407644
0	6214	61.715318641932	0.047389908828
0	6219	61.76270855076	0.101279869411
0	6224	61.863988420171	0.006255875236
0	6228	61.870244295407	0.007222514938
0	6233	61.877466810345	0.042244581681
0	6239	61.919711392026	0.009636778402
0	6244	61.929348170428	0.066148315059
0	6249	61.995496485487	0.011517660727
0	6254	62.007014146214	0.079624710897
0	6259	62.086638857111	0.04339097493
0	6264	62.130029832041	0.007324117303
0	6268	62.137353949344	0.067462997319
0	6274	62.204816946663	0.032393557883
0	6279	62.237210504546	0.046591029826
0	6284	62.283801534372	0.0264695732
0	6289	62.310271107572	0.044008329633
0	6295	62.354279437205	0.025465385187
0	6300	62.379744822392	0.042146907565
0	6305	62.421891729957	0.088793787554
0	6310	62.510685517511	0.120782637481
0	6315	62.631468154992	0.010395188993
0	6320	62.641863343985	0.00604814999
0	6324	62.647911493975	0.071672830657
0	6330	62.719584324632	0.037727148409
0	6335	62.757311473041	0.066551469303
0	6340	62.823862942344	0.002756295134
0	6344	62.826619237478	0.02744653556
0	6350	62.854065773038	0.009286921392
0	6355	62.86335269443	0.007369715578
0	6359	62.870722410008	0.077569462712
0	6365	62.94829187272	0.060951230439
0	6370	63.009243103159	0.005463846451
0	6374	63.01470694961	0.103991389272
0	6380	63.118698338882	0.039967733063
0	6385	63.158666071945	0.00967099135
0	6390	63.168337063295	0.035991434892
0	6395	63.204328498187	0.006253320292
0	6399	63.210581818479	0.129077311392
0	6405	63.339659129871	0.011824373901
0	6410	63.351483503772	0.01442271595
0	6415	63.365906219722	0.029302427652
0	6420	63.395208647374	0.044433141193
0	6425	63.439641788567	0.030853292906
0	6430	63.470495081473	0.096240516061
0	6435	63.566735597534	0.070720885007
0	6440	63.637456482541	0.004785450505
0	6444	63.642241933046	0.008970206571
0	6449	63.651212139617	0.053947606435
0	6455	63.705159746052	0.11490989744
0	6461	63.820069643492	0.02621736742
0	6466	63.846287010912	0.036875326858
0	6471	63.88316233777	0.0102596668
0	6476	63.89342200457	0.016383660909
0	6481	63.909805665479	0.049444183831
0	6486	63.95924984931	0.001151175009
0	6490	63.960401024319	0.095174580176
0	6496	64.055575604495	0.044084295039
0	6501	64.099659899534	0.090155548179
0	6506	64.189815447713	0.011275416308
0	6511	64.201090864021	0.075068773985
0	6516	64.276159638006	0.029127877866
0	6521	64.305287515872	0.023441349386
0	6526	64.328728865258	0.16192674627
0	6531	64.490655611528	0.06374762568
0	6536	64.554403237208	0.011308475072
0	6541	64.56571171228	0.009876472271
0	6546	64.575588184551	0.026700092497
0	6551	64.602288277048	0.083100180736
0	6556	64.685388457784	0.09281225791
0	6561	64.778200715694	0.150446399273
0	6567	64.928647114967	0.001379638972
0	6571	64.930026753939	0.011343514383
0	6576	64.941370268322	0.055598301939
0	6582	64.996968570261	0.014386376691
0	6587	65.011354946952	0.031331859193
0	6592	65.042686806145	0.004269034079
0	6596	65.046955840224	0.020989055005
0	6602	65.067944895229	0.06000656194
0	6607	65.127951457169	0.03465528625
0	6612	65.162606743419	0.032938045144
0	6617	65.195544788563	0.028292024672
0	6622	65.223836813235	0.014430342919
0	6627	65.238267156154	0.040773888003
0	6632	65.279041044157	0.009814749778
0	6637	65.288855793935	0.005720249762
0	6641	65.294576043697	0.030451230134
0	6647	65.325027273831	0.02192763726
0	6652	65.346954911091	0.019871829829
0	6657	65.36682674092	0.132867029705
0	6662	65.499693770625	0.013447603151
0	6667	65.513141373776	0.035047004314
0	6672	65.54818837809	0.041875338416
0	6677	65.590063716506	0.051288068912
0	6682	65.641351785418	0.058204362856
0	6687	65.699556148274	0.031803523141
0	6692	65.731359671415	0.008951413478
0	6697	65.740311084893	0.17196775864
0	6702	65.912278843533	0.017298551982
0	6707	65.929577395515	0.006187281399
0	6711	65.935764676914	0.213382907766
0	6717	66.14914758468	0.021583325202
0	6722	66.170730909882	0.160483520944
0	6727	66.331214430826	0.057004245204
0	6732	66.38821867603	0.123704989316
0	6737	66.511923665346	0.076955949422
0	6742	66.588879614768	0.022958381919
0	6747	66.611837996687	0.025350189702
0	6752	66.637188186389	0.011185567953
0	6757	66.648373754342	0.067501765626
0	6762	66.715875519968	0.010677856636
0	6767	66.726553376604	0.023314612858
0	6772	66.749867989462	0.008375845328
0	6777	66.75824383479	0.005134833428
0	6781	66.763378668218	0.063810872803
0	6787	66.827189541021	0.000855882022
0	6791	66.828045423043	0.087525690411
0	6797	66.915571113454	0.00763912216
0	6801	66.923210235614	0.068613614687
0	6807	66.991823850301	0.217423477829
0	6812	67.20924732813	0.014466027871
0	6817	67.223713356001	0.010662033058
0	6822	67.234375389059	0.065194716473
0	6827	67.299570105532	0.0004017305
0	6831	67.299971836032	0.05806168382
0	6837	67.358033519852	0.04201809514
0	6842	67.400051614992	0.034615881625
0	6847	67.434667496617	0.032917706211
0	6852	67.467585202828	0.023887764297
0	6857	67.491472967125	0.017684709302
0	6862	67.509157676427	0.091065347002
0	6867	67.600223023429	0.133399301796
0	6873	67.733622325225	0.005426172147
0	6877	67.739048497372	0.060500795202
0	6883	67.799549292574	0.010467285215
0	6888	67.810016577789	0.026740113812
0	6893	67.836756691601	0.099215307135
0	6898	67.935971998736	0.00119816016
0	6902	67.937170158896	0.078479122213
0	6909	68.015649281109	0.058677661972
0	6914	68.074326943081	0.085278519805
0	6919	68.159605462886	0.055881819457
0	6924	68.215487282343	0.053404762946
0	6929	68.268892045289	0.020590162502
0	6934	68.289482207791	0.219273634428
0	6940	68.508755842219	0.179356676911
0	6946	68.68811251913	0.010695303889
0	6951	68.698807823019	0.127027966317
0	6956	68.825835789336	0.028663115526
0	6961	68.854498904862	0.034911157531
0	6966	68.889410062393	0.071011479846
0	6971	68.960421542239	0.093728777314
0	6976	69.054150319553	0.038630602087
0	6981	69.09278092164	0.095533664579
0	6987	69.188314586219	0.046064979638
0	6993	69.234379565857	0.023038601702
0	6998	69.257418167559	0.140563424911
0	7003	69.39798159247	0.248085130843
0	7009	69.646066723313	0.025500835167
0	7014	69.67156755848	0.024659550771
0	7019	69.696227109251	0.090364452074
0	7024	69.786591561325	0.071496373084
0	7029	69.858087934409	0.006505661422
0	7033	69.864593595831	0.030425042828
0	7039	69.895018638659	0.032738735132
0	7044	69.927757373791	0.006093867867
0	7048	69.933851241658	0.064747972883
0	7054	69.998599214541	0.041085049005
0	7059	70.039684263546	0.102850983622
0	7064	70.142535247168	0.061394965021
0	7069	70.203930212189	0.058995690969
0	7074	70.262925903158	0.047330123707
0	7079	70.310256026865	0.024414205062
0	7084	70.334670231927	0.017752675491
0	7089	70.352422907418	0.021943968181
0	7094	70.374366875599	0.109578111254
0	7099	70.483944986853	0.017467197594
0	7104	70.501412184447	0.078726831567
0	7109	70.580139016014	0.044431590495
0	7114	70.624570606509	0.02548453103
0	7120	70.650055137539	0.045567238212
0	7125	70.695622375751	0.016099015576
0	7130	70.711721391327	0.047764322195
0	7135	70.759485713522	0.085985893251
0	7140	70.845471606773	0.075123567407
0	7145	70.92059517418	0.015640965962
0	7150	70.936236140142	0.029872924104
0	7155	70.966109064246	0.01507905761
0	7160	70.981188121856	0.020303048826
0	7165	71.001491170682	0.015601020945
0	7170	71.017092191627	0.005070834581
0	7174	71.022163026208	0.046612161798
0	7180	71.068775188006	0.208219206169
0	7185	71.276994394175	0.0160550899
0	7190	71.293049484075	0.024227779633
0	7195	71.317277263708	0.097712079753
0	7200	71.414989343461	0.027150940553
0	7205	71.442140284014	0.016678983241
0	7210	71.458819267255	0.06839050364
0	7215	71.527209770895	0.146764202573
0	7220	71.673973973468	0.015258799859
0	7225	71.689232773327	0.024838283026
0	7230	71.714071056353	0.055877270967
0	7235	71.76994832732	0.062717338235
0	7240	71.832665665555	0.206496261161
0	7245	72.039161926716	0.009681329539
0	7250	72.048843256255	0.01555705464
0	7255	72.064400310895	0.009664151653
0	7260	72.074064462548	0.016756255961
0	7265	72.090820718509	0.015202698237
0	7270	72.106023416746	0.02886908539
0	7275	72.134892502136	0.016740448716
0	7280	72.151632950852	0.086585290165
0	7285	72.238218241017	0.055013348154
0	7291	72.293231589171	0.016966854096
0	7296	72.310198443267	0.157405311824
0	7302	72.467603755091	0.051712005063
0	7307	72.519315760154	0.05416439144
0	7312	72.573480151594	0.009952215461
0	7317	72.583432367055	0.048820579025
0	7322	72.63225294608	0.091551491181
0	7327	72.723804437261	0.18703962246
0	7332	72.910844059721	0.017303284832
0	7337	72.928147344553	0.018664401991
0	7342	72.946811746544	0.172958431176
0	7347	73.11977017772	0.079564319613
0	7352	73.199334497333	0.004752068395
0	7356	73.204086565728	0.048335336257
0	7362	73.252421901985	0.040620988379
0	7367	73.293042890364	0.048827390859
0	7373	73.341870281223	0.025461196196
0	7378	73.367331477419	0.024942152621
0	7383	73.39227363004	0.011945348809
0	7388	73.404218978849	0.189577845253
0	7393	73.593796824102	0.006488286976
0	7397	73.600285111078	0.018997713893
0	7403	73.619282824971	0.002344185281
0	7407	73.621627010252	0.015526228351
0	7413	73.637153238603	0.019656583168
0	7418	73.656809821771	0.048213674256
0	7423	73.705023496027	0.059525397333
0	7428	73.76454889336	0.003889276998
0	7432	73.768438170358	0.040682075275
0	7438	73.809120245633	0.025303658586
0	7443	73.834423904219	0.013085573154
0	7448	73.847509477373	0.046523109457
0	7453	73.89403258683	0.040476079237
0	7458	73.934508666067	0.042850220694
0	7463	73.977358886761	0.19002387939
0	7470	74.167382766151	0.111116721063
0	7475	74.278499487214	0.133107485192
0	7480	74.411606972406	0.114045624618
0	7485	74.525652597024	0.068374057148
0	7490	74.594026654172	0.0026738104
0	7494	74.596700464572	0.093675133594
0	7500	74.690375598166	0.063529594992
0	7505	74.753905193158	0.042107823651
0	7510	74.796013016809	0.130376182591
0	7515	74.9263891994	0.00119157169
0	7519	74.92758077109	0.017644363908
0	7525	74.945225134998	0.006602580545
0	7529	74.951827715543	0.005934990413
0	7534	74.957762705956	0.08259888304
0	7540	75.040361588996	0.095849286016
0	7546	75.136210875012	0.105355675726
0	7551	75.241566550738	0.038121965327
0	7556	75.279688516065	0.06402098589
0	7561	75.343709501955	0.080931346221
0	7566	75.424640848176	0.012281036792
0	7571	75.436921884968	0.029666812707
0	7576	75.466588697675	0.012237732561
0	7581	75.478826430236	0.119592485569
0	7586	75.598418915805	0.033481347189
0	7591	75.631900262994	0.118843515942
0	7596	75.750743778936	0.024248391293
0	7601	75.774992170229	0.028975224875
0	7606	75.803967395104	0.009057779917
0	7611	75.813025175021	0.09445050049
0	7616	75.907475675511	0.058002323362
0	7621	75.965477998873	0.0824299061
0	7627	76.047907904973	0.010203685645
0	7632	76.058111590618	0.045261879419
0	7637	76.103373470037	0.037768250278
0	7642	76.141141720315	0.019701899742
0	7647	76.160843620057	0.054552042568
0	7653	76.215395662625	0.014038196019
0	7658	76.229433858644	0.050577470313
0	7663	76.280011328957	0.067052706036
0	7668	76.347064034993	0.046949083697
0	7673	76.39401311869	0.070690050197
0	7678	76.464703168887	0.070722129221
0	7683	76.535425298108	0.001012092442
0	7687	76.53643739055	0.002998713618
0	7690	76.539436104168	0.069899200563
0	7698	76.609335304731	0.030268000591
0	7703	76.639603305322	0.01152323494
0	7708	76.651126540262	0.154587968942
0	7713	76.805714509204	0.017250461894
0	7718	76.822964971098	0.062820645813
0	7723	76.885785616911	0.076735332496
0	7728	76.962520949407	0.00412343044
0	7732	76.966644379847	0.048329303637
0	7738	77.014973683484	0.006675917284
0	7742	77.021649600768	0.119389043268
0	7748	77.141038644036	0.15656358648
0	7753	77.297602230516	0.124543374856
0	7758	77.422145605372	0.038242402342
0	7763	77.460388007714	0.008325560198
0	7768	77.468713567912	0.165955972133
0	7773	77.634669540045	0.019435898481
0	7778	77.654105438526	0.130428172975
0	7784	77.784533611501	0.057023092901
0	7789	77.841556704402	0.073437969595
0	7794	77.914994673997	0.068410605301
0	7799	77.983405279298	0.037164084744
0	7804	78.020569364042	0.019865530077
0	7809	78.040434894119	0.096154412215
0	7814	78.136589306334	0.015487852318
0	7819	78.152077158652	0.024015203556
0	7824	78.176092362208	0.083604818022
0	7829	78.25969718023	0.111727593059
0	7834	78.371424773289	1.717179e-006
0	7838	78.371426490468	0.01820481746
0	7844	78.389631307928	0.102393828006
0	7849	78.492025135934	0.006089055873
0	7853	78.498114191807	0.025617797867
0	7859	78.523731989674	0.028335548109
0	7864	78.552067537783	0.034572113393
0	7869	78.586639651176	0.018383280251
0	7874	78.605022931427	0.138023670454
0	7879	78.743046601881	0.002551258109
0	7883	78.74559785999	0.038673678869
0	7889	78.784271538859	0.063137912348
0	7894	78.847409451207	0.031800995871
0	7899	78.879210447078	0.010954324619
0	7904	78.890164771697	0.060009304449
0	7910	78.950174076146	0.028279789641
0	7916	78.978453865787	0.026240974005
0	7922	79.004694839792	0.0053642245
0	7926	79.010059064292	0.044352145627
0	7932	79.054411209919	0.01305420141
0	7937	79.067465411329	0.066826486362
0	7942	79.134291897691	0.053094712628
0	7947	79.187386610319	0.007233348937
0	7951	79.194619959256	0.008012460605
0	7956	79.202632419861	0.058563459961
0	7962	79.261195879822	0.006401779137
0	7966	79.267597658959	0.018882040074
0	7972	79.286479699033	0.122204977514
0	7977	79.408684676547	0.016025906789
0	7982	79.424710583336	0.006477192395
0	7986	79.431187775731	0.031247595729
0	7992	79.46243537146	0.003215639962
0	7996	79.465651011422	0.011053418731
0	8001	79.476704430153	0.043922533578
0	8007	79.520626963731	0.131535136031
0	8013	79.652162099762	0.016649357397
0	8018	79.668811457159	0.127602542694
0	8023	79.796413999853	0.017955216907
0	8028	79.81436921676	0.05105683864
0	8033	79.8654260554	0.099832066008
0	8038	79.965258121408	0.02231742969
0	8043	79.987575551098	0.085920362077
0	8048	80.073495913175	0.032866454336
0	8053	80.106362367511	0.11319847674
0	8058	80.219560844251	0.036543982952
0	8063	80.256104827203	0.124788581587
0	8068	80.38089340879	0.003316277237
0	8072	80.384209686027	0.001209846728
0	8075	80.385419532755	0.010449781691
0	8080	80.395869314446	0.014443735944
0	8087	80.41031305039	0.047478935793
0	8093	80.457791986183	0.002127294045
0	8097	80.459919280228	0.013883008666
0	8103	80.473802288894	0.039412286976
0	8108	80.51321457587	0.005174951703
0	8112	80.518389527573	0.059986537724
0	8118	80.578376065297	0.071789778406
0	8123	80.650165843703	0.138630514409
0	8128	80.788796358112	0.007580492216
0	8132	80.796376850328	0.120679721367
0	8138	80.917056571695	0.003991426536
0	8142	80.921047998231	0.019999090971
0	8148	80.941047089202	0.134499204185
0	8153	81.075546293387	0.18652038547
0	8158	81.262066678857	0.017482284884
0	8163	81.279548963741	0.031957704405
0	8168	81.311506668146	0.086454999544
0	8173	81.39796166769	0.065979018708
0	8178	81.463940686398	0.012618468046
0	8183	81.476559154444	0.00485983221
0	8187	81.481418986654	0.053837124712
0	8193	81.535256111366	0.01806596752
0	8198	81.553322078886	0.053501429333
0	8203	81.606823508219	0.00945748651
0	8208	81.616280994729	0.095866603799
0	8213	81.712147598528	0.020187158871
0	8218	81.732334757399	0.004899351172
0	8222	81.737234108571	0.030645089396
0	8228	81.767879197967	0.038018689068
0	8233	81.805897887035	0.028886699245
0	8238	81.83478458628	0.061902947811
0	8243	81.896687534091	0.126904480221
0	8249	82.023592014312	0.016372327508
0	8254	82.03996434182	0.002913433999
0	8258	82.042877775819	0.041458206407
0	8264	82.084335982226	0.005750993037
0	8268	82.090086975263	0.006264896024
0	8273	82.096351871287	0.027445972219
0	8279	82.123797843506	0.026451348738
0	8284	82.150249192244	0.078396165448
0	8289	82.228645357692	0.048471077362
0	8294	82.277116435054	0.09947840373
0	8299	82.376594838784	0.042874918279
0	8304	82.419469757063	0.224896176402
0	8309	82.644365933465	0.00877721846
0	8314	82.653143151925	0.090192642359
0	8319	82.743335794284	0.010254048237
0	8324	82.753589842521	0.000808377803
0	8328	82.754398220324	0.027422692139
0	8334	82.781820912463	0.108197512533
0	8339	82.890018424996	0.002339519825
0	8343	82.892357944821	0.024326244106
0	8349	82.916684188927	0.135053918755
0	8354	83.051738107682	0.021240901605
0	8359	83.072979009287	0.00282693994
0	8363	83.075805949227	0.005611246847
0	8368	83.081417196074	0.08045357004
0	8374	83.161870766114	0.015043560672
0	8379	83.176914326786	0.188387037145
0	8384	83.365301363931	0.057096112404
0	8389	83.422397476335	0.068065125429
0	8394	83.490462601764	0.030887185042
0	8400	83.521349786806	0.015201302291
0	8405	83.536551089097	0.002001063446
0	8409	83.538552152543	0.070080000896
0	8415	83.608632153439	0.021438461709
0	8420	83.630070615148	0.030090600595
0	8425	83.660161215743	0.044042136365
0	8430	83.704203352108	0.020101352674
0	8435	83.724304704782	0.074696618148
0	8441	83.79900132293	0.103119787604
0	8446	83.902121110534	0.051123476285
0	8451	83.953244586819	0.082096686534
0	8456	84.035341273353	0.103428929976
0	8461	84.138770203329	0.016688128034
0	8466	84.155458331363	0.049784555999
0	8471	84.205242887362	0.01616068578
0	8476	84.221403573142	0.072216026937
0	8481	84.293619600079	0.029466962568
0	8486	84.323086562647	0.044354036757
0	8491	84.367440599404	0.006114854072
0	8495	84.373555453476	0.016575744259
0	8501	84.390131197735	0.023462630838
0	8506	84.413593828573	0.111690192019
0	8511	84.525284020592	0.034019040633
0	8516	84.559303061225	0.019195370155
0	8521	84.57849843138	0.056643985127
0	8526	84.635142416507	0.09910683224
0	8531	84.734249248747	0.003492071468
0	8535	84.737741320215	0.036283341977
0	8541	84.774024662192	0.008743499547
0	8546	84.782768161739	0.208193240009
0	8551	84.990961401748	0.023847251745
0	8556	85.014808653493	0.02130889182
0	8561	85.036117545313	0.031675453299
0	8566	85.067792998612	0.130013302663
0	8571	85.197806301275	0.159042873636
0	8576	85.356849174911	0.023456010617
0	8581	85.380305185528	0.110977321329
0	8586	85.491282506857	0.03290835305
0	8591	85.524190859907	0.049666598488
0	8596	85.573857458395	0.074270070001
0	8601	85.648127528396	0.082523747752
0	8606	85.730651276148	0.003162083188
0	8610	85.733813359336	0.000880957391
0	8613	85.734694316727	0.070208842233
0	8621	85.80490315896	0.02617966755
0	8626	85.83108282651	0.060887724871
0	8631	85.891970551381	0.130670934738
0	8636	86.022641486119	0.137768429037
0	8641	86.160409915156	0.044124842814
0	8646	86.20453475797	0.047916240277
0	8651	86.252450998247	0.002753073441
0	8655	86.255204071688	0.12071969627
0	8661	86.375923767958	0.049784683043
0	8666	86.425708451001	0.003579311283
0	8670	86.429287762284	0.022285043843
0	8676	86.451572806127	0.071801795543
0	8681	86.52337460167	0.03579095673
0	8686	86.5591655584	0.005761847679
0	8690	86.564927406079	0.014970317116
0	8696	86.579897723195	0.004430695518
0	8700	86.584328418713	0.007486003429
0	8705	86.591814422142	0.007781490173
0	8710	86.599595912315	0.022648014469
0	8716	86.622243926784	0.003033241386
0	8720	86.62527716817	0.005143111321
0	8725	86.630420279491	0.128378413026
0	8731	86.758798692517	0.024423026037
0	8736	86.783221718554	0.015327868111
0	8741	86.798549586665	0.131766204117
0	8746	86.930315790782	0.008730740496
0	8751	86.939046531278	0.039929072369
0	8756	86.978975603647	0.008100082799
0	8761	86.987075686446	0.012244689355
0	8766	86.999320375801	0.065520942872
0	8771	87.064841318673	0.067200142206
0	8776	87.132041460879	0.002972678629
0	8780	87.135014139508	0.066471689758
0	8786	87.201485829266	0.057927595094
0	8791	87.25941342436	0.079927226189
0	8796	87.339340650549	0.135615470383
0	8801	87.474956120932	0.057145565859
0	8806	87.532101686791	0.054527140771
0	8811	87.586628827562	0.193106827319
0	8816	87.779735654881	0.020447127651
0	8821	87.800182782532	0.009702228858
0	8826	87.80988501139	0.024518093136
0	8831	87.834403104526	0.026840550625
0	8836	87.861243655151	0.078543911713
0	8841	87.939787566864	0.034252496407
0	8846	87.974040063271	0.007840469558
0	8851	87.981880532829	0.011366075929
0	8856	87.993246608758	0.011092631498
0	8861	88.004339240256	0.024147934753
0	8866	88.028487175009	0.134815543436
0	8871	88.163302718445	0.142667132224
0	8877	88.305969850669	0.038360674697
0	8882	88.344330525366	0.043661574353
0	8887	88.387992099719	0.032712704926
0	8892	88.420704804645	0.078491606314
0	8897	88.499196410959	0.004127615605
0	8901	88.503324026564	0.01660710813
0	8907	88.519931134694	0.024040651923
0	8912	88.543971786617	0.048546833548
0	8917	88.592518620165	0.046460298011
0	8922	88.638978918176	0.012886866812
0	8927	88.651865784988	0.004051425358
0	8931	88.655917210346	0.012273018217
0	8937	88.668190228563	0.015915715497
0	8942	88.68410594406	0.173131568802
0	8947	88.857237512862	0.101623425755
0	8952	88.958860938617	0.017575146175
0	8957	88.976436084792	0.019972991214
0	8962	88.996409076006	0.01279920127
0	8967	89.009208277276	0.013202734808
0	8972	89.022411012084	0.01642807438
0	8977	89.038839086464	0.023167257117
0	8982	89.062006343581	0.00137779658
0	8986	89.063384140161	0.00149970196
0	8989	89.064883842121	0.04192501918
0	8998	89.106808861301	0.039873575676
0	9003	89.146682436977	0.008916222982
0	9008	89.155598659959	0.111081505638
0	9013	89.266680165597	0.02616763168
0	9018	89.292847797277	0.000156990095
0	9022	89.293004787372	0.066948710568
0	9028	89.35995349794	0.04863007394
0	9033	89.40858357188	0.099417609456
0	9038	89.508001181336	0.001319031975
0	9042	89.509320213311	0.012949375279
0	9047	89.52226958859	0.041427636607
0	9053	89.563697225197	0.036129380856
0	9058	89.599826606053	0.100391959898
0	9063	89.700218565951	0.004187297984
0	9067	89.704405863935	0.06121438482
0	9073	89.765620248755	0.00676879586
0	9077	89.772389044615	0.234916815552
0	9084	90.007305860167	0.02409607868
0	9089	90.031401938847	0.014244105733
0	9094	90.04564604458	0.053190882867
0	9099	90.098836927447	0.025363505458
0	9104	90.124200432905	0.017963343517
0	9109	90.142163776422	0.030123859138
0	9114	90.17228763556	0.004439581853
0	9118	90.176727217413	0.009199607571
0	9123	90.185926824984	0.028519319495
0	9129	90.214446144479	0.00301364443
0	9133	90.217459788909	0.035261606231
0	9139	90.25272139514	0.097261178362
0	9146	90.349982573502	0.105476910644
0	9151	90.455459484146	0.088377971912
0	9157	90.543837456058	0.019253903728
0	9162	90.563091359786	0.016035588765
0	9167	90.579126948551	0.019287542955
0	9172	90.598414491506	0.110027000423
0	9177	90.708441491929	0.003303418629
0	9181	90.711744910558	0.082115018673
0	9187	90.793859929231	0.026053709157
0	9192	90.819913638388	0.143248246263
0	9197	90.963161884651	0.010160474995
0	9202	90.973322359646	0.018679279145
0	9207	90.992001638791	0.043557697944
0	9212	91.035559336735	0.025242805045
0	9217	91.06080214178	0.030088365578
0	9222	91.090890507358	0.146824639543
0	9228	91.237715146901	0.012008470045
0	9233	91.249723616946	0.004390795133
0	9237	91.254114412079	0.000847726659
0	9240	91.254962138738	0.028739608445
0	9248	91.283701747183	0.238913723836
0	9253	91.522615471019	0.012606743063
0	9258	91.535222214082	0.187105664187
0	9264	91.722327878269	0.00421167752
0	9268	91.726539555789	0.006432987094
0	9273	91.732972542883	0.009536600065
0	9278	91.742509142948	0.104632306501
0	9285	91.847141449449	0.238893798576
0	9290	92.086035248025	0.22330480591
0	9295	92.309340053935	0.004258986334
0	9299	92.313599040269	0.014444544402
0	9305	92.328043584671	0.11251284272
0	9311	92.440556427391	0.091207700005
0	9316	92.531764127396	0.110741118414
0	9321	92.64250524581	0.036919228469
0	9326	92.679424474279	0.172185808006
0	9331	92.851610282285	0.037231421494
0	9336	92.888841703779	0.008806213317
0	9341	92.897647917096	0.004630749828
0	9345	92.902278666924	0.01278291647
0	9351	92.915061583394	0.030268049364
0	9356	92.945329632758	0.021917146709
0	9361	92.967246779467	0.237210058744
0	9366	93.204456838211	0.089084659737
0	9371	93.293541497948	0.00712907334
0	9375	93.300670571288	0.014403879666
0	9381	93.315074450954	0.097350229608
0	9387	93.412424680562	0.02899620287
0	9392	93.441420883432	0.106879063591
0	9397	93.548299947023	0.039235335404
0	9402	93.587535282427	0.004475581636
0	9406	93.592010864063	0.000808833581
0	9409	93.592819697644	0.063031400064
0	9417	93.655851097708	0.031743260665
0	9422	93.687594358373	0.000555126887
0	9426	93.68814948526	0.027303119873
0	9433	93.715452605133	0.02281554277
0	9438	93.738268147903	0.004228288629
0	9442	93.742496436532	0.103489746367
0	9448	93.845986182899	0.071572027343
0	9453	93.917558210242	0.107975578333
0	9459	94.025533788575	0.050940772411
0	9464	94.076474560986	0.181857270976
0	9469	94.258331831962	0.040250219766
0	9474	94.298582051728	0.030569169122
0	9479	94.32915122085	0.012845755285
0	9484	94.341996976135	0.016542353065
0	9489	94.3585393292	0.039492324636
0	9494	94.398031653836	0.035521735786
0	9499	94.433553389622	0.055468536863
0	9504	94.489021926485	0.028406281681
0	9509	94.517428208166	0.044874458896
0	9514	94.562302667062	0.054612180487
0	9519	94.616914847549	0.010747408959
0	9524	94.627662256508	0.137858864058
0	9529	94.765521120566	0.030154661235
0	9534	94.795675781801	0.029772198982
0	9539	94.825447980783	0.024710797988
0	9544	94.850158778771	0.106132302197
0	9549	94.956291080968	0.036494343909
0	9554	94.992785424877	0.083670627195
0	9559	95.076456052072	0.075502950373
0	9564	95.151959002445	0.010596465876
0	9569	95.162555468321	0.057419743201
0	9574	95.219975211522	0.054060690052
0	9579	95.274035901574	0.021538270717
0	9584	95.295574172291	0.093856272471
0	9589	95.389430444762	0.004044746053
0	9593	95.393475190815	0.052872376817
0	9599	95.446347567632	0.021861446993
0	9604	95.468209014625	0.089460572191
0	9609	95.557669586816	0.042299785487
0	9614	95.599969372303	0.030692931744
0	9619	95.630662304047	0.052940163422
0	9624	95.683602467469	0.032159242846
0	9629	95.715761710315	0.036987264157
0	9634	95.752748974472	0.071373874344
0	9640	95.824122848816	0.007014450943
0	9644	95.831137299759	0.046808445941
0	9650	95.8779457457	0.026400927522
0	9655	95.904346673222	0.100936051205
0	9661	96.005282724427	0.005884376861
0	9665	96.011167101288	0.028819906369
0	9671	96.039987007657	0.043451971682
0	9676	96.083438979339	0.091548289232
0	9681	96.174987268571	0.009187120678
0	9686	96.184174389249	0.050536695062
0	9691	96.234711084311	0.003578553746
0	9695	96.238289638057	0.018090279604
0	9701	96.256379917661	0.099454805983
0	9706	96.355834723644	0.06304083316
0	9711	96.418875556804	0.099630495094
0	9716	96.518506051898	0.095823709212
0	9721	96.61432976111	0.024292688822
0	9726	96.638622449932	0.017113676276
0	9731	96.655736126208	0.008810915307
0	9736	96.664547041515	0.009470730786
0	9741	96.674017772301	0.00250088322
0	9745	96.676518655521	0.044763797605
0	9751	96.721282453126	0.020400668881
0	9756	96.741683122007	0.179140645219
0	9761	96.920823767226	0.106799049262
0	9766	97.027622816488	0.027992503049
0	9771	97.055615319537	0.108376229849
0	9776	97.163991549386	0.004244945217
0	9780	97.168236494603	0.024508621998
0	9786	97.192745116601	0.009627469417
0	9791	97.202372586018	0.042571356833
0	9796	97.244943942851	0.067577346048
0	9801	97.312521288899	0.109031529619
0	9806	97.421552818518	0.003846956462
0	9810	97.42539977498	0.016589486806
0	9816	97.441989261786	0.026161830118
0	9821	97.468151091904	0.022671963372
0	9826	97.490823055276	0.029211784726
0	9831	97.520034840002	0.006811602752
0	9835	97.526846442754	0.120736444136
0	9841	97.64758288689	0.035061272802
0	9846	97.682644159692	0.002843865597
0	9850	97.685488025289	0.039866321864
0	9856	97.725354347153	0.001623552101
0	9860	97.726977899254	0.167616441943
0	9867	97.894594341197	0.117805741894
0	9872	98.012400083091	0.04189997528
0	9877	98.054300058371	0.031820595285
0	9882	98.086120653656	0.114283087995
0	9887	98.200403741651	0.007563384807
0	9891	98.207967126458	0.085691867775
0	9897	98.293658994233	0.074902760385
0	9902	98.368561754618	0.01809341742
0	9907	98.386655172038	0.018796938001
0	9912	98.405452110039	0.034264521148
0	9917	98.439716631187	0.050660090618
0	9922	98.490376721805	0.019409381813
0	9927	98.509786103618	0.043100778091
0	9932	98.552886881709	0.044783030735
0	9938	98.597669912444	0.010129127884
0	9943	98.607799040328	0.007592885189
0	9947	98.615391925517	0.097480147587
0	9953	98.712872073104	0.101799515144
0	9958	98.814671588248	0.027653963818
0	9963	98.842325552066	0.071308439121
0	9968	98.913633991187	0.069199026489
0	9973	98.982833017676	0.081909331901
0	9978	99.064742349577	0.130982483875
0	9983	99.195724833452	0.085724826574
0	9988	99.281449660026	0.019059715331
0	9993	99.300509375357	0.07555963923
0	9998	99.376069014587	0.085100316582
0	10003	99.461169331169	0.003970190738
0	10007	99.465139521907	0.047419917566
0	10013	99.512559439473	0.0447365298
0	10018	99.557295969273	0.014674825475
0	10023	99.571970794748	0.08451676617
0	10028	99.656487560918	0.060216715868
0	10033	99.716704276786	0.19523232655
0	10039	99.911936603336	0.006929323794
0	10043	99.91886592713	0.042237087614
0	10049	99.961103014744	0.026256518497
0	10055	99.987359533241	0.076543790763
0	10060	100.063903324004	0.005062978589
0	10064	100.068966302593	0.06802145629
0	10070	100.136987758883	0.008222453853
0	10075	100.145210212736	0.017458488268
0	10080	100.162668701004	0.018116077178
0	10085	100.180784778182	0.048739850188
0	10090	100.22952462837	0.065996240112
0	10095	100.295520868482	0.005567757387
0	10099	100.301088625869	0.00725822764
0	10104	100.308346853509	0.011192563619
0	10110	100.319539417128	0.150153747726
0	10115	100.469693164854	0.024334452682
0	10120	100.494027617536	0.024219856803
0	10125	100.518247474339	0.077104455546
0	10131	100.595351929885	0.015559796283
0	10136	100.610911726168	0.048817993763
0	10141	100.659729719931	0.013315822513
0	10146	100.673045542444	0.001290648737
0	10150	100.674336191181	0.020382033718
0	10156	100.694718224899	0.071167387027
0	10161	100.765885611926	0.017146717928
0	10166	100.783032329854	0.009576584509
0	10171	100.792608914363	0.006153950761
0	10175	100.798762865124	0.004216720106
0	10180	100.80297958523	0.01078830801
0	10185	100.81376789324	0.102264053197
0	10191	100.916031946437	0.101767498041
0	10196	101.017799444478	0.001526963663
0	10200	101.019326408141	0.050803415676
0	10206	101.070129823817	0.049998965591
0	10211	101.120128789408	0.014903085072
0	10216	101.13503187448	0.041968823216
0	10221	101.177000697696	0.113675545814
0	10226	101.29067624351	0.026379485867
0	10231	101.317055729377	0.061058274647
0	10236	101.378114004024	0.053892803592
0	10241	101.432006807616	0.022687300313
0	10246	101.454694107929	0.041316121377
0	10251	101.496010229306	0.20085430836
0	10256	101.696864537666	0.039022536705
0	10261	101.735887074371	0.015175961852
0	10266	101.751063036223	0.011412524667
0	10271	101.76247556089	0.028373190851
0	10276	101.790848751741	0.018721519085
0	10281	101.809570270826	0.035760364576
0	10286	101.845330635402	0.083035424768
0	10292	101.92836606017	0.12178213577
0	10297	102.05014819594	0.019536618332
0	10302	102.069684814272	0.039556386812
0	10307	102.109241201084	0.110161518592
0	10312	102.219402719676	0.068985638481
0	10317	102.288388358157	0.045012923107
0	10322	102.333401281264	0.006309750221
0	10326	102.339711031485	0.008459305146
0	10331	102.348170336631	0.101044911728
0	10337	102.449215248359	0.020114129522
0	10342	102.469329377881	0.177855944216
0	10347	102.647185322097	0.03463424522
0	10353	102.681819567317	0.109560104937
0	10358	102.791379672254	0.09341386037
0	10363	102.884793532624	0.011642336032
0	10368	102.896435868656	0.040888631323
0	10373	102.937324499979	0.139056223286
0	10378	103.076380723265	0.035508638203
0	10383	103.111889361468	0.018871586597
0	10388	103.130760948065	0.033759983483
0	10393	103.164520931548	0.002754350397
0	10397	103.167275281945	0.152790063275
0	10403	103.32006534522	0.002764990473
0	10407	103.322830335693	0.020775326935
0	10413	103.343605662628	0.183614444921
0	10418	103.527220107549	0.010791913485
0	10423	103.538012021034	0.029991410086
0	10428	103.56800343112	0.056204810563
0	10433	103.624208241683	0.125414872573
0	10438	103.749623114256	0.113501503185
0	10443	103.863124617441	0.00185812028
0	10447	103.864982737721	0.030665311609
0	10453	103.89564804933	0.070913458655
0	10458	103.966561507985	0.032665164064
0	10463	103.999226672049	0.007364158611
0	10467	104.00659083066	0.04289158877
0	10473	104.04948241943	0.018348340944
0	10478	104.067830760374	0.170207754187
0	10483	104.238038514561	0.029774531512
0	10488	104.267813046073	0.010290792682
0	10493	104.278103838755	0.089013114974
0	10498	104.367116953729	0.127991273164
0	10503	104.495108226893	0.103439038146
0	10508	104.598547265039	0.005875588594
0	10512	104.604422853633	0.062710633203
0	10518	104.667133486836	0.107544754186
0	10523	104.774678241022	0.019591494157
0	10528	104.794269735179	0.022647620274
0	10533	104.816917355453	0.086837996544
0	10538	104.903755351997	0.042989934655
0	10543	104.946745286652	0.012038218986
0	10548	104.958783505638	0.027027985782
0	10553	104.98581149142	0.044023224965
0	10558	105.029834716385	0.067834745655
0	10563	105.09766946204	0.001497189761
0	10567	105.099166651801	0.059038075885
0	10573	105.158204727686	0.105381586739
0	10578	105.263586314425	0.00058688343
0	10582	105.264173197855	0.050557781885
0	10588	105.31473097974	0.02423880987
0	10593	105.33896978961	0.013891272047
0	10598	105.352861061657	0.105126142322
0	10603	105.457987203979	0.022013153423
0	10608	105.480000357402	0.068564180639
0	10614	105.548564538041	0.034210945445
0	10619	105.582775483486	0.010104944703
0	10624	105.592880428189	0.078216002116
0	10629	105.671096430305	0.03453282835
0	10634	105.705629258655	0.03340575475
0	10639	105.739035013405	0.113553373395
0	10644	105.8525883868	0.054074391436
0	10649	105.906662778236	0.016910936215
0	10654	105.923573714451	0.000359490984
0	10658	105.923933205435	0.050444492479
0	10664	105.974377697914	0.015713961305
0	10669	105.990091659219	0.109776476552
0	10674	106.099868135771	0.057793142953
0	10679	106.157661278724	0.144351533733
0	10684	106.302012812457	0.2721145099
0	10690	106.574127322357	0.025814849792
0	10695	106.599942172149	0.039892188109
0	10700	106.639834360258	0.019034524369
0	10705	106.658868884627	0.012834878961
0	10710	106.671703763588	0.061439062767
0	10715	106.733142826355	0.054545744961
0	10720	106.787688571316	0.048866209601
0	10725	106.836554780917	0.120488805363
0	10730	106.95704358628	0.049545888931
0	10735	107.006589475211	0.075171554316
0	10740	107.081761029527	0.113601579134
0	10745	107.195362608661	0.007039980231
0	10749	107.202402588892	0.083684941684
0	10755	107.286087530576	0.021472079259
0	10760	107.307559609835	0.027049238764
0	10765	107.334608848599	0.022690810796
0	10770	107.357299659395	0.04863825485
0	10775	107.405937914245	0.136285616886
0	10780	107.542223531131	0.022732787043
0	10785	107.564956318174	0.024324553822
0	10790	107.589280871996	0.040020469037
0	10795	107.629301341033	0.035975649126
0	10800	107.665276990159	0.042370824123
0	10805	107.707647814282	0.022667355238
0	10810	107.73031516952	0.071965635435
0	10815	107.802280804955	0.20041870654
0	10820	108.002699511495	0.085458357125
0	10825	108.08815786862	0.010672515462
0	10830	108.098830384082	0.013724783252
0	10835	108.112555167334	0.008040148376
0	10840	108.12059531571	0.001923609663
0	10844	108.122518925373	0.021096992038
0	10850	108.143615917411	0.006368607144
0	10854	108.149984524555	0.003439425244
0	10859	108.153423949799	0.039063998483
0	10865	108.192487948282	0.067742999104
0	10870	108.260230947386	0.032214901439
0	10875	108.292445848825	0.00377924036
0	10879	108.296225089185	0.010950132739
0	10884	108.307175221924	0.082557672634
0	10890	108.389732894558	0.032274468479
0	10895	108.422007363037	0.154430520651
0	10900	108.576437883688	0.062136569261
0	10905	108.638574452949	0.036772895257
0	10910	108.675347348206	0.02849858359
0	10915	108.703845931796	0.093507879696
0	10920	108.797353811492	0.02012318709
0	10925	108.817476998582	0.051298939165
0	10930	108.868775937747	0.115568866829
0	10935	108.984344804576	0.017522461228
0	10940	109.001867265804	0.066843910586
0	10945	109.06871117639	0.079614493347
0	10950	109.148325669737	0.058251340705
0	10955	109.206577010442	0.166806338317
0	10961	109.373383348759	0.046420648479
0	10966	109.419803997238	0.110214868765
0	10971	109.530018866003	0.08861795006
0	10976	109.618636816063	0.019812765916
0	10981	109.638449581979	0.065388573095
0	10986	109.703838155074	0.033837552264
0	10991	109.737675707338	0.028080977885
0	10996	109.765756685223	0.00198667849
0	11000	109.767743363713	0.00841151839
0	11005	109.776154882103	0.060226727627
0	11011	109.83638160973	0.010762036261
0	11016	109.847143645991	0.015074154699
0	11021	109.86221780069	0.03963620868
0	11026	109.90185400937	0.026174458131
0	11031	109.928028467501	0.01379555982
0	11036	109.941824027321	0.02172176461
0	11041	109.963545791931	0.029219206596
0	11046	109.992764998527	0.005043283125
0	11050	109.997808281652	0.0707007113
0	11057	110.068508992952	0.005554066819
0	11061	110.074063059771	0.034624285131
0	11067	110.108687344902	0.063769783159
0	11072	110.172457128061	0.085738161965
0	11077	110.258195290026	0.034428024492
0	11082	110.292623314518	0.55693822094
0	11088	110.849561535458	0.053038369232
0	11093	110.90259990469	0.014069124757
0	11098	110.916669029447	0.045216926323
0	11103	110.96188595577	0.026207823083
0	11108	110.988093778853	0.026624829241
0	11113	111.014718608094	0.024057619966
0	11118	111.03877622806	0.006765514845
0	11122	111.045541742905	0.046313525192
0	11128	111.091855268097	0.012109507813
0	11133	111.10396477591	0.008164636056
0	11138	111.112129411966	0.011916391194
0	11143	111.12404580316	0.090932167315
0	11148	111.214977970475	0.075855433916
0	11153	111.290833404391	0.073404825583
0	11158	111.364238229974	0.094218778448
0	11163	111.458457008422	0.05454140993
0	11168	111.512998418352	0.190014987149
0	11173	111.703013405501	0.000155815662
0	11177	111.703169221163	0.047670835228
0	11183	111.750840056391	0.026121659753
0	11188	111.776961716144	0.043982158394
0	11193	111.820943874538	0.115397925856
0	11199	111.936341800394	0.039022335024
0	11204	111.975364135418	0.128163363037
0	11209	112.103527498455	0.088425305717
0	11214	112.191952804172	0.379774368655
0	11219	112.571727172827	0.092398735576
0	11224	112.664125908403	0.008262597568
0	11229	112.672388505971	0.014925968426
0	11234	112.687314474397	0.008860482257
0	11239	112.696174956654	0.007691742516
0	11243	112.70386669917	0.016047954795
0	11249	112.719914653965	0.144862582317
0	11255	112.864777236282	0.23850641456
0	11260	113.103283650842	0.056616852221
0	11265	113.159900503063	0.072068489506
0	11270	113.231968992569	0.089799295911
0	11275	113.32176828848	0.045634919566
0	11281	113.367403208046	0.078537679427
0	11286	113.445940887473	0.178917745586
0	11291	113.624858633059	0.041097825333
0	11296	113.665956458392	0.09427442288
0	11301	113.760230881272	0.000574491934
0	11305	113.760805373206	0.033785456707
0	11311	113.794590829913	0.019402085863
0	11316	113.813992915776	0.062403814072
0	11321	113.876396729848	0.006894582979
0	11325	113.883291312827	0.107771603602
0	11331	113.991062916429	0.037214623555
0	11336	114.028277539984	0.079156795403
0	11341	114.107434335387	0.044171381997
0	11346	114.151605717384	0.023620335739
0	11351	114.175226053123	0.010996567835
0	11356	114.186222620958	0.012384730115
0	11361	114.198607351073	0.036637117148
0	11366	114.235244468221	0.012759907759
0	11371	114.24800437598	0.073250450706
0	11376	114.321254826686	0.000991060293
0	11380	114.322245886979	0.003661793595
0	11383	114.325907680574	0.006854175332
0	11388	114.332761855906	0.021093759419
0	11396	114.353855615325	0.020371466577
0	11401	114.374227081902	0.019692712071
0	11406	114.393919793973	0.077260293487
0	11412	114.47118008746	0.051668942927
0	11417	114.522849030387	0.134175564772
0	11422	114.657024595159	0.066829994727
0	11427	114.723854589886	0.039904165849
0	11432	114.763758755735	0.024774036536
0	11437	114.788532792271	0.16434345331
0	11442	114.952876245581	0.114736511853
0	11447	115.067612757434	0.0115506949
[...]
4	39195	396.429550473541	0.007777777778
4	39200	396.46947649104	0.007777777778
4	39205	396.478400149845	0.007777777778
4	39210	396.596591515877	0.007777777778
4	39215	396.649068684694	0.007777777778
4	39220	396.750689704479	0.007777777778
4	39225	396.773390507767	0.007777777778
4	39230	396.817710360594	0.007777777778
4	39235	396.865912068401	0.007777777778
4	39240	396.939337953873	0.007777777778
4	39245	396.965886434492	0.007777777778
4	39250	397.06650223643	0.007777777778
4	39255	397.13387913788	0.007777777778
4	39260	397.149351066567	0.007777777778
4	39265	397.157128844345	0.015429427884
4	39270	397.196680784016	0.007777777778
4	39275	397.238055266182	0.007777777778
4	39280	397.355489594672	0.007777777778
4	39285	397.402142141816	0.007777777778
4	39290	397.409919919594	0.014283043999
4	39295	397.42388497197	0.007777777778
4	39300	397.432889058642	0.007777777778
4	39305	397.44066683642	0.009791581682
4	39310	397.486217723172	0.007777777778
4	39315	397.581647889901	0.007777777778
4	39320	397.614365343219	0.007777777778
4	39325	397.712175057729	0.007777777778
4	39330	397.735911088241	0.007777777778
4	39335	397.754528711757	0.007777777778
4	39341	397.863555111422	0.007777777778
4	39346	397.8713328892	0.012646190538
4	39354	397.879110666978	0.014784553212
4	39356	397.886888444756	0.020994211206
4	39361	397.922110928034	0.007777777778
4	39366	397.962613305364	0.007777777778
4	39371	398.021562134143	0.007777777778
4	39377	398.072143139601	0.007777777778
4	39382	398.183611448643	0.007777777778
4	39387	398.236060141028	0.007777777778
4	39392	398.266472791243	0.007777777778
4	39397	398.379553831741	0.007777777778
4	39402	398.424087487742	0.007777777778
4	39407	398.43186526552	0.009062767155
4	39412	398.462829157956	0.007777777778
4	39417	398.470606935734	0.013469179691
4	39422	398.526407300664	0.007777777778
4	39427	398.534185078442	0.008451056407
4	39432	398.54196285622	0.011309261828
4	39437	398.563013651631	0.007777777778
4	39442	398.572888825396	0.007777777778
4	39448	398.782827739874	0.007777777778
4	39453	398.813201055735	0.007777777778
4	39458	398.839058586241	0.007777777778
4	39464	398.90342299701	0.007777777778
4	39469	399.045071403865	0.007777777778
4	39474	399.099632606138	0.007777777778
4	39479	399.19002616931	0.007777777778
4	39484	399.215378049089	0.007777777778
4	39489	399.223155826867	0.014718712875
4	39494	399.25623160301	0.007777777778
4	39499	399.329019391547	0.007777777778
4	39504	399.360305565736	0.007777777778
4	39515	399.368083343514	0.015541989235
4	39517	399.375861121292	0.020656918828
4	39522	399.38363889907	0.027988087506
4	39524	399.391416676848	0.019796770765
4	39529	399.433818929783	0.007777777778
4	39534	399.47324642888	0.007777777778
4	39539	399.482853381222	0.007777777778
4	39544	399.526595488353	0.007777777778
4	39549	399.601920159188	0.007777777778
4	39554	399.645233019166	0.007777777778
4	39559	399.675431699678	0.007777777778
4	39564	399.712007339607	0.007777777778
4	39569	399.740490660778	0.007777777778
4	39574	399.749561450859	0.007777777778
4	39579	399.797879186267	0.007777777778
4	39584	399.805656964045	0.01324812423
4	39589	399.825937716277	0.007777777778
4	39594	399.854637606317	0.007777777778
4	39599	399.862415384095	0.01139248037
4	39604	399.965454220159	0.007777777778
4	39609	399.973231997937	0.010032045235
5	1086	10.771148459662	0.26491433784369
5	1112	11.036062797506	0.54878853011511
5	1158	11.584851327621	0.011464267754676
5	1159	11.596315595376	0.94683585266497
5	1260	12.543151448041	0.56294174337844
5	1341	13.106093191419	1.4527031284033
5	1482	14.558796319822	0.51475225791484
5	1498	15.073548577737	0.51403930503009
5	1579	15.587587882767	0.73955698112901
5	1644	16.327144863896	2.0564173453714
5	1876	18.383562209267	0.65083853171028
5	1972	19.034400740977	2.6096320501673
5	2258	21.644032791144	0.81048238486651
5	2334	22.454515176011	0.15843865566906
5	2349	22.61295383168	0.78391691856658
5	2426	23.396870750247	1.2090788687688
5	2572	24.605949619016	1.4308548897098
5	2707	26.036804508726	0.51529789436603
5	2773	26.552102403092	1.2460962431926
5	2870	27.798198646285	1.7052110771964
5	3071	29.503409723481	0.96674779006222
5	3162	30.470157513543	0.021511035896534
5	3163	30.49166854944	0.55528577947931
5	3244	31.046954328919	0.43511844595579
5	3279	31.482072774875	0.34118838055553
5	3296	31.823261155431	0.65801959480603
5	3352	32.481280750237	3.6441064745894
5	3663	36.125387224826	2.0779697739999
5	3894	38.203356998826	0.4061263968207
5	3940	38.609483395647	0.055312718319985
5	3946	38.664796113967	0.24692543834861
5	3972	38.911721552316	0.3109194991875
5	4013	39.222641051504	0.068073713682131
5	4014	39.290714765186	0.34551242894942
5	4040	39.636227194135	4.0669556606656
5	4463	43.703182854801	1.1286183347391
5	4597	44.83180118954	0.13680040069888
5	4623	44.968601590239	0.35755822245979
5	4644	45.326159812699	0.3888009227825
5	4685	45.714960735482	0.20175247870326
5	4711	45.916713214185	0.073585017875019
5	4717	45.99029823206	0.58022644650205
5	4753	46.570524678562	0.25459544404266
5	4774	46.825120122605	0.7571306082253
5	4840	47.58225073083	0.50027301633498
5	4906	48.082523747165	2.9041365292874
5	5202	50.986660276452	2.2647596429224
5	5393	53.251419919374	0.72078105271681
5	5449	53.972200972091	0.42382504238961
5	5475	54.396026014481	1.1195436366677
5	5601	55.515569651149	4.1831391384309
5	6002	59.69870878958	0.12977571709465
5	6018	59.828484506675	0.029152899225652
5	6019	59.857637405901	0.40442305656499
5	6045	60.262060462466	0.43337819081875
5	6106	60.695438653285	0.32083180172818
5	6132	61.016270455013	0.47958359054311
5	6183	61.495854045556	0.8447724391372
5	6294	62.340626484693	1.4446022130507
5	6460	63.785228697744	1.0791647429553
5	6566	64.864393440699	2.793672007761
5	6872	67.65806544846	0.33139817946746
5	6908	67.989463627927	0.38520640395538
5	6939	68.374670031882	0.15851154310794
5	6945	68.53318157499	0.56647212149284
5	6985	69.099653696483	0.12082427619214
5	6992	69.220477972675	0.31491041165216
5	7008	69.535388384327	1.0944656520191
5	7118	70.629854036346	1.6147313598921
5	7289	72.244585396238	0.065878020468848
5	7300	72.310463416707	1.0167709777739
5	7372	73.327234394481	0.65253865245892
5	7467	73.97977304694	0.071163221194991
5	7469	74.050936268135	1.0463158651096
5	7545	75.097252133245	0.92544368213117
5	7626	76.022695815376	0.14851370035365
5	7652	76.17120951573	1.5875519406699
5	7783	77.7587614564	1.1613620227112
5	7909	78.920123479111	0.032531622838887
5	7914	78.95265510195	0.033493761421414
5	7920	78.986148863371	0.60779151275636
5	8012	79.593940376127	2.3602832650501
5	8248	81.954223641177	1.5614697133515
5	8399	83.515693354528	0.25671426691232
5	8440	83.77240762144	4.4738368021648
5	8876	88.246244423605	0.84382030820558
5	8997	89.090064731811	0.87698479074213
5	9083	89.967049522553	0.30280508590965
5	9144	90.269854608463	0.039689612911572
5	9145	90.309544221375	0.19944192883497
5	9156	90.50898615021	0.59135425347068
5	9227	91.100340403681	0.46873565397983
5	9263	91.569076057661	0.20846741601456
5	9284	91.777543473676	0.64381221534251
5	9310	92.421355689019	0.98632606460506
5	9386	93.407681753624	0.2883246763184
5	9431	93.696006429942	0.24247648000366
5	9458	93.938482909946	1.8527305754415
5	9639	95.791213485387	0.16366088137293
5	9660	95.95487436676	1.8688862127856
5	9866	97.823760579546	0.76818177632271
5	9937	98.591942355869	1.2825389305592
5	10038	99.874481286428	0.10579038220609
5	10054	99.980271668634	0.58343672069724
5	10130	100.563708389331	1.3136330414805
5	10291	101.877341430811	0.79515135687727
5	10352	102.672492787688	2.8076115124954
5	10612	105.480104300183	0.98519309111881
5	10689	106.465297391302	2.8703018662209
5	10960	109.335599257523	0.69261903011946
5	11056	110.028218287642	0.46958532455105
5	11087	110.497803612193	1.3378948443862
5	11198	111.835698456579	0.90572239415437
5	11254	112.741420850733	0.61000734078088
5	11280	113.351428191514	1.0846582454488
5	11411	114.436086436963	0.95908543536889
5	11482	115.395171872332	0.71453518488196
5	11572	116.109707057214	1.0945195048532
5	11659	117.204226562067	0.6365638106241
5	11725	117.840790372691	0.58034004912867
5	11776	118.42113042182	0.0089118811556127
5	11777	118.430042302976	0.013496773508005
5	11778	118.443539076484	0.070311318790944
5	11793	118.513850395275	0.026256667732322
5	11795	118.540107063007	0.57060434094389
5	11836	119.110711403951	0.3163208264223
5	11857	119.427032230373	0.56474276245165
5	11938	119.991774992825	1.5289306774137
5	12099	121.520705670239	0.20565202408022
5	12110	121.726357694319	2.8599811823322
5	12436	124.586338876651	0.75439580255973
5	12497	125.340734679211	0.12471335562218
5	12503	125.465448034833	0.91400896021422
5	12584	126.379456995047	1.3690787674451
5	12710	127.748535762492	1.2762728031561
5	12861	129.024808565648	3.8359490607455
5	13227	132.860757626394	0.36585388120796
5	13257	133.226611507602	1.3733056761691
5	13403	134.599917183771	0.51817836331699
5	13445	135.118095547088	0.68433224718008
5	13535	135.802427794268	1.730377037608
5	13721	137.532804831876	0.12501761340586
5	13737	137.657822445282	0.88462334721609
5	13853	138.542445792498	1.5262168309422
5	14015	140.06866262344	1.2259306205016
5	14136	141.294593243942	0.033107794534152
5	14137	141.327701038476	0.71453885180106
5	14203	142.042239890277	0.11296499603756
5	14209	142.155204886315	1.7723196117398
5	14365	143.927524498055	0.27233704175933
5	14381	144.199861539814	1.2753900983435
5	14532	145.475251638157	0.38622089619659
5	14543	145.861472534354	2.0118702269458
5	14724	147.8733427613	2.6568516346233
5	14984	150.530194395923	0.227414871813
5	15041	150.757609267736	0.6372165660287
5	15097	151.394825833765	0.35458406110533
5	15122	151.74940989487	0.63131118234204
5	15154	152.380721077212	0.64588965463889
5	15220	153.026610731851	1.6855720093767
5	15461	154.712182741228	0.68043729644374
5	15527	155.392620037672	0.27654454855702
5	15553	155.669164586229	0.93566757307158
5	15674	156.604832159301	0.98022267973625
5	15745	157.585054839037	1.7089023986245
5	15886	159.293957237661	0.75010430939414
5	15937	160.044061547055	0.75019136686932
5	16033	160.794252913924	0.92674449244427
5	16123	161.720997406368	2.8002335937483
5	16410	164.521231000116	0.30832980342657
5	16441	164.829560803543	1.2851228946734
5	16552	166.114683698216	0.56646702898736
5	16578	166.681150727203	0.19693625409452
5	16599	166.878086981298	0.70724935320518
5	16670	167.585336334503	0.96686169147271
5	16731	168.552198025976	0.50975353298427
5	16797	169.06195155896	0.82618357642914
5	16887	169.888135135389	0.33895023366722
5	16914	170.227085369056	1.4414038163533
5	16995	171.668489185409	2.5422815605035
5	17211	174.210770745912	1.6432343163665
5	17387	175.854005062279	0.53076574449447
5	17433	176.384770806773	0.35471287479188
5	17494	176.739483681565	0.2359459248104
5	17520	176.975429606375	0.1489464032668
5	17531	177.124376009642	2.5953464916117
5	17717	179.719722501254	1.0089486886614
5	17797	180.728671189915	0.53961282010621
5	17844	181.268284010021	0.0083430875763737
5	17849	181.276627097597	0.15048910002811
5	17861	181.427116197625	1.5539240477739
5	17987	182.981040245399	0.10506031406979
5	17993	183.086100559469	0.69731061044442
5	18023	183.783411169913	2.5219757529723
5	18290	186.305386922885	5.8495019217805
5	18906	192.154888844666	0.3535839661921
5	18957	192.508472810858	4.1377100398951
5	19358	196.646182850753	2.9980897727428
5	19649	199.644272623496	0.25757794936893
5	19665	199.901850572865	0.41153494588714
5	19701	200.313385518752	1.89683529744
5	19892	202.210220816192	0.48825073645223
5	19928	202.698471552644	1.6756713774552
5	20129	204.374142930099	2.4294465701603
5	20405	206.803589500259	0.26936337779345
5	20431	207.072952878052	1.1331035491975
5	20556	208.20605642725	1.0695972055817
5	20683	209.275653632832	1.5032226497283
5	20859	210.77887628256	3.7797237478849
5	21250	214.558600030445	1.1884007900046
5	21376	215.74700082045	1.3151595669518
5	21437	217.062160387402	2.7047620596023
5	21748	219.766922447004	0.10051490311426
5	21749	219.867437350118	0.48803418037781
5	21795	220.355471530496	0.69436013560024
5	21866	221.049831666096	0.1776605150442
5	21887	221.22749218114	0.62056623372987
5	21953	221.84805841487	0.30012550299116
5	21994	222.148183917861	0.00074417143185289
5	21995	222.148928089293	0.16366920816935
5	22011	222.312597297462	4.5043243405035
5	22462	226.816921637965	1.2705583900618
5	22558	228.087480028027	2.1006238123742
5	22774	230.188103840401	0.80299533286436
5	22835	230.991099173265	0.24489228832034
5	22886	231.235991461585	0.58102434665907
5	22937	231.817015808244	0.92982567242421
5	23053	232.746841480668	1.6528489987141
5	23269	234.399690479382	0.63857020576289
5	23370	235.038260685145	0.82289728453438
5	23471	235.861157969679	0.44489575192046
5	23512	236.306053721599	1.0444072749233
5	23608	237.350460996522	0.75351830225379
5	23698	238.103979298776	0.5047978695168
5	23750	238.608777168293	0.83200268287311
5	23801	239.440779851166	1.015735095869
5	23907	240.456514947035	1.7930543454771
5	24063	242.249569292512	0.13277225699745
5	24073	242.382341549509	0.064872788685991
5	24075	242.447214338195	0.56575100230356
5	24121	243.012965340499	0.93233532214999
5	24187	243.945300662649	0.68363520933836
5	24218	244.628935871987	0.70039890242389
5	24284	245.329334774411	0.5409116066859
5	24354	245.870246381097	0.17470903644636
5	24376	246.044955417543	0.43450655427153
5	24416	246.479461971815	0.15717497153943
5	24433	246.636636943354	1.1384836647144
5	24524	247.775120608068	1.0156715493716
5	24645	248.79079215744	0.39467042884357
5	24681	249.185462586284	2.144779481872
5	24902	251.330242068156	0.2188311204223
5	24903	251.549073188578	0.033418025185364
5	24904	251.582491213763	0.61848777007967
5	24955	252.200978983843	0.55865458625428
5	24991	252.759633570097	0.16168511175074
5	24997	252.921318681848	2.1028581617203
5	25258	255.024176843568	1.2733068349519
5	25344	256.29748367852	0.64723176693055
5	25439	256.944715445451	0.87812055098328
5	25551	257.822835996434	0.45818658908663
5	25602	258.281022585521	0.56137870891985
5	25623	258.842401294441	0.27529280632707
5	25644	259.117694100768	0.048301228329436
5	25652	259.165995329097	0.0494337349048
5	25656	259.215429064002	0.79474741999499
5	25737	260.010176483997	0.1925740719454
5	25758	260.202750555942	0.13528120138439
5	25779	260.338031757326	0.81367870364802
5	25849	261.151710460974	0.86439683702801
5	25941	262.016107298002	0.7552044787658
5	26017	262.771311776768	0.18681810092086
5	26048	262.958129877689	0.78574845197745
5	26159	263.743878329666	0.053876287353304
5	26165	263.797754617019	0.35532263743724
5	26216	264.153077254456	0.63769512581856
5	26302	264.790772380275	2.0056264325971
5	26463	266.796398812872	0.25644987227717
5	26474	267.052848685149	1.8769679980922
5	26680	268.929816683241	1.6727937512911
5	26806	270.602610434532	0.62679848994897
5	26842	271.229408924481	0.14840038611594
5	26848	271.377809310597	1.3917419728388
5	26979	272.769551283436	0.090764512493872
5	26985	272.86031579593	1.5304912247775
5	27141	274.390807020707	0.55543086953066
5	27172	274.946237890238	0.45901913637644
5	27203	275.405257026614	1.1828257731899
5	27329	276.588082799804	0.19517958594808
5	27345	276.783262385752	0.71689172985917
5	27456	277.500154115611	0.29151675480582
5	27487	277.791670870417	0.65058055644994
5	27573	278.442251426867	0.2706165992451
5	27609	278.712868026112	0.41761425890151
5	27670	279.130482285014	0.49740863750136
5	27701	279.627890922515	2.586682536652
5	27932	282.214573459167	0.0072324996594333
5	27933	282.221805958826	2.427661378989
5	28199	284.649467337815	0.32974212067021
5	28230	284.979209458485	1.2306674272643
5	28366	286.209876885749	0.77017967084608
5	28427	286.980056556595	2.0649744707207
5	28608	289.045031027316	0.55001579928728
5	28678	289.595046826603	0.79611150064913
5	28760	290.391158327252	0.75891593803696
5	28881	291.150074265289	3.5522272317563
5	29152	294.702301497045	1.3473712157332
5	29243	296.049672712778	1.4773178441881
5	29359	297.526990556966	2.6767759360961
5	29605	300.203766493062	0.81676001103668
5	29686	301.020526504099	0.3945207911065
5	29747	301.415047295206	1.2613665032944
5	29897	302.6764137985	0.31549670334001
5	29909	302.99191050184	0.48029195457509
5	29930	303.472202456415	0.64669100446863
5	29971	304.118893460884	0.66177434685848
5	30067	304.780667807742	0.94062494201366
5	30148	305.721292749756	1.168279736171
5	30299	306.889572485927	0.20733224771693
5	30315	307.096904733644	1.8815925359975
5	30501	308.978497269641	0.028394706945248
5	30502	309.006891976586	0.43161184808636
5	30553	309.438503824672	0.22814798844587
5	30584	309.666651813118	1.6542781117598
5	30689	311.320929924878	0.28117603700799
5	30735	311.602105961886	0.3650113409749
5	30767	311.967117302861	0.57328730171872
5	30838	312.54040460458	1.3454193994408
5	30994	313.885824004021	0.99676689566233
5	31090	314.882590899683	0.52517026791532
5	31166	315.407761167598	0.35871074627982
5	31211	315.766471913878	3.5178254839771
5	31578	319.284297397855	3.7093561004624
5	32018	322.993653498317	1.2059420412648
5	32145	324.199595539582	2.0490934727467
5	32356	326.248689012329	0.13841225720268
5	32387	326.387101269532	0.96951226818329
5	32483	327.356613537715	3.0100121973636
5	32779	330.366625735079	0.4123191560686
5	32820	330.778944891148	0.55490509917723
5	32871	331.333849990325	0.18600626816117
5	32877	331.519856258486	0.49097497179528
5	32923	332.010831230281	1.0780162925557
5	33019	333.088847522837	5.1144637466764
5	33535	338.203311269513	1.2568430234896
5	33661	339.460154293003	1.037002326039
5	33757	340.497156619042	0.068386680426147
5	33767	340.565543299468	0.027402297281932
5	33778	340.59294559675	1.4921715078421
5	33945	342.085117104592	1.172807024555
5	34046	343.257924129147	2.1948866124955
5	34282	345.452810741642	0.065340206485498
5	34298	345.518150948127	1.0002806021739
5	34389	346.518431550301	0.48875427030024
5	34455	347.007185820601	1.2152107780654
5	34571	348.222396598666	0.23433004958981
5	34592	348.456726648256	1.9910221256128
5	34778	350.447748773869	2.0695854745562
5	34999	352.517334248425	2.9705306338534
5	35254	355.487864882278	1.152765384322
5	35371	356.6406302666	0.4336738837034
5	35387	357.074304150303	2.1591479953773
5	35613	359.23345214568	0.06102661687086
5	35624	359.294478762551	1.3253408774238
5	35780	360.619819639975	0.37244883033461
5	35796	360.99226847031	2.1317652299102
5	36042	363.12403370022	0.18735536985821
5	36048	363.311389070078	1.3612511407915
5	36204	364.672640210869	0.46848277316136
5	36230	365.14112298403	0.042461702386378
5	36240	365.183584686416	0.7011209377951
5	36316	365.884705624211	2.1526592927242
5	36507	368.037364916935	1.5629928888263
5	36679	369.600357805761	0.25116736217332
5	36705	369.851525167934	3.046644546087
5	37026	372.898169714021	0.89885235449457
5	37107	373.797022068516	0.34223798881721
5	37138	374.139260057333	2.1199210418422
5	37289	376.259181099175	3.0368478340009
5	37640	379.296028933176	1.4933039602283
5	37771	380.789332893404	0.20339517889202
5	37787	380.992728072296	0.10938582888909
5	37798	381.102113901185	0.579928062941
5	37863	381.682041964126	0.034555351835275
5	37865	381.716597315961	0.20150374293436
5	37881	381.918101058895	0.67212252572942
5	37951	382.590223584624	0.30198516288492
5	37990	382.892208747509	1.0163107529737
5	38104	383.908519500483	0.01735665135439
5	38105	383.925876151837	1.2991959938484
5	38241	385.225072145685	0.28273382375186
5	38252	385.507805969437	0.86218224717435
5	38352	386.369988216611	0.48859438838648
5	38419	386.858582604997	2.7763522926497
5	38629	389.634934897647	0.68749926829733
5	38656	390.322434165944	0.37609631392115
5	38701	390.698530479865	0.36174704894561
5	38733	391.060277528811	0.073908901029532
5	38743	391.134186429841	0.013126839760685
5	38745	391.147313269602	0.13003337857741
5	38756	391.277346648179	2.0943531838667
5	38932	393.371699832046	4.4127949443103
5	39338	397.784494776356	0.26931192638106
5	39374	398.053806702737	0.56738723770957
5	39445	398.621193940447	0.24705398438113
5	39461	398.868247924828	1.2232060425496

