version 2
run Non-monitoring-4-20210209-17:43:10-31100
attr configname Non-monitoring
attr datetime 20210209-17:43:10
attr experiment Non-monitoring
attr inifile aerocom.ini
attr iterationvars ""
attr iterationvarsf ""
attr measurement ""
attr network Aerocom
attr processid 31100
attr repetition 4
attr replication #4
attr resultdir results
attr runnumber 4
attr seedset 4
param **.t 1s
param **.k 50ms
param **.nA 1
param **.nDL 1
param **.s "70 byte"
param **.X 0s
param **.dimPoolMax 9000
param **.dimPoolMin 9000
param **.tDistribution "\"exponential\""
param **.m 1s
param **.DLMaxCapacity 0
param **.trasmitting false
param **.operationMode 1

vector 0 Aerocom.aircraft[0].packetGenerator arrivalTime:vector ETV
attr "" ""
attr source computeArrivalTime
vector 1 Aerocom.aircraft[0].dataLink[0] queueLength:vector ETV
attr "" ""
attr source computeQueueLength
vector 2 Aerocom.aircraft[0].dataLink[0] waitingTime:vector ETV
attr "" ""
attr source computeWaitingTime
vector 3 Aerocom.aircraft[0].dataLink[0] serviceTime:vector ETV
attr "" ""
attr source computeServiceTime
vector 4 Aerocom.aircraft[0].dataLink[0] responseTime:vector ETV
attr "" ""
attr source computeResponseTime
vector 5 Aerocom.aircraft[0].dataLink[0] tDistribution:vector ETV
attr "" ""
attr source computeTDistribution
0	1014	10.009187607679	0.104070697685
0	1019	10.113258305364	0.04528508648
0	1024	10.158543391844	0.037285723528
0	1029	10.195829115372	0.047184003255
0	1034	10.243013118627	0.013470613309
0	1039	10.256483731936	0.045766958189
0	1044	10.302250690125	0.007072109281
0	1048	10.309322799406	0.01871896561
0	1054	10.328041765016	0.039599825327
0	1059	10.367641590343	0.003621743199
0	1063	10.371263333542	0.103459760062
0	1069	10.474723093604	0.080655791137
0	1074	10.555378884741	0.052238597315
0	1079	10.607617482056	0.121200391887
0	1084	10.728817873943	0.028170214788
0	1089	10.756988088731	0.010825444682
0	1094	10.767813533413	0.026325071252
0	1099	10.794138604665	0.011824589302
0	1104	10.805963193967	0.077154101159
0	1109	10.883117295126	0.023695826164
0	1114	10.90681312129	0.015257569984
0	1119	10.922070691274	0.025779113508
0	1124	10.947849804782	0.016460961103
0	1129	10.964310765885	0.108218478089
0	1134	11.072529243974	0.001165887308
0	1138	11.073695131282	0.011292005715
0	1143	11.084987136997	0.055807714054
0	1149	11.140794851051	0.027151502223
0	1154	11.167946353274	0.007726426722
0	1158	11.175672779996	0.052200406441
0	1164	11.227873186437	0.004297170128
0	1168	11.232170356565	0.035835424101
0	1174	11.268005780666	0.055604965818
0	1179	11.323610746484	0.02031070569
0	1184	11.343921452174	0.067039850633
0	1189	11.410961302807	0.075360637425
0	1194	11.486321940232	0.045934619787
0	1199	11.532256560019	0.007276447599
0	1203	11.539533007618	0.002724868178
0	1208	11.542257875796	0.010641766554
0	1213	11.55289964235	0.016792251078
0	1219	11.569691893428	0.025757510021
0	1224	11.595449403449	0.068926702273
0	1229	11.664376105722	0.077286658576
0	1234	11.741662764298	0.026800724747
0	1239	11.768463489045	0.014638630185
0	1244	11.78310211923	0.007353002958
0	1248	11.790455122188	0.005797790292
0	1253	11.79625291248	0.034681284747
0	1259	11.830934197227	0.133448218018
0	1264	11.964382415245	0.008387340842
0	1269	11.972769756087	0.006755906253
0	1273	11.97952566234	0.003969356752
0	1278	11.983495019092	0.046444157723
0	1284	12.029939176815	0.127777573353
0	1289	12.157716750168	0.017133103211
0	1294	12.174849853379	0.009423716888
0	1299	12.184273570267	0.049245798466
0	1304	12.233519368733	0.035572579422
0	1310	12.269091948155	0.053863476847
0	1315	12.322955425002	0.01085479723
0	1320	12.333810222232	0.003506434494
0	1324	12.337316656726	0.038778804402
0	1330	12.376095461128	0.021959595149
0	1335	12.398055056277	0.080589062102
0	1340	12.478644118379	0.020377670463
0	1345	12.499021788842	0.010279205981
0	1351	12.509300994823	0.009770727152
0	1356	12.519071721975	0.018797541999
0	1361	12.537869263974	0.000401777078
0	1365	12.538271041052	0.004277339175
0	1368	12.542548380227	0.000524663327
0	1371	12.543073043554	0.047479957534
0	1381	12.590553001088	0.045497892174
0	1386	12.636050893262	0.020192744391
0	1391	12.656243637653	0.004421811283
0	1395	12.660665448936	0.116623096836
0	1401	12.777288545772	0.018965622346
0	1406	12.796254168118	0.041314639262
0	1411	12.83756880738	0.173076565852
0	1416	13.010645373232	0.026679601807
0	1421	13.037324975039	0.103408290173
0	1426	13.140733265212	0.014216084055
0	1431	13.154949349267	0.121968367484
0	1437	13.276917716751	0.095653422591
0	1442	13.372571139342	0.009310350505
0	1447	13.381881489847	0.042598805304
0	1452	13.424480295151	0.019048959775
0	1457	13.443529254926	0.051491630116
0	1462	13.495020885042	0.013839100471
0	1467	13.508859985513	0.122003912706
0	1473	13.630863898219	0.033760940076
0	1478	13.664624838295	0.045841764073
0	1483	13.710466602368	0.039256919049
0	1488	13.749723521417	0.044929830383
0	1493	13.7946533518	0.025997892213
0	1498	13.820651244013	0.051386628221
0	1503	13.872037872234	0.067819365367
0	1508	13.939857237601	0.032538659593
0	1513	13.972395897194	0.051603742888
0	1519	14.023999640082	0.084260279716
0	1524	14.108259919798	0.053844009712
0	1529	14.16210392951	0.035142735898
0	1534	14.197246665408	0.008080302044
0	1539	14.205326967452	2.1116121e-005
0	1543	14.205348083573	0.068636103407
0	1549	14.27398418698	0.001489885255
0	1553	14.275474072235	0.051284022438
0	1559	14.326758094673	0.123015082975
0	1565	14.449773177648	0.017707551792
0	1570	14.46748072944	0.008870992586
0	1575	14.476351722026	0.02356645695
0	1580	14.499918178976	0.012990360567
0	1585	14.512908539543	0.223829446277
0	1590	14.73673798582	0.11578281261
0	1595	14.85252079843	0.021125090818
0	1600	14.873645889248	0.167145902488
0	1605	15.040791791736	0.021037440487
0	1610	15.061829232223	0.057029979247
0	1615	15.11885921147	0.047551026387
0	1620	15.166410237857	0.027719550208
0	1625	15.194129788065	0.048168161775
0	1631	15.24229794984	0.123627683355
0	1636	15.365925633195	0.000672168954
0	1640	15.366597802149	0.219236835606
0	1646	15.585834637755	0.042716620094
0	1651	15.628551257849	0.047129084906
0	1656	15.675680342755	0.075181752264
0	1661	15.750862095019	0.009341285813
0	1666	15.760203380832	0.149668833984
0	1671	15.909872214816	0.015146525369
0	1676	15.925018740185	0.060698156716
0	1681	15.985716896901	0.005156275096
0	1685	15.990873171997	0.006176548761
0	1691	15.997049720758	0.037110636898
0	1697	16.034160357656	0.014158047597
0	1702	16.048318405253	0.006115330637
0	1706	16.05443373589	0.027144949124
0	1712	16.081578685014	0.113763098817
0	1717	16.195341783831	0.049987903457
0	1722	16.245329687288	0.01269672684
0	1728	16.258026414128	0.005017004379
0	1732	16.263043418507	0.035835035541
0	1738	16.298878454048	0.024740167765
0	1743	16.323618621813	0.018282107174
0	1748	16.341900728987	0.019428009261
0	1753	16.361328738248	0.004606601787
0	1757	16.365935340035	0.177586997296
0	1763	16.543522337331	0.005262011319
0	1767	16.54878434865	0.173983438659
0	1773	16.722767787309	0.000456133121
0	1777	16.72322392043	0.068015341733
0	1783	16.791239262163	0.052434662316
0	1788	16.843673924479	0.036458337616
0	1793	16.880132262095	0.228212232805
0	1798	17.1083444949	0.00898504746
0	1803	17.11732954236	0.000594518348
0	1807	17.117924060708	0.149171975246
0	1813	17.267096035954	0.024074933542
0	1818	17.291170969496	0.127440878503
0	1824	17.418611847999	0.014324268405
0	1829	17.432936116404	0.107095942828
0	1834	17.540032059232	0.011086990937
0	1839	17.551119050169	0.002619357757
0	1843	17.553738407926	0.137183139093
0	1849	17.690921547019	0.074569460525
0	1854	17.765491007544	0.002642613636
0	1858	17.76813362118	0.005596611348
0	1863	17.773730232528	0.072300179849
0	1869	17.846030412377	0.117902707124
0	1874	17.963933119501	0.008695241081
0	1879	17.972628360582	0.044322822715
0	1884	18.016951183297	0.017826465686
0	1889	18.034777648983	0.221517832628
0	1894	18.256295481611	0.020615614631
0	1899	18.276911096242	0.02798865895
0	1904	18.304899755192	0.021770402865
0	1909	18.326670158057	0.04969234526
0	1914	18.376362503317	0.008460587018
0	1919	18.384823090335	0.074868297343
0	1924	18.459691387678	0.182290423486
0	1929	18.641981811164	0.015042923924
0	1934	18.657024735088	0.116568231538
0	1939	18.773592966626	0.050931827102
0	1944	18.824524793728	0.039468965034
0	1949	18.863993758762	0.087665408609
0	1954	18.951659167371	0.00971094204
0	1959	18.961370109411	0.036834608757
0	1964	18.998204718168	0.02280275859
0	1969	19.021007476758	0.02762451082
0	1975	19.048631987578	0.120347093584
0	1980	19.168979081162	0.037857949277
0	1985	19.206837030439	0.01749127089
0	1990	19.224328301329	0.145918310531
0	1995	19.37024661186	0.022508544047
0	2000	19.392755155907	0.361374833768
0	2005	19.754129989675	0.043762224414
0	2010	19.797892214089	0.055573264725
0	2016	19.853465478814	0.070697624415
0	2021	19.924163103229	0.077931570684
0	2026	20.002094673913	0.010959558228
0	2031	20.013054232141	0.199736433139
0	2036	20.21279066528	0.027587214132
0	2042	20.240377879412	0.007631832191
0	2046	20.248009711603	0.030662470704
0	2052	20.278672182307	0.00133193507
0	2056	20.280004117377	0.004446765559
0	2059	20.284450882936	0.068608283969
0	2067	20.353059166905	0.034016637877
0	2072	20.387075804782	0.047932267697
0	2077	20.435008072479	0.026348400641
0	2082	20.46135647312	0.005223861984
0	2086	20.466580335104	0.02106126423
0	2092	20.487641599334	0.03689704795
0	2098	20.524538647284	0.019545508525
0	2103	20.544084155809	0.035406135574
0	2108	20.579490291383	0.055222080752
0	2113	20.634712372135	0.016822123684
0	2118	20.651534495819	0.093144814558
0	2123	20.744679310377	0.014280111321
0	2128	20.758959421698	0.04316323671
0	2133	20.802122658408	0.009943843205
0	2138	20.812066501613	0.011957047441
0	2143	20.824023549054	0.043832239292
0	2148	20.867855788346	0.046240268275
0	2153	20.914096056621	0.008356985611
0	2158	20.922453042232	0.074709711495
0	2163	20.997162753727	0.062192468096
0	2168	21.059355221823	0.07496685691
0	2173	21.134322078733	0.097862046219
0	2178	21.232184124952	0.074428979839
0	2184	21.306613104791	0.057988446174
0	2189	21.364601550965	0.010767321902
0	2194	21.375368872867	0.015403056707
0	2199	21.390771929574	0.063702087247
0	2204	21.454474016821	0.025294616132
0	2209	21.479768632953	0.09739470622
0	2214	21.577163339173	0.035976202867
0	2219	21.61313954204	0.02014178049
0	2224	21.63328132253	0.021095292349
0	2229	21.654376614879	0.03312408627
0	2234	21.687500701149	0.039439126091
0	2239	21.72693982724	0.063860412947
0	2244	21.790800240187	0.057936706817
0	2249	21.848736947004	0.017245713447
0	2254	21.865982660451	0.017811816204
0	2259	21.883794476655	0.031158531231
0	2264	21.914953007886	0.012126374653
0	2269	21.927079382539	0.07402103861
0	2274	22.001100421149	0.077631329805
0	2279	22.078731750954	0.068736204295
0	2284	22.147467955249	0.07477175439
0	2289	22.222239709639	0.07954449092
0	2294	22.301784200559	0.002131074095
0	2298	22.303915274654	0.017202568852
0	2304	22.321117843506	0.051850282495
0	2309	22.372968126001	0.070832259592
0	2314	22.443800385593	0.00685936632
0	2318	22.450659751913	0.165711541581
0	2324	22.616371293494	0.039665229691
0	2329	22.656036523185	0.05672697503
0	2334	22.712763498215	0.017231915452
0	2339	22.729995413667	0.055265283535
0	2344	22.785260697202	0.087390512304
0	2349	22.872651209506	0.009673047776
0	2354	22.882324257282	0.005121151569
0	2358	22.887445408851	0.009789383016
0	2363	22.897234791867	0.113900432612
0	2369	23.011135224479	0.045253030012
0	2374	23.056388254491	0.020926692588
0	2379	23.077314947079	0.009602711363
0	2384	23.086917658442	0.007083092323
0	2388	23.094000750765	0.039357319049
0	2394	23.133358069814	0.030586004878
0	2399	23.163944074692	0.061510763417
0	2404	23.225454838109	0.00441084917
0	2408	23.229865687279	0.070450639729
0	2414	23.300316327008	0.067397276277
0	2419	23.367713603285	0.039975382091
0	2424	23.407688985376	0.022607228427
0	2429	23.430296213803	0.048972422377
0	2434	23.47926863618	0.020290345843
0	2439	23.499558982023	0.020904889008
0	2444	23.520463871031	0.005626231559
0	2448	23.52609010259	0.039302160664
0	2454	23.565392263254	0.010298691107
0	2459	23.575690954361	0.011392170032
0	2464	23.587083124393	0.036620270006
0	2469	23.623703394399	0.092331729718
0	2474	23.716035124117	0.005974227483
0	2478	23.7220093516	0.02684241192
0	2484	23.74885176352	0.033075215771
0	2489	23.781926979291	0.007479568034
0	2493	23.789406547325	0.134037594004
0	2499	23.923444141329	0.048370384196
0	2504	23.971814525525	0.025445971468
0	2509	23.997260496993	0.293185798713
0	2514	24.290446295706	0.009946454132
0	2519	24.300392749838	0.018807740492
0	2524	24.31920049033	0.081864110045
0	2529	24.401064600375	0.04211526523
0	2534	24.443179865605	0.054048756097
0	2539	24.497228621702	0.036435869407
0	2544	24.533664491109	0.04752277772
0	2549	24.581187268829	0.021449532011
0	2554	24.60263680084	0.006612733644
0	2558	24.609249534484	0.023404961418
0	2564	24.632654495902	0.021657866954
0	2569	24.654312362856	0.061032518742
0	2576	24.715344881598	0.032037206579
0	2581	24.747382088177	0.033599445769
0	2586	24.780981533946	0.023771741769
0	2591	24.804753275715	0.022194521425
0	2596	24.82694779714	0.012546532501
0	2602	24.839494329641	0.015725697337
0	2607	24.855220026978	0.012866068585
0	2612	24.868086095563	0.218255709233
0	2617	25.086341804796	0.007705842699
0	2621	25.094047647495	0.005826902682
0	2626	25.099874550177	0.065360319731
0	2632	25.165234869908	0.035602493025
0	2637	25.200837362933	0.006563075906
0	2641	25.207400438839	0.065956165448
0	2647	25.273356604287	0.019266801704
0	2652	25.292623405991	0.007799358457
0	2657	25.300422764448	0.024851036288
0	2662	25.325273800736	0.028403632859
0	2667	25.353677433595	0.001933986572
0	2671	25.355611420167	0.015899470563
0	2677	25.37151089073	0.008421600343
0	2682	25.379932491073	0.067890992791
0	2687	25.447823483864	0.009355590657
0	2692	25.457179074521	0.115074519546
0	2697	25.572253594067	0.073551716671
0	2702	25.645805310738	0.004232987479
0	2706	25.650038298217	0.013669142152
0	2712	25.663707440369	0.063580042188
0	2717	25.727287482557	0.068751915253
0	2722	25.79603939781	0.038620568171
0	2727	25.834659965981	0.02134676127
0	2732	25.856006727251	0.156341006197
0	2738	26.012347733448	0.054119239752
0	2743	26.0664669732	0.000152377162
0	2747	26.066619350362	0.053145947415
0	2753	26.119765297777	0.062034470925
0	2758	26.181799768702	0.013261855593
0	2763	26.195061624295	0.066149490966
0	2769	26.261211115261	0.027320461832
0	2774	26.288531577093	0.009668485972
0	2779	26.298200063065	0.056434533885
0	2784	26.35463459695	0.039952820309
0	2789	26.394587417259	0.046487201017
0	2795	26.441074618276	0.188131814495
0	2800	26.629206432771	0.046911546415
0	2805	26.676117979186	0.0548173646
0	2810	26.730935343786	0.002014202001
0	2814	26.732949545787	0.008979995203
0	2819	26.74192954099	0.117923898277
0	2826	26.859853439267	0.060099690243
0	2831	26.91995312951	0.109936656375
0	2836	27.029889785885	0.03548734888
0	2841	27.065377134765	0.009842201952
0	2846	27.075219336717	0.080932258245
0	2851	27.156151594962	0.024543268788
0	2856	27.18069486375	0.014111119516
0	2861	27.194805983266	0.11910013999
0	2866	27.313906123256	0.004216174437
0	2870	27.318122297693	0.030086004125
0	2876	27.348208301818	0.027356696903
0	2881	27.375564998721	0.028395655497
0	2886	27.403960654218	0.023753465078
0	2891	27.427714119296	0.06182691267
0	2896	27.489541031966	0.040523788517
0	2901	27.530064820483	0.008771397146
0	2906	27.538836217629	0.023319543389
0	2911	27.562155761018	0.099663861127
0	2916	27.661819622145	0.048379729826
0	2921	27.710199351971	0.000697978266
0	2925	27.710897330237	0.010300203913
0	2930	27.72119753415	0.003849085674
0	2933	27.725046619824	0.013089481257
0	2940	27.738136101081	0.023573494396
0	2946	27.761709595477	0.149389036213
0	2951	27.91109863169	0.014341690033
0	2956	27.925440321723	0.033646035549
0	2961	27.959086357272	0.035935901345
0	2966	27.995022258617	0.055367111911
0	2971	28.050389370528	0.007743895638
0	2975	28.058133266166	0.005082233793
0	2980	28.063215499959	0.051313023246
0	2986	28.114528523205	0.039701610901
0	2991	28.154230134106	0.038729305357
0	2996	28.192959439463	0.102838357279
0	3001	28.295797796742	0.088572605812
0	3006	28.384370402554	0.005649524274
0	3010	28.390019926828	0.015675635452
0	3016	28.40569556228	0.0591591431
0	3021	28.46485470538	0.009380117048
0	3026	28.474234822428	0.019205459328
0	3031	28.493440281756	0.037373068905
0	3036	28.530813350661	0.04395804472
0	3041	28.574771395381	0.013844058126
0	3046	28.588615453507	0.031237375228
0	3051	28.619852828735	0.03045998502
0	3056	28.650312813755	0.0497412123
0	3061	28.700054026055	0.006192180978
0	3065	28.706246207033	0.12375993836
0	3071	28.830006145393	0.045790370609
0	3076	28.875796516002	0.097858404489
0	3081	28.973654920491	0.090588383987
0	3086	29.064243304478	0.030803955405
0	3091	29.095047259883	0.121709867975
0	3096	29.216757127858	0.018970438577
0	3101	29.235727566435	0.150417646832
0	3106	29.386145213267	0.076742813286
0	3111	29.462888026553	0.043557428514
0	3117	29.506445455067	0.062050667965
0	3122	29.568496123032	0.036148402523
0	3127	29.604644525555	0.032596544512
0	3132	29.637241070067	0.074965586347
0	3137	29.712206656414	0.015379621651
0	3142	29.727586278065	0.055751922335
0	3147	29.7833382004	0.005357616543
0	3151	29.788695816943	0.008943627877
0	3156	29.79763944482	0.04367895228
0	3162	29.8413183971	0.027892224313
0	3167	29.869210621413	0.001079790175
0	3171	29.870290411588	0.008385008247
0	3176	29.878675419835	0.007201913447
0	3181	29.885877333282	0.041816431454
0	3188	29.927693764736	0.092946532023
0	3193	30.020640296759	0.035576056937
0	3198	30.056216353696	0.000760562325
0	3202	30.056976916021	0.030236536988
0	3208	30.087213453009	0.029423002996
0	3213	30.116636456005	0.23558920017
0	3218	30.352225656175	0.021196341964
0	3223	30.373421998139	0.115202584111
0	3229	30.48862458225	0.006475358597
0	3233	30.495099940847	0.008209886404
0	3238	30.503309827251	0.002500171745
0	3243	30.505809998996	0.046783203107
0	3249	30.552593202103	0.040423375836
0	3254	30.593016577939	0.032523958326
0	3259	30.625540536265	0.030999517425
0	3264	30.65654005369	0.088194895473
0	3269	30.744734949163	0.042083138314
0	3274	30.786818087477	0.132554283258
0	3279	30.919372370735	0.023272555394
0	3284	30.942644926129	0.088235950163
0	3289	31.030880876292	0.099173909338
0	3294	31.13005478563	0.001356589662
0	3298	31.131411375292	0.106248628059
0	3304	31.237660003351	0.11048699559
0	3309	31.348146998941	0.0376674792
0	3314	31.385814478141	0.008974188194
0	3319	31.394788666335	0.057974628103
0	3324	31.452763294438	0.020321198906
0	3329	31.473084493344	0.121834481491
0	3334	31.594918974835	0.023684614111
0	3339	31.618603588946	0.025099614117
0	3344	31.643703203063	0.085264668544
0	3349	31.728967871607	0.093007460023
0	3354	31.82197533163	0.011035643524
0	3359	31.833010975154	0.021518982571
0	3364	31.854529957725	0.009680818197
0	3369	31.864210775922	0.004949347001
0	3373	31.869160122923	0.244218102127
0	3379	32.11337822505	0.012273171142
0	3384	32.125651396192	0.002286426778
0	3388	32.12793782297	0.120573567686
0	3394	32.248511390656	0.018614735614
0	3399	32.26712612627	0.011283396155
0	3404	32.278409522425	0.02651601822
0	3409	32.304925540645	0.082070694541
0	3414	32.386996235186	0.012761599767
0	3419	32.399757834953	0.00614232173
0	3423	32.405900156683	0.015776847313
0	3429	32.421677003996	0.096245201428
0	3434	32.517922205424	0.00567062714
0	3438	32.523592832564	0.057009818121
0	3444	32.580602650685	0.083305880762
0	3449	32.663908531447	0.007043024136
0	3453	32.670951555583	0.01411682532
0	3459	32.685068380903	0.035171469015
0	3464	32.720239849918	0.050235843822
0	3469	32.77047569374	0.00951754767
0	3474	32.77999324141	0.022348576927
0	3479	32.802341818337	0.060437428505
0	3484	32.862779246842	0.000243727351
0	3488	32.863022974193	0.117737602784
0	3494	32.980760576977	0.01419917287
0	3499	32.994959749847	0.013446200087
0	3504	33.008405949934	0.088570555377
0	3509	33.096976505311	0.010570636946
0	3514	33.107547142257	0.026480066289
0	3519	33.134027208546	0.017987601303
0	3524	33.152014809849	0.004710841318
0	3528	33.156725651167	0.009707906317
0	3533	33.166433557484	0.183921711801
0	3539	33.350355269285	0.049199647629
0	3544	33.399554916914	0.052829715892
0	3549	33.452384632806	0.121129184294
0	3554	33.5735138171	0.053378301119
0	3559	33.626892118219	0.000462850758
0	3563	33.627354968977	0.131219658743
0	3569	33.75857462772	0.04050415192
0	3574	33.79907877964	0.135170016022
0	3579	33.934248795662	0.003285873675
0	3583	33.937534669337	0.105291979751
0	3589	34.042826649088	0.162744769843
0	3594	34.205571418931	0.02566855247
0	3599	34.231239971401	0.008171984238
0	3604	34.239411955639	0.01635231632
0	3609	34.255764271959	0.067277701832
0	3614	34.323041973791	0.032785344636
0	3619	34.355827318427	0.024799796403
0	3624	34.38062711483	0.070697839601
0	3629	34.451324954431	0.033535885407
0	3634	34.484860839838	0.035553601934
0	3639	34.520414441772	0.065189607193
0	3644	34.585604048965	0.023522041308
0	3649	34.609126090273	0.071136780242
0	3654	34.680262870515	0.045534281463
0	3659	34.725797151978	0.015031558049
0	3664	34.740828710027	0.05138391131
0	3669	34.792212621337	0.06710376047
0	3674	34.859316381807	0.192054567271
0	3679	35.051370949078	0.055079467441
0	3684	35.106450416519	0.048582006081
0	3690	35.1550324226	0.028043668031
0	3695	35.183076090631	0.024994320223
0	3700	35.208070410854	0.006578390174
0	3704	35.214648801028	0.136544226834
0	3710	35.351193027862	0.017673750604
0	3715	35.368866778466	0.065804982298
0	3720	35.434671760764	0.102658796759
0	3725	35.537330557523	0.028155938466
0	3730	35.565486495989	0.064315318202
0	3735	35.629801814191	0.030764616241
0	3740	35.660566430432	0.066422580949
0	3745	35.726989011381	0.335873580227
0	3750	36.062862591608	0.027873600936
0	3755	36.090736192544	0.165656826691
0	3760	36.256393019235	0.205872043181
0	3765	36.462265062416	0.000327047309
0	3769	36.462592109725	0.01736580033
0	3775	36.479957910055	0.093525580674
0	3781	36.573483490729	0.225845369083
0	3787	36.799328859812	0.022508570818
0	3792	36.82183743063	0.013447515174
0	3797	36.835284945804	0.025315675545
0	3802	36.860600621349	0.086866394631
0	3807	36.94746701598	0.017439565285
0	3812	36.964906581265	0.055554752934
0	3817	37.020461334199	0.047699131727
0	3822	37.068160465926	0.055620441708
0	3827	37.123780907634	0.009717819218
0	3832	37.133498726852	0.00847832884
0	3837	37.141977055692	0.011683807013
0	3842	37.153660862705	0.039171439148
0	3847	37.192832301853	0.012185698307
0	3852	37.20501800016	0.004508422152
0	3856	37.209526422312	0.041211429858
0	3862	37.25073785217	0.0803484824
0	3867	37.33108633457	0.005439838795
0	3871	37.336526173365	0.098435436058
0	3877	37.434961609423	0.018649361791
0	3882	37.453610971214	0.016939494576
0	3887	37.47055046579	0.082222583296
0	3892	37.552773049086	0.00804208439
0	3897	37.560815133476	0.033280011969
0	3902	37.594095145445	0.011669872996
0	3907	37.605765018441	0.155877278091
0	3912	37.761642296532	0.006414372157
0	3916	37.768056668689	0.062685648012
0	3922	37.830742316701	0.011889578876
0	3927	37.842631895577	0.006122243988
0	3931	37.848754139565	0.145687640549
0	3937	37.994441780114	0.029697844345
0	3942	38.024139624459	0.045862675213
0	3947	38.070002299672	0.037408632519
0	3952	38.107410932191	0.072637179099
0	3957	38.18004811129	0.113330435014
0	3963	38.293378546304	0.01620453788
0	3968	38.309583084184	0.126444905871
0	3973	38.436027990055	0.014728243764
0	3978	38.450756233819	0.00273778771
0	3982	38.453494021529	0.008666251508
0	3987	38.462160273037	0.120231260909
0	3993	38.582391533946	0.076042994888
0	3998	38.658434528834	0.05840993039
0	4003	38.716844459224	0.009632689931
0	4008	38.726477149155	0.042717561236
0	4013	38.769194710391	0.04452972643
0	4018	38.813724436821	0.125251354264
0	4023	38.938975791085	0.005256544804
0	4027	38.944232335889	0.025962267439
0	4033	38.970194603328	0.019480399937
0	4038	38.989675003265	0.055805820057
0	4043	39.045480823322	0.067058913419
0	4048	39.112539736741	0.087287400941
0	4053	39.199827137682	0.016693940817
0	4058	39.216521078499	0.084643248083
0	4063	39.301164326582	0.095753522982
0	4068	39.396917849564	0.041090243684
0	4073	39.438008093248	0.090070249222
0	4078	39.52807834247	0.041013771836
0	4083	39.569092114306	0.035953874453
0	4088	39.605045988759	0.097600860384
0	4093	39.702646849143	0.165080394297
0	4098	39.86772724344	0.011504293454
0	4103	39.879231536894	0.026519446143
0	4108	39.905750983037	0.062893459715
0	4113	39.968644442752	0.054434336138
0	4118	40.02307877889	0.084606080764
0	4123	40.107684859654	0.078172771201
0	4128	40.185857630855	0.006350578731
0	4132	40.192208209586	0.179561166138
0	4138	40.371769375724	0.094415335474
0	4143	40.466184711198	0.024410843373
0	4148	40.490595554571	0.006689272529
0	4152	40.4972848271	0.019161905853
0	4158	40.516446732953	0.002760540111
0	4162	40.519207273064	0.023574997671
0	4168	40.542782270735	0.031803444676
0	4173	40.574585715411	0.05130408603
0	4178	40.625889801441	0.13964009718
0	4183	40.765529898621	0.085698128525
0	4188	40.851228027146	0.147383606686
0	4193	40.998611633832	0.026448959406
0	4198	41.025060593238	0.044187910625
0	4203	41.069248503863	0.002865262493
0	4207	41.072113766356	0.083868599939
0	4213	41.155982366295	0.063983548165
0	4218	41.21996591446	0.014467811574
0	4223	41.234433726034	0.069007269969
0	4228	41.303440996003	0.051239972117
0	4233	41.35468096812	0.00430977299
0	4237	41.35899074111	0.009062927203
0	4242	41.368053668313	0.167908930883
0	4248	41.535962599196	0.014606108954
0	4253	41.55056870815	0.059958304766
0	4258	41.610527012916	0.133940715284
0	4263	41.7444677282	0.016084703284
0	4268	41.760552431484	0.113812548411
0	4273	41.874364979895	0.001064118367
0	4277	41.875429098262	0.067915738957
0	4284	41.943344837219	0.012620312067
0	4289	41.955965149286	0.032075516797
0	4294	41.988040666083	0.05055390172
0	4299	42.038594567803	0.106242995546
0	4304	42.144837563349	0.115648138976
0	4309	42.260485702325	0.00935859302
0	4314	42.269844295345	0.0468017049
0	4319	42.316646000245	0.035450387715
0	4324	42.35209638796	0.018665405842
0	4329	42.370761793802	0.045712222941
0	4334	42.416474016743	0.007513704893
0	4338	42.423987721636	0.001897761979
0	4343	42.425885483615	0.014481813466
0	4349	42.440367297081	0.084515663043
0	4354	42.524882960124	0.004035319262
0	4358	42.528918279386	0.016535761221
0	4364	42.545454040607	0.011913178938
0	4369	42.557367219545	0.129714489789
0	4374	42.687081709334	0.028049078263
0	4379	42.715130787597	0.135183916554
0	4384	42.850314704151	0.038914647384
0	4389	42.889229351535	0.077515427007
0	4394	42.966744778542	0.038142704204
0	4399	43.004887482746	0.087697269839
0	4404	43.092584752585	0.016827832477
0	4409	43.109412585062	0.018053009349
0	4414	43.127465594411	0.088640634222
0	4419	43.216106228633	0.008631448245
0	4424	43.224737676878	0.023674750087
0	4429	43.248412426965	0.022820794825
0	4434	43.27123322179	0.029311709784
0	4439	43.300544931574	0.024982374044
0	4444	43.325527305618	0.071028323409
0	4449	43.396555629027	0.137313720886
0	4454	43.533869349913	0.027319028237
0	4459	43.56118837815	0.088562648049
0	4464	43.649751026199	0.010542513921
0	4469	43.66029354012	0.091782429081
0	4474	43.752075969201	0.038386222587
0	4479	43.790462191788	0.059109773279
0	4484	43.849571965067	0.002789946698
0	4488	43.852361911765	0.079954006099
0	4494	43.932315917864	0.011533750467
0	4499	43.943849668331	0.031234199219
0	4504	43.97508386755	0.014381999778
0	4510	43.989465867328	0.115085374926
0	4515	44.104551242254	0.177697109843
0	4522	44.282248352097	0.175915198855
0	4528	44.458163550952	0.080960967171
0	4533	44.539124518123	0.026482572611
0	4538	44.565607090734	0.027915423841
0	4543	44.593522514575	0.118005325601
0	4548	44.711527840176	0.007136083976
0	4552	44.718663924152	0.062340919172
0	4559	44.781004843324	0.057267527921
0	4564	44.838272371245	0.051360698071
0	4569	44.889633069316	0.03214667372
0	4574	44.921779743036	0.037307475026
0	4579	44.959087218062	0.025077177195
0	4584	44.984164395257	0.14431178747
0	4589	45.128476182727	0.080166570336
0	4594	45.208642753063	0.022512603141
0	4599	45.231155356204	0.005041451285
0	4603	45.236196807489	0.007534780514
0	4608	45.243731588003	0.079160198962
0	4614	45.322891786965	0.003108894963
0	4618	45.326000681928	0.029190685757
0	4624	45.355191367685	0.082541551377
0	4629	45.437732919062	0.00264869531
0	4633	45.440381614372	0.038591685953
0	4639	45.478973300325	0.080933172049
0	4644	45.559906472374	0.013675983721
0	4649	45.573582456095	0.01055118474
0	4654	45.584133640835	0.020941431972
0	4659	45.605075072807	0.011768338175
0	4664	45.616843410982	0.053596912945
0	4669	45.670440323927	0.010311234241
0	4674	45.680751558168	0.069037841729
0	4679	45.749789399897	0.021144369842
0	4684	45.770933769739	0.004461214256
0	4688	45.775394983995	0.000407464825
0	4691	45.77580244882	0.048673599879
0	4699	45.824476048699	0.006942946123
0	4703	45.831418994822	0.046330842513
0	4709	45.877749837335	0.04535655965
0	4714	45.923106396985	0.079283892987
0	4719	46.002390289972	0.011694849111
0	4724	46.014085139083	0.012699552519
0	4729	46.026784691602	0.020363639949
0	4734	46.047148331551	0.008810073199
0	4739	46.05595840475	0.119373138295
0	4744	46.175331543045	0.069428313193
0	4749	46.244759856238	0.023830463455
0	4754	46.268590319693	0.024540997729
0	4759	46.293131317422	0.100784441888
0	4765	46.39391575931	0.006479187353
0	4769	46.400394946663	0.000941052179
0	4772	46.401335998842	0.028785864762
0	4780	46.430121863604	0.108919787005
0	4785	46.539041650609	0.080031458197
0	4790	46.619073108806	0.02150285757
0	4795	46.640575966376	0.021219083397
0	4800	46.661795049773	0.011267600288
0	4805	46.673062650061	0.011086475725
0	4810	46.684149125786	0.172765536166
0	4815	46.856914661952	0.072540578741
0	4820	46.929455240693	0.020059087807
0	4825	46.9495143285	0.003396137384
0	4829	46.952910465884	0.104540556369
0	4836	47.057451022253	0.005023393867
0	4840	47.06247441612	0.09814287275
0	4846	47.16061728887	0.001394216713
0	4850	47.162011505583	0.003528401499
0	4853	47.165539907082	0.080895715099
0	4861	47.246435622181	0.054049644495
0	4866	47.300485266676	0.021803395221
0	4871	47.322288661897	0.024333683181
0	4876	47.346622345078	0.011551729807
0	4881	47.358174074885	0.024008298609
0	4886	47.382182373494	0.000127873383
0	4890	47.382310246877	0.029736259475
0	4896	47.412046506352	0.015589400494
0	4901	47.427635906846	0.022745643521
0	4906	47.450381550367	0.007679229429
0	4910	47.458060779796	0.048091361176
0	4916	47.506152140972	0.10380733602
0	4921	47.609959476992	0.02245642023
0	4926	47.632415897222	0.005927114505
0	4930	47.638343011727	0.063973182317
0	4936	47.702316194044	0.072457177982
0	4941	47.774773372026	0.018492667433
0	4946	47.793266039459	0.03637676018
0	4951	47.829642799639	0.025669807101
0	4956	47.85531260674	0.002006215243
0	4960	47.857318821983	0.006704147683
0	4965	47.864022969666	0.011104547493
0	4970	47.875127517159	0.09163479761
0	4976	47.966762314769	0.02100049903
0	4981	47.987762813799	0.06616581407
0	4986	48.053928627869	0.022684311236
0	4991	48.076612939105	0.017017292229
0	4996	48.093630231334	0.017624980487
0	5001	48.111255211821	0.036263547351
0	5006	48.147518759172	0.05137073741
0	5011	48.198889496582	0.058261316756
0	5016	48.257150813338	0.004828286595
0	5020	48.261979099933	0.082287972926
0	5026	48.344267072859	0.004324254144
0	5030	48.348591327003	0.03252651357
0	5036	48.381117840573	0.038730863305
0	5041	48.419848703878	0.078844025329
0	5046	48.498692729207	0.01852725736
0	5051	48.517219986567	0.055586317164
0	5056	48.572806303731	0.055682012548
0	5061	48.628488316279	0.15182030926
0	5066	48.780308625539	0.016554174463
0	5071	48.796862800002	0.018733446917
0	5076	48.815596246919	0.056865814037
0	5081	48.872462060956	0.077227638499
0	5086	48.949689699455	0.105991072052
0	5091	49.055680771507	0.061130626696
0	5096	49.116811398203	0.021277405375
0	5101	49.138088803578	0.025538036965
0	5106	49.163626840543	0.014863397061
0	5111	49.178490237604	0.005070121372
0	5115	49.183560358976	0.068437217562
0	5121	49.251997576538	0.00453833245
0	5125	49.256535908988	0.007368243737
0	5130	49.263904152725	0.04929376538
0	5136	49.313197918105	0.037027865926
0	5141	49.350225784031	0.011105793383
0	5146	49.361331577414	0.129541080595
0	5151	49.490872658009	0.040570724311
0	5156	49.53144338232	0.017265334287
0	5162	49.548708716607	0.158965586858
0	5167	49.707674303465	0.069485902215
0	5172	49.77716020568	0.071229275203
0	5177	49.848389480883	0.026082149777
0	5182	49.87447163066	0.027984537729
0	5187	49.902456168389	0.091183240632
0	5192	49.993639409021	0.058205444811
0	5197	50.051844853832	0.068511389068
0	5202	50.1203562429	0.033191714054
0	5207	50.153547956954	0.001358041404
0	5211	50.154905998358	0.086543583879
0	5217	50.241449582237	0.112272222026
0	5222	50.353721804263	0.020707635609
0	5227	50.374429439872	0.009229736063
0	5232	50.383659175935	0.048911701432
0	5237	50.432570877367	0.106110820517
0	5242	50.538681697884	0.006962316185
0	5246	50.545644014069	0.025180308114
0	5252	50.570824322183	0.007142616881
0	5256	50.577966939064	0.002691364317
0	5261	50.580658303381	0.188341814543
0	5268	50.769000117924	0.107104076452
0	5273	50.876104194376	0.040191583086
0	5278	50.916295777462	0.050072475255
0	5283	50.966368252717	0.030627923324
0	5288	50.996996176041	0.017109957489
0	5293	51.01410613353	0.04698041845
0	5298	51.06108655198	0.101051697032
0	5303	51.162138249012	0.057894951811
0	5308	51.220033200823	0.014993176777
0	5313	51.2350263776	0.002819977863
0	5317	51.237846355463	0.019971821073
0	5323	51.257818176536	0.168934368864
0	5328	51.4267525454	0.040379569714
0	5334	51.467132115114	0.058203708944
0	5339	51.525335824058	0.046049292004
0	5344	51.571385116062	0.063651800193
0	5349	51.635036916255	0.031790833012
0	5354	51.666827749267	0.014537101129
0	5359	51.681364850396	0.07839186445
0	5365	51.759756714846	0.044805252436
0	5370	51.804561967282	0.038954629518
0	5376	51.8435165968	0.080068865784
0	5381	51.923585462584	0.054285286886
0	5386	51.97787074947	0.081650887138
0	5391	52.059521636608	0.004096185874
0	5395	52.063617822482	0.070662649851
0	5401	52.134280472333	0.117440681269
0	5406	52.251721153602	0.004608804215
0	5410	52.256329957817	0.004216984938
0	5415	52.260546942755	0.017497181007
0	5421	52.278044123762	0.058517359089
0	5426	52.336561482851	0.138884549987
0	5431	52.475446032838	0.048081620699
0	5436	52.523527653537	0.03180062118
0	5441	52.555328274717	0.014827407653
0	5446	52.57015568237	0.064853204794
0	5451	52.635008887164	0.413113948967
0	5457	53.048122836131	0.027081160096
0	5462	53.075203996227	0.098051699488
0	5468	53.173255695715	0.013849415368
0	5473	53.187105111083	0.032290460627
0	5478	53.21939557171	0.069235157174
0	5483	53.288630728884	0.332745299251
0	5488	53.621376028135	0.023036010425
0	5493	53.64441203856	0.02582686607
0	5498	53.67023890463	0.012288666442
0	5503	53.682527571072	0.028540306509
0	5508	53.711067877581	0.013707095527
0	5513	53.724774973108	0.058309245362
0	5518	53.78308421847	0.015260264515
0	5523	53.798344482985	0.015335882624
0	5528	53.813680365609	0.032940638849
0	5533	53.846621004458	0.029091540702
0	5538	53.87571254516	0.04340021917
0	5543	53.91911276433	0.055709946395
0	5548	53.974822710725	0.12462791569
0	5553	54.099450626415	0.013909352014
0	5558	54.113359978429	0.121382246398
0	5564	54.234742224827	0.029533648215
0	5569	54.264275873042	0.002214612658
0	5573	54.2664904857	0.005059076302
0	5576	54.271549562002	0.028106285918
0	5584	54.29965584792	0.149208586783
0	5589	54.448864434703	0.018331731878
0	5594	54.467196166581	0.047557029233
0	5599	54.514753195814	0.007728119219
0	5603	54.522481315033	0.00755385448
0	5608	54.530035169513	0.111693657206
0	5615	54.641728826719	0.04061688951
0	5620	54.682345716229	0.058888740427
0	5626	54.741234456656	0.003856299491
0	5630	54.745090756147	0.035418683096
0	5636	54.780509439243	0.029799604557
0	5641	54.8103090438	0.024363811399
0	5646	54.834672855199	0.090136780758
0	5651	54.924809635957	0.003690246208
0	5655	54.928499882165	0.052016757322
0	5661	54.980516639487	0.022294729331
0	5666	55.002811368818	0.025353434857
0	5671	55.028164803675	0.008911131678
0	5676	55.037075935353	0.051706110413
0	5681	55.088782045766	0.009751920121
0	5686	55.098533965887	0.131201059356
0	5691	55.229735025243	0.006863159319
0	5695	55.236598184562	0.012860264973
0	5701	55.249458449535	0.173647004494
0	5706	55.423105454029	0.113668362963
0	5711	55.536773816992	0.054297701087
0	5716	55.591071518079	0.014718878768
0	5721	55.605790396847	0.064601751505
0	5726	55.670392148352	0.048621370046
0	5731	55.719013518398	0.032682293328
0	5736	55.751695811726	0.008001598459
0	5741	55.759697410185	0.024218673443
0	5746	55.783916083628	0.034038864086
0	5751	55.817954947714	0.017041143725
0	5756	55.834996091439	0.147606027151
0	5761	55.98260211859	0.010865613163
0	5766	55.993467731753	0.029957794204
0	5772	56.023425525957	0.134445227695
0	5777	56.157870753652	0.06517798949
0	5782	56.223048743142	0.091294329463
0	5787	56.314343072605	0.032472235551
0	5792	56.346815308156	0.00851075557
0	5797	56.355326063726	0.00292121679
0	5801	56.358247280516	0.037202021019
0	5808	56.395449301535	0.032735401506
0	5813	56.428184703041	0.046839919406
0	5818	56.475024622447	0.015333221429
0	5823	56.490357843876	0.064534420767
0	5828	56.554892264643	0.178204884758
0	5834	56.733097149401	0.030029949465
0	5839	56.763127098866	0.077496462065
0	5844	56.840623560931	0.008216063707
0	5849	56.848839624638	0.107814671944
0	5854	56.956654296582	0.022372623078
0	5859	56.97902691966	0.043231310186
0	5864	57.022258229846	0.13869223382
0	5869	57.160950463666	0.19321950191
0	5874	57.354169965576	0.001229825043
0	5878	57.355399790619	0.113658616853
0	5884	57.469058407472	0.017752940023
0	5889	57.486811347495	0.030993259409
0	5894	57.517804606904	0.059480303587
0	5899	57.577284910491	0.04520129181
0	5904	57.622486202301	0.064865903553
0	5909	57.687352105854	0.017584609038
0	5914	57.704936714892	0.029462933019
0	5919	57.734399647911	0.027191887302
0	5924	57.761591535213	0.017289380859
0	5929	57.778880916072	0.002415553631
0	5933	57.781296469703	0.033924090718
0	5939	57.815220560421	0.064715832176
0	5944	57.879936392597	0.18250934912
0	5949	58.062445741717	0.021020012371
0	5954	58.083465754088	0.022039257643
0	5959	58.105505011731	0.028905090516
0	5964	58.134410102247	0.078456639809
0	5969	58.212866742056	0.025359551101
0	5974	58.238226293157	0.007421694022
0	5978	58.245647987179	0.099187788809
0	5984	58.344835775988	0.055223444294
0	5989	58.400059220282	0.016259803974
0	5994	58.416319024256	0.050842330393
0	5999	58.467161354649	0.047259231142
0	6004	58.514420585791	0.022810836748
0	6009	58.537231422539	0.012367465114
0	6014	58.549598887653	0.079474562513
0	6019	58.629073450166	0.018294047348
0	6024	58.647367497514	0.02507894129
0	6029	58.672446438804	0.066289739051
0	6034	58.738736177855	0.075915614512
0	6040	58.814651792367	0.037101761391
0	6045	58.851753553758	0.012668977322
0	6050	58.86442253108	0.027149838931
0	6055	58.891572370011	0.05085915764
0	6060	58.942431527651	0.015292559857
0	6065	58.957724087508	0.12083129372
0	6070	59.078555381228	0.00334769484
0	6074	59.081903076068	0.069736584729
0	6080	59.151639660797	0.001632333581
0	6084	59.153271994378	0.067991204027
0	6090	59.221263198405	0.086935113164
0	6095	59.308198311569	0.004801431077
0	6099	59.312999742646	0.058077462033
0	6105	59.371077204679	0.099576446007
0	6110	59.470653650686	0.072423048051
0	6115	59.543076698737	0.003357776946
0	6119	59.546434475683	0.048113793633
0	6125	59.594548269316	0.00677477711
0	6129	59.601323046426	0.00292426285
0	6134	59.604247309276	0.031924297156
0	6140	59.636171606432	0.056483048957
0	6145	59.692654655389	0.007623040615
0	6149	59.700277696004	0.008170894325
0	6155	59.708448590329	0.062307681488
0	6160	59.770756271817	0.167668461323
0	6165	59.93842473314	0.032821444295
0	6170	59.971246177435	0.152181506847
0	6175	60.123427684282	0.009053065608
0	6180	60.13248074989	0.165369179505
0	6185	60.297849929395	0.004680475146
0	6189	60.302530404541	0.028496443706
0	6195	60.331026848247	0.002365111159
0	6199	60.333391959406	0.051713991715
0	6205	60.385105951121	0.059017649953
0	6210	60.444123601074	0.004090431094
0	6214	60.448214032168	0.010993897011
0	6219	60.459207929179	0.109123665709
0	6225	60.568331594888	0.204342343532
0	6230	60.77267393842	0.064840764018
0	6235	60.837514702438	0.052314067122
0	6240	60.88982876956	0.019413590884
0	6245	60.909242360444	0.068226653497
0	6250	60.977469013941	0.035391543885
0	6255	61.012860557826	0.031213645639
0	6260	61.044074203465	0.010959420211
0	6265	61.055033623676	0.016089718652
0	6270	61.071123342328	0.049659865229
0	6275	61.120783207557	0.002304268608
0	6279	61.123087476165	0.225629608853
0	6285	61.348717085018	0.067851596927
0	6290	61.416568681945	0.015958025812
0	6295	61.432526707757	0.117304057769
0	6300	61.549830765526	0.002869729893
0	6304	61.552700495419	0.015172751786
0	6310	61.567873247205	0.004965071446
0	6314	61.572838318651	0.026013785004
0	6320	61.598852103655	0.033942090737
0	6325	61.632794194392	0.019322630174
0	6330	61.652116824566	0.108199359274
0	6335	61.76031618384	0.01171211992
0	6340	61.77202830376	0.002570778052
0	6344	61.774599081812	0.017753798419
0	6350	61.792352880231	0.034476667263
0	6355	61.826829547494	0.001384035003
0	6359	61.828213582497	0.027173542317
0	6365	61.855387124814	0.008370156959
0	6370	61.863757281773	0.057300536131
0	6375	61.921057817904	0.08847517578
0	6380	62.009532993684	0.048382940881
0	6385	62.057915934565	0.019441684521
0	6390	62.077357619086	0.04601354487
0	6395	62.123371163956	0.015211994484
0	6400	62.13858315844	0.035679109099
0	6405	62.174262267539	0.056496059987
0	6410	62.230758327526	0.037026708837
0	6415	62.267785036363	0.245827229691
0	6420	62.513612266054	0.005040487549
0	6424	62.518652753603	0.10570220378
0	6430	62.624354957383	0.03134314765
0	6435	62.655698105033	0.042334882222
0	6440	62.698032987255	0.015609818236
0	6445	62.713642805491	0.074895451939
0	6450	62.78853825743	0.024437154207
0	6455	62.812975411637	0.066823428844
0	6461	62.879798840481	0.04297461002
0	6467	62.922773450501	0.020768389937
0	6472	62.943541840438	0.076714683523
0	6478	63.020256523961	0.038791510888
0	6483	63.059048034849	0.059043965191
0	6488	63.11809200004	0.040646997052
0	6493	63.158738997092	0.013934869164
0	6498	63.172673866256	0.02277175841
0	6503	63.195445624666	0.101034593759
0	6508	63.296480218425	0.129088751593
0	6513	63.425568970018	0.039842861613
0	6518	63.465411831631	0.025154549356
0	6523	63.490566380987	0.008721388544
0	6528	63.499287769531	0.031382996436
0	6533	63.530670765967	0.050580983464
0	6538	63.581251749431	0.070941035025
0	6543	63.652192784456	0.106000719645
0	6548	63.758193504101	0.032301709587
0	6553	63.790495213688	0.044209862524
0	6558	63.834705076212	0.025853361092
0	6563	63.860558437304	0.092771551763
0	6568	63.953329989067	0.001049568618
0	6572	63.954379557685	0.096065857823
0	6578	64.050445415508	0.037664913186
0	6583	64.088110328694	0.098629138496
0	6588	64.18673946719	0.082556375584
0	6593	64.269295842774	0.004436321861
0	6597	64.273732164635	0.095732966946
0	6605	64.369465131581	0.022099227613
0	6610	64.391564359194	0.025376239648
0	6616	64.416940598842	0.011732240789
0	6621	64.428672839631	0.02196747022
0	6626	64.450640309851	0.204828442844
0	6631	64.655468752695	0.062594275028
0	6636	64.718063027723	0.055719212858
0	6641	64.773782240581	0.011703778065
0	6646	64.785486018646	0.120347801847
0	6651	64.905833820493	0.022755341175
0	6656	64.928589161668	0.040603174706
0	6661	64.969192336374	0.013764100778
0	6666	64.982956437152	0.015426678043
0	6671	64.998383115195	0.010466345522
0	6676	65.008849460717	0.005796389337
0	6680	65.014645850054	0.046379242547
0	6686	65.061025092601	0.030226516736
0	6691	65.091251609337	0.08602417456
0	6696	65.177275783897	0.047346951681
0	6701	65.224622735578	0.022204474364
0	6706	65.246827209942	0.059159261795
0	6711	65.305986471737	0.021675311296
0	6716	65.327661783033	0.192223910628
0	6721	65.519885693661	1.164551e-006
0	6725	65.519886858212	0.00556114651
0	6728	65.525448004722	0.011819640521
0	6735	65.537267645243	0.027404691136
0	6741	65.564672336379	0.016437895606
0	6746	65.581110231985	0.122806131173
0	6751	65.703916363158	0.079323848805
0	6756	65.783240211963	0.036871539296
0	6761	65.820111751259	0.049829089305
0	6766	65.869940840564	0.057120403805
0	6771	65.927061244369	0.109294707845
0	6776	66.036355952214	0.094413616213
0	6781	66.130769568427	0.120575421757
0	6786	66.251344990184	0.035484208334
0	6791	66.286829198518	0.004208308388
0	6795	66.291037506906	0.087410974866
0	6801	66.378448481772	0.096031938698
0	6806	66.47448042047	0.012146444555
0	6811	66.486626865025	0.132900302085
0	6816	66.61952716711	0.061137562602
0	6821	66.680664729712	0.162226240298
0	6826	66.84289097001	0.020212030739
0	6832	66.863103000749	0.002586597289
0	6836	66.865689598038	0.081182816734
0	6842	66.946872414772	0.146926820291
0	6847	67.093799235063	0.021414478703
0	6852	67.115213713766	0.007976834527
0	6857	67.123190548293	0.05990102467
0	6862	67.183091572963	0.146552594601
0	6867	67.329644167564	0.087433332036
0	6872	67.4170774996	0.075847214751
0	6877	67.492924714351	0.092212234203
0	6882	67.585136948554	0.003485090219
0	6886	67.588622038773	0.014257105644
0	6892	67.602879144417	0.011591079533
0	6897	67.61447022395	0.269646234525
0	6902	67.884116458475	0.001165142481
0	6906	67.885281600956	0.000214280741
0	6909	67.885495881697	0.03819912424
0	6917	67.923695005937	0.026122353646
0	6922	67.949817359583	0.01127759534
0	6927	67.961094954923	0.020022589947
0	6932	67.98111754487	0.054461471524
0	6937	68.035579016394	0.154275396845
0	6943	68.189854413239	0.012447932099
0	6948	68.202302345338	0.041679774791
0	6953	68.243982120129	0.033629268379
0	6958	68.277611388508	0.068121217351
0	6963	68.345732605859	0.028664979272
0	6968	68.374397585131	0.02251546914
0	6973	68.396913054271	0.011002813168
0	6978	68.407915867439	0.010283321709
0	6983	68.418199189148	0.034611222111
0	6988	68.452810411259	0.001348782862
0	6992	68.454159194121	0.08711604311
0	6998	68.541275237231	0.006948887886
0	7002	68.548224125117	0.139054999949
0	7008	68.687279125066	0.02101724631
0	7013	68.708296371376	0.052291510224
0	7018	68.7605878816	0.065010607447
0	7023	68.825598489047	0.025838794027
0	7028	68.851437283074	0.031059118493
0	7033	68.882496401567	0.058491230112
0	7038	68.940987631679	0.060378935091
0	7043	69.00136656677	0.02092427231
0	7048	69.02229083908	0.043423684284
0	7053	69.065714523364	0.067343489976
0	7058	69.13305801334	0.020847928243
0	7063	69.153905941583	0.034448539894
0	7068	69.188354481477	0.033396493433
0	7073	69.22175097491	0.048450256591
0	7078	69.270201231501	0.034352496571
0	7083	69.304553728072	0.042801209489
0	7088	69.347354937561	0.00933207545
0	7093	69.356687013011	0.032189162484
0	7098	69.388876175495	0.035479329302
0	7103	69.424355504797	0.015181787438
0	7108	69.439537292235	0.128748902627
0	7113	69.568286194862	0.017029994232
0	7118	69.585316189094	0.047836772855
0	7123	69.633152961949	0.03613571255
0	7128	69.669288674499	0.088725731359
0	7133	69.758014405858	0.011971950911
0	7138	69.769986356769	0.151338603222
0	7143	69.921324959991	0.053767170184
0	7148	69.975092130175	0.000235464996
0	7152	69.975327595171	0.01155123202
0	7157	69.986878827191	0.054076900145
0	7163	70.040955727336	0.061853330927
0	7168	70.102809058263	0.024249346932
0	7173	70.127058405195	0.036819431037
0	7178	70.163877836232	0.117125161571
0	7183	70.281002997803	0.090093007488
0	7189	70.371096005291	0.046900227473
0	7194	70.417996232764	0.21627909646
0	7199	70.634275329224	0.022718272472
0	7204	70.656993601696	0.000557734943
0	7208	70.657551336639	0.006275974635
0	7211	70.663827311274	0.007877763106
0	7216	70.67170507438	0.002561603718
0	7221	70.674266678098	0.064825615308
0	7229	70.739092293406	0.063180607837
0	7234	70.802272901243	0.030471942215
0	7239	70.832744843458	0.148695003884
0	7244	70.981439847342	0.024540420757
0	7249	71.005980268099	0.025545300853
0	7254	71.031525568952	0.013405179553
0	7259	71.044930748505	0.016574713384
0	7264	71.061505461889	0.003906098604
0	7268	71.065411560493	0.003924013277
0	7273	71.06933557377	0.057817645094
0	7279	71.127153218864	0.06889548779
0	7284	71.196048706654	0.027590217583
0	7289	71.223638924237	0.006357551895
0	7293	71.229996476132	0.058097859979
0	7299	71.288094336111	0.040428867517
0	7304	71.328523203628	0.137499682263
0	7309	71.466022885891	0.038891732957
0	7314	71.504914618848	0.002278090146
0	7318	71.507192708994	0.015958956363
0	7324	71.523151665357	0.183566647137
0	7330	71.706718312494	0.100998195661
0	7336	71.807716508155	0.012719508291
0	7341	71.820436016446	0.029113385174
0	7346	71.84954940162	0.019223931466
0	7351	71.868773333086	0.030779144881
0	7356	71.899552477967	0.05389332539
0	7361	71.953445803357	0.084340510477
0	7366	72.037786313834	0.006569564609
0	7370	72.044355878443	0.081983801568
0	7376	72.126339680011	0.05671002411
0	7381	72.183049704121	0.026408563495
0	7386	72.209458267616	0.106823731781
0	7392	72.316281999397	0.015462340865
0	7397	72.331744340262	0.026135470386
0	7402	72.357879810648	0.066723823278
0	7407	72.424603633926	0.002119871879
0	7411	72.426723505805	0.037675343115
0	7417	72.46439884892	0.076684242665
0	7422	72.541083091585	0.060809401857
0	7427	72.601892493442	0.098636176865
0	7432	72.700528670307	0.166521141396
0	7437	72.867049811703	0.016606803942
0	7442	72.883656615645	0.071218777025
0	7447	72.95487539267	0.011693421069
0	7452	72.966568813739	0.010068581463
0	7457	72.976637395202	0.025610327845
0	7462	73.002247723047	0.030940791265
0	7467	73.033188514312	0.031113417378
0	7472	73.06430193169	0.103777249801
0	7477	73.168079181491	0.03237769203
0	7482	73.200456873521	0.014875514612
0	7487	73.215332388133	0.134640247903
0	7492	73.349972636036	0.076011475758
0	7497	73.425984111794	0.036978237625
0	7502	73.462962349419	0.042600186436
0	7508	73.505562535855	0.214155179359
0	7513	73.719717715214	0.016580480105
0	7518	73.736298195319	0.041823155326
0	7523	73.778121350645	0.063626464499
0	7528	73.841747815144	0.021993063388
0	7533	73.863740878532	0.00459246085
0	7537	73.868333339382	0.043550401257
0	7543	73.911883740639	0.014790800148
0	7548	73.926674540787	0.036070338547
0	7553	73.962744879334	0.013063178553
0	7558	73.975808057887	0.051014210155
0	7563	74.026822268042	0.013064192891
0	7568	74.039886460933	0.078509924596
0	7573	74.118396385529	0.015998125801
0	7578	74.13439451133	0.121716065714
0	7583	74.256110577044	0.016264745892
0	7588	74.272375322936	0.069885983441
0	7593	74.342261306377	0.16601325179
0	7598	74.508274558167	0.02037373316
0	7603	74.528648291327	0.022210840815
0	7608	74.550859132142	0.112714264982
0	7613	74.663573397124	0.020301550826
0	7618	74.68387494795	0.03405742496
0	7623	74.71793237291	0.066240322475
0	7628	74.784172695385	0.071690109383
0	7633	74.855862804768	0.031006453295
0	7638	74.886869258063	0.132402291783
0	7643	75.019271549846	0.033997126651
0	7648	75.053268676497	0.022268662874
0	7653	75.075537339371	0.088555246165
0	7658	75.164092585536	0.030765402317
0	7663	75.194857987853	0.007280604288
0	7667	75.202138592141	0.150311488657
0	7673	75.352450080798	0.036588550961
0	7678	75.389038631759	0.010223592289
0	7683	75.399262224048	0.001988210386
0	7687	75.401250434434	0.194330681435
0	7693	75.595581115869	0.014624228099
0	7698	75.610205343968	0.200542163725
0	7703	75.810747507693	0.013696205886
0	7708	75.824443713579	0.0315668924
0	7713	75.856010605979	0.022963411523
0	7718	75.878974017502	0.009683608064
0	7723	75.888657625566	0.020039219311
0	7728	75.908696844877	0.011205244142
0	7733	75.919902089019	0.018914897885
0	7738	75.938816986904	0.03960173357
0	7743	75.978418720474	0.304010343792
0	7748	76.282429064266	0.046366228351
0	7753	76.328795292617	0.042964498583
0	7758	76.3717597912	0.087813137128
0	7763	76.459572928328	0.023456280611
0	7768	76.483029208939	0.056337614525
0	7773	76.539366823464	0.037093358204
0	7778	76.576460181668	0.029801206969
0	7783	76.606261388637	0.128826974683
0	7788	76.73508836332	0.027233033733
0	7793	76.762321397053	0.076580937491
0	7798	76.838902334544	0.033731084814
0	7803	76.872633419358	0.03179963201
0	7808	76.904433051368	0.021368384515
0	7813	76.925801435883	0.008045891376
0	7818	76.933847327259	0.012919341776
0	7823	76.946766669035	0.003792572228
0	7827	76.950559241263	0.19544038445
0	7833	77.145999625713	0.000115895748
0	7837	77.146115521461	0.049720139525
0	7843	77.195835660986	0.117911383146
0	7848	77.313747044132	0.00252756428
0	7852	77.316274608412	0.009167408024
0	7857	77.325442016436	0.057342747051
0	7863	77.382784763487	0.068028753147
0	7868	77.450813516634	0.022502654997
0	7873	77.473316171631	0.192118162841
0	7878	77.665434334472	0.008435166044
0	7883	77.673869500516	0.043759544583
0	7888	77.717629045099	0.076014020158
0	7893	77.793643065257	0.09615388986
0	7898	77.889796955117	0.040152571723
0	7903	77.92994952684	0.086190586593
0	7908	78.016140113433	0.0093764571
0	7913	78.025516570533	0.142062802871
0	7918	78.167579373404	0.050157602452
0	7923	78.217736975856	0.066941378054
0	7929	78.28467835391	0.010317896804
0	7934	78.294996250714	0.026374783112
0	7939	78.321371033826	0.116475465578
0	7944	78.437846499404	0.018407196767
0	7949	78.456253696171	0.002511231544
0	7953	78.458764927715	0.037486706013
0	7959	78.496251633728	0.050283267387
0	7964	78.546534901115	0.019558953252
0	7969	78.566093854367	0.024298081366
0	7974	78.590391935733	0.144839079288
0	7979	78.735231015021	0.001331282454
0	7983	78.736562297475	0.004558380364
0	7986	78.741120677839	0.035074514945
0	7994	78.776195192784	0.0109529265
0	7999	78.787148119284	0.068377600214
0	8004	78.855525719498	0.025812698425
0	8009	78.881338417923	0.048903682621
0	8014	78.930242100544	0.039880403238
0	8019	78.970122503782	0.003622226885
0	8023	78.973744730667	0.043922342405
0	8029	79.017667073072	0.003334202957
0	8033	79.021001276029	0.091964418565
0	8039	79.112965694594	0.02893781358
0	8044	79.141903508174	0.017822999862
0	8049	79.159726508036	0.001463853426
0	8053	79.161190361462	0.081705040323
0	8059	79.242895401785	0.046226076294
0	8064	79.289121478079	0.01835994646
0	8069	79.307481424539	0.044183424819
0	8074	79.351664849358	0.017515342627
0	8079	79.369180191985	0.100803771487
0	8085	79.469983963472	0.092526740735
0	8090	79.562510704207	0.04739414274
0	8095	79.609904846947	0.007508788109
0	8099	79.617413635056	0.094506521848
0	8105	79.711920156904	0.136916124918
0	8110	79.848836281822	0.023435741546
0	8115	79.872272023368	0.058032756538
0	8120	79.930304779906	0.043327712328
0	8125	79.973632492234	0.041296568885
0	8131	80.014929061119	0.006955959395
0	8135	80.021885020514	0.01761951979
0	8141	80.039504540304	0.008777347752
0	8146	80.048281888056	0.058058404886
0	8151	80.106340292942	0.175472234829
0	8156	80.281812527771	0.092924216356
0	8161	80.374736744127	0.027301088024
0	8166	80.402037832151	0.058962268291
0	8171	80.461000100442	0.039714224881
0	8176	80.500714325323	0.087884284111
0	8181	80.588598609434	0.00289905566
0	8185	80.591497665094	0.043835049214
0	8191	80.635332714308	0.257166781146
0	8196	80.892499495454	0.023366465664
0	8201	80.915865961118	0.005702442028
0	8205	80.921568403146	0.03143100671
0	8211	80.952999409856	0.217031254072
0	8216	81.170030663928	0.025300738181
0	8221	81.195331402109	0.023241399595
0	8226	81.218572801704	0.055056820266
0	8231	81.27362962197	0.283799676664
0	8236	81.557429298634	0.180324294504
0	8241	81.737753593138	0.016451801494
0	8246	81.754205394632	0.093443643518
0	8251	81.84764903815	0.002348389324
0	8255	81.849997427474	0.011298761652
0	8260	81.861296189126	0.144519950019
0	8266	82.005816139145	0.034570757345
0	8271	82.04038689649	0.039910041846
0	8276	82.080296938336	0.120178801371
0	8281	82.200475739707	0.065966744062
0	8286	82.266442483769	0.36408687282
0	8291	82.630529356589	0.0164977076
0	8296	82.647027064189	0.154526905716
0	8301	82.801553969905	0.130740953429
0	8306	82.932294923334	0.0044217196
0	8310	82.936716642934	0.063821964838
0	8316	83.000538607772	0.016012022359
0	8321	83.016550630131	0.057415356182
0	8326	83.073965986313	0.064626510882
0	8331	83.138592497195	0.014587957346
0	8336	83.153180454541	0.000359983998
0	8340	83.153540438539	0.089067318987
0	8346	83.242607757526	0.062765086259
0	8351	83.305372843785	0.07845455973
0	8356	83.383827403515	0.001584915457
0	8360	83.385412318972	0.031442422266
0	8366	83.416854741238	0.009151795634
0	8371	83.426006536872	0.016202344744
0	8376	83.442208881616	0.062245924252
0	8381	83.504454805868	0.119734407458
0	8386	83.624189213326	0.142859014914
0	8391	83.76704822824	0.145920356282
0	8396	83.912968584522	0.001700160159
0	8400	83.914668744681	0.03875926002
0	8406	83.953428004701	0.002868945377
0	8410	83.956296950078	0.018900649852
0	8416	83.97519759993	0.042636971524
0	8421	84.017834571454	0.11511428048
0	8427	84.132948851934	0.040781150872
0	8432	84.173730002806	0.012266564265
0	8437	84.185996567071	0.10977616517
0	8442	84.295772732241	0.045715701325
0	8448	84.341488433566	0.103290409877
0	8453	84.444778843443	0.052091533736
0	8458	84.496870377179	0.065608429142
0	8463	84.562478806321	0.053915469059
0	8468	84.61639427538	0.05680683378
0	8473	84.67320110916	0.031104039039
0	8478	84.704305148199	0.084278000364
0	8483	84.788583148563	0.257457743998
0	8488	85.046040892561	0.094039418108
0	8493	85.140080310669	0.061698857375
0	8498	85.201779168044	0.070268614719
0	8503	85.272047782763	0.010077485956
0	8508	85.282125268719	0.011459544956
0	8513	85.293584813675	0.165235591842
0	8519	85.458820405517	0.042048088327
0	8524	85.500868493844	0.051808156322
0	8529	85.552676650166	0.022327194888
0	8534	85.575003845054	0.072895370468
0	8539	85.647899215522	0.048678832983
0	8544	85.696578048505	0.054737858586
0	8549	85.751315907091	0.19604838358
0	8555	85.947364290671	0.025852417582
0	8560	85.973216708253	0.080268806339
0	8566	86.053485514592	0.012799826047
0	8571	86.066285340639	0.131265800962
0	8576	86.197551141601	0.009503880821
0	8581	86.207055022422	0.023434747589
0	8586	86.230489770011	0.037085114516
0	8591	86.267574884527	0.043980717009
0	8596	86.311555601536	0.014692272897
0	8601	86.326247874433	0.007066698206
0	8605	86.333314572639	0.019387646498
0	8611	86.352702219137	2.2235648e-005
0	8615	86.352724454785	0.05476093466
0	8621	86.407485389445	0.061463261648
0	8626	86.468948651093	0.001780876933
0	8630	86.470729528026	0.010720021098
0	8635	86.481449549124	0.030717218891
0	8641	86.512166768015	0.116984879514
0	8646	86.629151647529	0.020630912497
0	8651	86.649782560026	0.019253481252
0	8656	86.669036041278	0.031487281844
0	8661	86.700523323122	0.007961512931
0	8666	86.708484836053	0.024488615522
0	8671	86.732973451575	0.142991814917
0	8676	86.875965266492	0.011473375619
0	8681	86.887438642111	0.010593044641
0	8686	86.898031686752	0.049218967718
0	8691	86.94725065447	0.113348118674
0	8696	87.060598773144	0.085662956044
0	8701	87.146261729188	0.007804765434
0	8706	87.154066494622	0.004289255063
0	8710	87.158355749685	0.028845858313
0	8716	87.187201607998	0.004671962454
0	8720	87.191873570452	0.098981030321
0	8727	87.290854600773	0.010912785124
0	8732	87.301767385897	0.096200220675
0	8737	87.397967606572	0.121198115841
0	8742	87.519165722413	0.061973400623
0	8747	87.581139123036	0.01259447157
0	8752	87.593733594606	0.123586764594
0	8757	87.7173203592	0.004742129644
0	8761	87.722062488844	0.079272336796
0	8767	87.80133482564	0.04116553918
0	8772	87.84250036482	0.081948009885
0	8777	87.924448374705	0.02984828822
0	8782	87.954296662925	0.029295098456
0	8787	87.983591761381	0.037311612629
0	8792	88.02090337401	0.04916165015
0	8797	88.07006502416	0.064084326514
0	8802	88.134149350674	0.134598656294
0	8807	88.268748006968	0.026956752228
0	8812	88.295704759196	0.008922555333
0	8817	88.304627314529	0.106113921759
0	8822	88.410741236288	0.069129900134
0	8827	88.479871136422	0.045392400023
0	8832	88.525263536445	0.025993372971
0	8837	88.551256909416	0.00417465817
0	8841	88.555431567586	0.042411447485
0	8847	88.597843015071	0.020970330329
0	8852	88.6188133454	0.004483058752
0	8856	88.623296404152	0.01656338717
0	8862	88.639859791322	0.04837473023
0	8867	88.688234521552	0.04014857492
0	8872	88.728383096472	0.085877018087
0	8877	88.814260114559	0.102857064373
0	8882	88.917117178932	0.032224185332
0	8887	88.949341364264	8.8675933e-005
0	8891	88.949430040197	0.169322815209
0	8898	89.118752855406	0.061457194524
0	8903	89.18021004993	0.042975053903
0	8908	89.223185103833	0.174393143656
0	8913	89.397578247489	0.019331324399
0	8919	89.416909571888	0.048831029548
0	8924	89.465740601436	0.056879958417
0	8929	89.522620559853	0.121074685478
0	8934	89.643695245331	0.092772279952
0	8939	89.736467525283	0.065309113086
0	8944	89.801776638369	0.070392305201
0	8950	89.87216894357	0.029060955352
0	8955	89.901229898922	0.005333885503
0	8959	89.906563784425	0.000119170061
0	8962	89.906682954486	0.019929869427
0	8971	89.926612823913	0.028590606857
0	8976	89.95520343077	0.107805917025
0	8982	90.063009347795	0.010065171682
0	8987	90.073074519477	0.106868165109
0	8992	90.179942684586	0.028427576408
0	8997	90.208370260994	0.003229027599
0	9001	90.211599288593	0.013306126039
0	9007	90.224905414632	0.009541128337
0	9012	90.234446542969	0.146419638212
0	9018	90.380866181181	0.021878306422
0	9023	90.402744487603	0.0519635415
0	9028	90.454708029103	0.010987826098
0	9033	90.465695855201	0.009060413288
0	9038	90.474756268489	0.048556078882
0	9043	90.523312347371	0.037154663925
0	9048	90.560467011296	0.09032841016
0	9053	90.650795421456	0.08759563676
0	9058	90.738391058216	0.001645102545
0	9062	90.740036160761	0.100003454465
0	9068	90.840039615226	0.099239841365
0	9073	90.939279456591	0.01853168009
0	9078	90.957811136681	0.003318530977
0	9082	90.961129667658	0.033457538613
0	9088	90.994587206271	0.075692389126
0	9093	91.070279595397	0.028654342739
0	9098	91.098933938136	0.026108508015
0	9103	91.125042446151	0.136310804489
0	9108	91.26135325064	0.02946049138
0	9113	91.29081374202	0.000185242923
0	9117	91.290998984943	0.021981786254
0	9123	91.312980771197	0.262733761235
0	9128	91.575714532432	0.02534621164
0	9133	91.601060744072	0.008398855001
0	9138	91.609459599073	0.106395604205
0	9143	91.715855203278	0.031518871558
0	9148	91.747374074836	0.019895646662
0	9153	91.767269721498	0.006696434483
0	9157	91.773966155981	0.056433187118
0	9163	91.830399343099	0.03988278177
0	9168	91.870282124869	0.065224249563
0	9173	91.935506374432	0.011765638182
0	9178	91.947272012614	0.01931788598
0	9183	91.966589898594	0.111070439848
0	9188	92.077660338442	0.03674395746
0	9193	92.114404295902	0.113506991541
0	9198	92.227911287443	0.005820717487
0	9202	92.23373200493	0.034628854062
0	9208	92.268360858992	0.080118390997
0	9213	92.348479249989	0.00658608464
0	9217	92.355065334629	0.029459316823
0	9223	92.384524651452	0.090198026522
0	9228	92.474722677974	0.038209818923
0	9233	92.512932496897	0.010130729859
0	9238	92.523063226756	0.007122692833
0	9242	92.530185919589	0.054061744098
0	9248	92.584247663687	0.063496652521
0	9253	92.647744316208	0.077155047758
0	9258	92.724899363966	0.052391577404
0	9263	92.77729094137	0.096911118361
0	9268	92.874202059731	0.116564178862
0	9273	92.990766238593	0.084054035632
0	9278	93.074820274225	0.044418200837
0	9283	93.119238475062	0.05207852876
0	9288	93.171317003822	0.205554508954
0	9293	93.376871512776	0.045866988925
0	9298	93.422738501701	0.174212000464
0	9303	93.596950502165	0.010737944887
0	9308	93.607688447052	0.053916707422
0	9313	93.661605154474	0.054976236298
0	9318	93.716581390772	0.030158557915
0	9323	93.746739948687	0.000199682676
0	9327	93.746939631363	0.085566243302
0	9333	93.832505874665	0.010802354293
0	9338	93.843308228958	0.060559609042
0	9343	93.903867838	0.130290535168
0	9348	94.034158373168	0.038658143246
0	9353	94.072816516414	0.022972996523
0	9358	94.095789512937	0.058131685094
0	9363	94.153921198031	0.004854686633
0	9367	94.158775884664	0.118113526152
0	9373	94.276889410816	0.000936817382
0	9377	94.277826228198	0.042501944671
0	9383	94.320328172869	0.03617414184
0	9388	94.356502314709	0.023505931834
0	9393	94.380008246543	0.035456783427
0	9398	94.41546502997	0.051437671146
0	9403	94.466902701116	0.118812353063
0	9408	94.585715054179	0.04534840569
0	9413	94.631063459869	0.041626790162
0	9418	94.672690250031	0.017235147589
0	9423	94.68992539762	0.002368291825
0	9427	94.692293689445	0.115646902232
0	9433	94.807940591677	0.158453908743
0	9438	94.96639450042	0.011574770582
0	9443	94.977969271002	0.037635115059
0	9448	95.015604386061	0.033885543751
0	9453	95.049489929812	0.036698067456
0	9458	95.086187997268	0.053925970774
0	9463	95.140113968042	0.079123949923
0	9468	95.219237917965	0.085743173461
0	9473	95.304981091426	0.010413492354
0	9478	95.31539458378	0.034518633065
0	9483	95.349913216845	0.036502430219
0	9488	95.386415647064	0.049154952122
0	9493	95.435570599186	0.021430374976
0	9498	95.457000974162	0.004747252385
0	9502	95.461748226547	0.028696100887
0	9508	95.490444327434	0.001987925096
0	9512	95.49243225253	0.048824266983
0	9518	95.541256519513	0.012921252236
0	9523	95.554177771749	0.005961266069
0	9527	95.560139037818	0.1313569275
0	9533	95.691495965318	0.040442349836
0	9538	95.731938315154	0.014998644604
0	9543	95.746936959758	0.011901366999
0	9548	95.758838326757	0.008662111208
0	9553	95.767500437965	0.028921930902
0	9558	95.796422368867	0.044333426439
0	9563	95.840755795306	0.037030249474
0	9568	95.87778604478	0.007846620005
0	9573	95.885632664785	0.102961116851
0	9579	95.988593781636	0.013735415764
0	9584	96.0023291974	0.088347619255
0	9589	96.090676816655	0.056245576299
0	9594	96.146922392954	0.001382999854
0	9598	96.148305392808	0.000716851821
0	9601	96.149022244629	0.009334366135
0	9606	96.158356610764	0.045120018141
0	9614	96.203476628905	0.004516410305
0	9618	96.20799303921	0.011670029953
0	9624	96.219663069163	0.083726583977
0	9629	96.30338965314	0.01254519543
0	9634	96.31593484857	0.099371924513
0	9639	96.415306773083	0.021222010335
0	9644	96.436528783418	0.015621307984
0	9649	96.452150091402	0.008475069366
0	9654	96.460625160768	0.005089584546
0	9658	96.465714745314	0.140436739017
0	9664	96.606151484331	0.007380409794
0	9668	96.613531894125	0.027867014635
0	9674	96.64139890876	0.008453353986
0	9679	96.649852262746	0.015701018686
0	9684	96.665553281432	0.036797561102
0	9689	96.702350842534	0.045286590958
0	9694	96.747637433492	0.037137584832
0	9699	96.784775018324	0.009782377945
0	9704	96.794557396269	0.018116571034
0	9709	96.812673967303	0.019063454337
0	9714	96.83173742164	0.17835792692
0	9719	97.01009534856	0.088442594972
0	9724	97.098537943532	0.027617054393
0	9729	97.126154997925	0.016873534198
0	9734	97.143028532123	0.064246533089
0	9739	97.207275065212	0.008252127164
0	9744	97.215527192376	0.065748810649
0	9749	97.281276003025	0.011640004562
0	9754	97.292916007587	0.033686005144
0	9759	97.326602012731	0.070194339846
0	9764	97.396796352577	0.059524713203
0	9769	97.45632106578	0.009657242437
0	9774	97.465978308217	0.038604774808
0	9779	97.504583083025	0.071450584138
0	9784	97.576033667163	0.021702382582
0	9789	97.597736049745	0.03801529632
0	9794	97.635751346065	0.001183295832
0	9798	97.636934641897	0.030000386843
0	9804	97.66693502874	0.113531530516
0	9809	97.780466559256	0.003001992788
0	9813	97.783468552044	0.006624296444
0	9818	97.790092848488	0.104393126272
0	9824	97.89448597476	0.170288987478
0	9829	98.064774962238	0.02423301788
0	9834	98.089007980118	0.08313480995
0	9839	98.172142790068	0.114253813242
0	9844	98.28639660331	0.04181707646
0	9849	98.32821367977	0.108804830023
0	9854	98.437018509793	0.009876664946
0	9859	98.446895174739	0.082504115638
0	9864	98.529399290377	0.06906447908
0	9869	98.598463769457	0.103574440672
0	9874	98.702038210129	0.007072303583
0	9878	98.709110513712	0.176333819858
0	9884	98.88544433357	0.017383142495
0	9889	98.902827476065	0.030132923853
0	9894	98.932960399918	0.01323998811
0	9899	98.946200388028	0.066874465735
0	9904	99.013074853763	0.010401222297
0	9909	99.02347607606	0.010472525806
0	9914	99.033948601866	0.025179997056
0	9919	99.059128598922	0.101493780733
0	9924	99.160622379655	0.070730790532
0	9929	99.231353170187	0.006643883072
0	9933	99.237997053259	0.038676959191
0	9939	99.27667401245	0.097800986069
0	9944	99.374474998519	0.00936073096
0	9949	99.383835729479	0.001217661613
0	9953	99.385053391092	0.012138359294
0	9958	99.397191750386	0.096859816204
0	9964	99.49405156659	0.039855509164
0	9969	99.533907075754	0.074588126118
0	9974	99.608495201872	0.229446424718
0	9979	99.83794162659	0.009143955093
0	9984	99.847085581683	0.061998557101
0	9989	99.909084138784	0.01064314851
0	9994	99.919727287294	0.006122068041
0	9998	99.925849355335	0.08462561657
0	10004	100.010474971905	0.012579572019
0	10009	100.023054543924	0.033508692461
0	10014	100.056563236385	0.00717613156
0	10018	100.063739367945	0.03567215322
0	10024	100.099411521165	0.084798700308
0	10029	100.184210221473	0.023711505348
0	10034	100.207921726821	0.040401623142
0	10039	100.248323349963	0.054675082847
0	10044	100.30299843281	0.027953120914
0	10049	100.330951553724	0.000523318611
0	10053	100.331474872335	0.013166379186
0	10058	100.344641251521	0.101349371341
0	10064	100.445990622862	0.018053610457
0	10069	100.464044233319	0.071913176488
0	10074	100.535957409807	0.028864226332
0	10079	100.564821636139	0.012039534777
0	10084	100.576861170916	0.010385551495
0	10089	100.587246722411	0.058868964792
0	10094	100.646115687203	0.038189632075
0	10099	100.684305319278	0.050103094362
0	10104	100.73440841364	0.05194948971
0	10109	100.78635790335	0.043501970648
0	10114	100.829859873998	0.060765815256
0	10119	100.890625689254	0.029791277755
0	10124	100.920416967009	0.006708504794
0	10128	100.927125471803	0.053755418169
0	10134	100.980880889972	0.006396285972
0	10138	100.987277175944	0.008221100405
0	10143	100.995498276349	0.064687276295
0	10149	101.060185552644	0.038172907357
0	10154	101.098358460001	0.010884402084
0	10159	101.109242862085	0.079854650366
0	10164	101.189097512451	0.092598446253
0	10169	101.281695958704	0.112346251879
0	10174	101.394042210583	0.127082025314
0	10179	101.521124235897	0.036142228242
0	10184	101.557266464139	0.111973884598
0	10189	101.669240348737	0.006416868649
0	10193	101.675657217386	0.069129895402
0	10199	101.744787112788	0.039687726259
0	10204	101.784474839047	0.059275758704
0	10209	101.843750597751	0.054117916747
0	10214	101.897868514498	0.0060517842
0	10218	101.903920298698	0.053898467832
0	10224	101.95781876653	0.034841686694
0	10229	101.992660453224	0.066930573963
0	10234	102.059591027187	0.058005897077
0	10239	102.117596924264	0.085367395478
0	10244	102.202964319742	0.038007733262
0	10249	102.240972053004	0.188756795519
0	10254	102.429728848523	0.064097463849
0	10259	102.493826312372	0.118916371672
0	10264	102.612742684044	0.008687848539
0	10269	102.621430532583	0.00495883485
0	10274	102.626389367433	0.012016277713
0	10280	102.638405645146	0.011170824014
0	10285	102.64957646916	0.051936491326
0	10290	102.701512960486	0.126616184523
0	10295	102.828129145009	0.002527517834
0	10299	102.830656662843	0.000952902417
0	10302	102.83160956526	0.013383084189
0	10309	102.844992649449	0.052471965243
0	10315	102.897464614692	0.00242085269
0	10319	102.899885467382	0.054832794095
0	10325	102.954718261477	0.21750920266
0	10330	103.172227464137	0.046770085787
0	10335	103.218997549924	0.010779281262
0	10340	103.229776831186	0.069903762693
0	10345	103.299680593879	0.063376649663
0	10350	103.363057243542	0.044187561291
0	10355	103.407244804833	0.032602798869
0	10360	103.439847603702	0.020304471736
0	10365	103.460152075438	0.21295751278
0	10370	103.673109588218	0.067175916291
0	10375	103.740285504509	0.059037893971
0	10381	103.79932339848	0.05855411094
0	10386	103.85787750942	0.024953021675
0	10391	103.882830531095	0.002973241622
0	10395	103.885803772717	0.068705594441
0	10401	103.954509367158	0.014806103633
0	10406	103.969315470791	0.157029031157
0	10412	104.126344501948	0.002591188838
0	10416	104.128935690786	0.013827193658
0	10422	104.142762884444	0.01378212984
0	10427	104.156545014284	0.029980733921
0	10432	104.186525748205	0.025925738854
0	10437	104.212451487059	0.040426406999
0	10442	104.252877894058	0.050587028514
0	10447	104.303464922572	0.038739005258
0	10452	104.34220392783	0.036647493034
0	10457	104.378851420864	0.009449474414
0	10462	104.388300895278	0.030284288443
0	10467	104.418585183721	0.009973433863
0	10472	104.428558617584	0.003229880312
0	10476	104.431788497896	0.006875085963
0	10481	104.438663583859	0.006445572244
0	10486	104.445109156103	0.178149159016
0	10492	104.623258315119	0.045042251992
0	10497	104.668300567111	0.079160730191
0	10502	104.747461297302	0.112320591642
0	10507	104.859781888944	0.009784420707
0	10512	104.869566309651	0.049446368499
0	10517	104.91901267815	0.042022482087
0	10522	104.961035160237	0.028072150296
0	10527	104.989107310533	0.004060985921
0	10531	104.993168296454	0.049896755183
0	10537	105.043065051637	0.028345388361
0	10542	105.071410439998	0.033561483905
0	10547	105.104971923903	0.052275446627
0	10552	105.15724737053	0.15627350271
0	10557	105.31352087324	0.029016712141
0	10562	105.342537585381	0.015258986758
0	10567	105.357796572139	0.01636839553
0	10572	105.374164967669	0.076910179242
0	10578	105.451075146911	0.059848457637
0	10583	105.510923604548	0.047471663163
0	10588	105.558395267711	0.063019789815
0	10593	105.621415057526	0.03734651852
0	10598	105.658761576046	0.005949627935
0	10602	105.664711203981	0.026431406599
0	10608	105.69114261058	0.056128631865
0	10613	105.747271242445	0.001709761359
0	10617	105.748981003804	0.082437634675
0	10623	105.831418638479	0.015260055197
0	10628	105.846678693676	0.057226687711
0	10633	105.903905381387	0.01243538125
0	10638	105.916340762637	0.035415679498
0	10643	105.951756442135	0.022197214416
0	10648	105.973953656551	0.097688753301
0	10654	106.071642409852	0.040410780178
0	10659	106.11205319003	0.036662531468
0	10664	106.148715721498	0.034240978354
0	10669	106.182956699852	0.206985439264
0	10674	106.389942139116	0.016542395089
0	10679	106.406484534205	0.061894520143
0	10684	106.468379054348	0.028604940433
0	10689	106.496983994781	0.03086179714
0	10694	106.527845791921	0.021359429659
0	10699	106.54920522158	0.083220656457
0	10704	106.632425878037	0.067250586753
0	10709	106.69967646479	0.107397998602
0	10714	106.807074463392	0.064769204874
0	10719	106.871843668266	0.103952000124
0	10724	106.97579566839	0.034700102624
0	10729	107.010495771014	0.025158590814
0	10734	107.035654361828	0.055272277248
0	10739	107.090926639076	0.013202180409
0	10744	107.104128819485	0.068902817869
0	10750	107.173031637354	0.056977711681
0	10755	107.230009349035	0.000364196099
0	10759	107.230373545134	0.057158951409
0	10765	107.287532496543	0.003869593461
0	10769	107.291402090004	0.108593397725
0	10775	107.399995487729	0.035562198541
0	10780	107.43555768627	0.034450408561
0	10785	107.470008094831	0.091763135202
0	10790	107.561771230033	0.111740878819
0	10795	107.673512108852	0.033174631411
0	10800	107.706686740263	0.269176429983
0	10805	107.975863170246	0.00795112891
0	10810	107.983814299156	0.027631734751
0	10815	108.011446033907	0.08743031774
0	10820	108.098876351647	0.088723817021
0	10825	108.187600168668	0.004074829096
0	10829	108.191674997764	0.033645032758
0	10835	108.225320030522	0.043800964486
0	10840	108.269120995008	0.025376396987
0	10845	108.294497391995	0.001349924383
0	10849	108.295847316378	0.106759813338
0	10855	108.402607129716	0.162339611771
0	10861	108.564946741487	0.03623513479
0	10866	108.601181876277	0.032728316518
0	10871	108.633910192795	0.03513371054
0	10876	108.669043903335	0.020770585836
0	10881	108.689814489171	0.086974771282
0	10886	108.776789260453	0.084918515296
0	10892	108.861707775749	0.270414575502
0	10897	109.132122351251	0.01828862193
0	10902	109.150410973181	0.003234515707
0	10906	109.153645488888	0.317788444029
0	10912	109.471433932917	0.033390562057
0	10917	109.504824494974	0.115180073589
0	10922	109.620004568563	0.198011073802
0	10927	109.818015642365	0.013822330916
0	10932	109.831837973281	0.05587729396
0	10937	109.887715267241	0.027751653979
0	10942	109.91546692122	0.01567020042
0	10947	109.93113712164	0.084740281191
0	10952	110.015877402831	0.012173053131
0	10957	110.028050455962	0.041954025254
0	10962	110.070004481216	0.011032276297
0	10967	110.081036757513	0.023219419064
0	10972	110.104256176577	0.017797199697
0	10977	110.122053376274	0.026660705565
0	10982	110.148714081839	0.024417675285
0	10987	110.173131757124	0.010620644673
0	10992	110.183752401797	0.029223091532
0	10997	110.212975493329	0.095744357974
0	11002	110.308719851303	0.03960959848
0	11007	110.348329449783	0.015119975935
0	11012	110.363449425718	0.000931026298
0	11016	110.364380452016	0.043945427119
0	11022	110.408325879135	0.08986455428
0	11027	110.498190433415	0.024939319353
0	11032	110.523129752768	0.007132038531
0	11036	110.530261791299	0.083175160476
0	11042	110.613436951775	0.002731401851
0	11046	110.616168353626	0.026868790105
0	11052	110.643037143731	0.089256773851
0	11057	110.732293917582	0.039792993359
0	11062	110.772086910941	0.006584613256
0	11066	110.778671524197	0.03431005922
0	11072	110.812981583417	0.004461098037
0	11076	110.817442681454	0.010710012036
0	11081	110.82815269349	0.073256191398
0	11087	110.901408884888	0.104812690374
0	11092	111.006221575262	0.014215073505
0	11097	111.020436648767	0.024986097166
0	11102	111.045422745933	0.03342618098
0	11107	111.078848926913	0.032057488117
0	11112	111.11090641503	0.076137109958
0	11117	111.187043524988	0.027170482928
0	11122	111.214214007916	0.006609311
0	11126	111.220823318916	0.046993542294
0	11132	111.26781686121	0.139728140323
0	11137	111.407545001533	0.098665009608
0	11142	111.506210011141	0.029021172723
0	11147	111.535231183864	0.048845216283
0	11152	111.584076400147	0.01257623696
0	11157	111.596652637107	0.038114483848
0	11162	111.634767120955	0.077902076923
0	11167	111.712669197878	0.121542451736
0	11173	111.834211649614	0.008100057625
0	11178	111.842311707239	0.08217784171
0	11183	111.924489548949	0.051030937162
0	11188	111.975520486111	0.01402272046
0	11193	111.989543206571	0.044673941055
0	11198	112.034217147626	0.012442733721
0	11203	112.046659881347	0.085852988652
0	11208	112.132512869999	0.034928173657
0	11213	112.167441043656	0.127631675442
0	11218	112.295072719098	0.011500529005
0	11223	112.306573248103	0.033897679306
0	11228	112.340470927409	0.002230132561
0	11232	112.34270105997	0.065726537103
0	11238	112.408427597073	0.064393682312
0	11243	112.472821279385	0.027992558232
0	11248	112.500813837617	0.012751743262
0	11253	112.513565580879	0.028403343083
0	11258	112.541968923962	0.02711469371
0	11263	112.569083617672	0.007730368552
0	11267	112.576813986224	0.03823964815
0	11273	112.615053634374	0.113353982783
0	11278	112.728407617157	0.018236341472
0	11283	112.746643958629	0.026796697558
0	11288	112.773440656187	0.137202135432
0	11293	112.910642791619	0.049537278592
0	11298	112.960180070211	0.04114044925
0	11303	113.001320519461	0.009585928304
0	11308	113.010906447765	0.104837483498
0	11314	113.115743931263	0.029220301931
0	11319	113.144964233194	0.103334681976
0	11325	113.24829891517	0.101531330817
0	11330	113.349830245987	0.029201624252
0	11335	113.379031870239	0.023549014353
0	11340	113.402580884592	0.054524888933
0	11346	113.457105773525	0.029445676852
0	11351	113.486551450377	0.05342914198
0	11356	113.539980592357	0.050085087212
0	11361	113.590065679569	0.144103846844
0	11367	113.734169526413	0.004955826056
0	11371	113.739125352469	0.043648986047
0	11377	113.782774338516	0.125922749144
0	11382	113.90869708766	0.013845975517
0	11387	113.922543063177	0.064587089565
0	11392	113.987130152742	0.148301338524
0	11397	114.135431491266	0.016331144349
0	11402	114.151762635615	0.108886175924
0	11407	114.260648811539	0.001744766697
0	11411	114.262393578236	0.003791517894
0	11414	114.26618509613	0.025060465817
0	11423	114.291245561947	0.034755893265
0	11428	114.326001455212	0.007726177974
0	11432	114.333727633186	0.0597419352
0	11438	114.393469568386	0.189833544601
0	11444	114.583303112987	0.076186924204
[...]
4	40347	396.330415529664	0.012289006679
4	40352	396.35698831652	0.007777777778
4	40357	396.394919516544	0.007777777778
4	40362	396.442379855443	0.007777777778
4	40367	396.523076054158	0.007777777778
4	40372	396.532234520877	0.007777777778
4	40377	396.583567083793	0.007777777778
4	40383	396.598382673924	0.007777777778
4	40388	396.632101771489	0.007777777778
4	40393	396.732004249557	0.007777777778
4	40398	396.739782027335	0.009318142101
4	40403	396.747559805113	0.01521674558
4	40408	396.813587143477	0.007777777778
4	40413	396.848825738279	0.007777777778
4	40418	396.921789443915	0.007777777778
4	40423	396.988957713304	0.007777777778
4	40428	397.03481518639	0.007777777778
4	40433	397.05083832302	0.007777777778
4	40438	397.058616100798	0.009542417002
4	40443	397.139269527081	0.007777777778
4	40448	397.189756029292	0.007777777778
4	40453	397.216740587213	0.007777777778
4	40461	397.224518364991	0.013276137326
4	40463	397.232296142769	0.017101356876
4	40468	397.246721443014	0.007777777778
4	40475	397.371543152432	0.007777777778
4	40480	397.45730369416	0.007777777778
4	40485	397.48828870696	0.007777777778
4	40490	397.496066484738	0.010859523545
4	40495	397.525413097664	0.007777777778
4	40500	397.615814158981	0.007777777778
4	40505	397.623591936759	0.014094571076
4	40510	397.649721874054	0.007777777778
4	40515	397.796396997827	0.007777777778
4	40520	397.815563787619	0.007777777778
4	40526	397.947963518112	0.007777777778
4	40531	397.984089249133	0.007777777778
4	40536	398.008013870893	0.007777777778
4	40541	398.04281576314	0.007777777778
4	40546	398.066278453519	0.007777777778
4	40551	398.089260954108	0.007777777778
4	40556	398.118052806994	0.007777777778
4	40561	398.308381054861	0.007777777778
4	40566	398.316158832639	0.009515637473
4	40571	398.332292553219	0.007777777778
4	40576	398.341591696021	0.007777777778
4	40581	398.377018372635	0.007777777778
4	40586	398.384796150413	0.007843066433
4	40591	398.408048989539	0.007777777778
4	40596	398.415826767317	0.011499548172
4	40602	398.454103503685	0.007777777778
4	40607	398.471531230183	0.007777777778
4	40612	398.536101900485	0.007777777778
4	40617	398.609058708033	0.007777777778
4	40622	398.623968980828	0.007777777778
4	40627	398.680764627794	0.007777777778
4	40632	398.696508902643	0.007777777778
4	40637	398.821195331677	0.007777777778
4	40642	398.828973109455	0.011651842684
4	40647	398.839351923293	0.007777777778
4	40652	398.867353127193	0.007777777778
4	40657	398.886070616635	0.007777777778
4	40663	399.020057466008	0.007777777778
4	40668	399.057907021696	0.007777777778
4	40673	399.21558013486	0.007777777778
4	40678	399.227952950933	0.007777777778
4	40683	399.266343518877	0.007777777778
4	40688	399.274193564579	0.007777777778
4	40693	399.363241195282	0.007777777778
4	40698	399.381109082085	0.007777777778
4	40703	399.388886859863	0.009718517366
4	40708	399.483274191143	0.007777777778
4	40713	399.491051968921	0.015153917261
4	40718	399.529644049752	0.007777777778
4	40723	399.541511520265	0.007777777778
4	40728	399.567818551819	0.007777777778
4	40733	399.621275413988	0.007777777778
4	40738	399.629504718838	0.007777777778
4	40743	399.638339786208	0.007777777778
4	40748	399.671261759874	0.007777777778
4	40753	399.679039537652	0.009799003234
4	40758	399.700415740471	0.007777777778
4	40763	399.72950725626	0.007777777778
4	40768	399.737285034038	0.013163451972
4	40773	399.779468252396	0.007777777778
4	40778	399.829496651965	0.007777777778
5	1309	12.255990568409	0.2510211155003
5	1350	12.507011683909	0.71973083914002
5	1436	13.226742523049	0.38481805605606
5	1472	13.611560579105	0.38314275829367
5	1518	13.994703337399	0.4527450572191
5	1564	14.447448394618	0.77479103671157
5	1630	15.22223943133	0.77438471616493
5	1690	15.996624147495	0.25007155228664
5	1726	16.246695699782	1.1438965506467
5	1823	17.390592250429	1.6423814367526
5	1974	19.032973687182	0.76561103369078
5	2014	19.798584720873	0.41893739336624
5	2040	20.217522114239	0.28434569450035
5	2097	20.501867808739	0.77411614616874
5	2183	21.275983954908	3.3910610638447
5	2574	24.667045018753	0.0058911080972789
5	2575	24.67293612685	0.16419360362857
5	2601	24.837129730479	1.1182615095344
5	2737	25.955391240013	0.24712852708724
5	2767	26.2025197671	0.23575304990728
5	2794	26.438272817007	0.34885782502693
5	2825	26.787130642034	2.6964812660634
5	3116	29.483611908097	0.42362352322053
5	3187	29.907235431318	0.46879594874594
5	3227	30.376031380064	4.7484691227182
5	3689	35.124500502782	1.3960171703745
5	3780	36.520517673157	0.25693917976157
5	3786	36.777456852919	1.4402817976676
5	3962	38.217738650587	3.7252852214248
5	4283	41.943023872012	2.0440702335664
5	4509	43.987094105578	0.11857177242133
5	4519	44.105665877999	0.11665874644788
5	4521	44.222324624447	0.18995552909985
5	4527	44.412280153547	0.35680635194312
5	4558	44.76908650549	1.6068124098197
5	4764	46.37589891531	0.64417753976197
5	4835	47.020076455072	2.5253742942709
5	5161	49.545450749343	1.1176016144881
5	5267	50.663052363831	0.76424199141174
5	5332	51.427294355243	0.29785691045313
5	5364	51.725151265696	0.10158733447399
5	5375	51.82673860017	1.2078179253689
5	5456	53.034556525539	0.12513509870996
5	5467	53.159691624249	1.0700250113795
5	5563	54.229716635629	0.30799173032392
5	5613	54.537708365953	0.20090242760551
5	5625	54.738610793559	1.2674982477424
5	5771	56.006109041301	0.38870090601034
5	5807	56.394809947311	0.18681429046268
5	5833	56.581624237774	2.1851350187776
5	6039	58.766759256552	4.0635124798176
5	6460	62.83027173637	0.087028647330588
5	6466	62.917300383701	0.027170244900949
5	6476	62.944470628602	1.3726444444706
5	6603	64.317115073073	0.011632017894327
5	6604	64.328747090967	0.064378585112117
5	6614	64.393125676079	2.4680603277041
5	6831	66.861186003783	1.314834062168
5	6942	68.176020065951	2.1496240712756
5	7188	70.325644137227	1.3567796590778
5	7329	71.682423796305	0.084942509723944
5	7335	71.767366306029	0.52410644787129
5	7391	72.2914727539	1.193210322528
5	7507	73.484683076428	4.7540178014899
5	7928	78.238700877918	1.1711205824039
5	8084	79.409821460322	0.60173056415621
5	8130	80.011552024478	4.0988691818775
5	8426	84.110421206356	0.21057109064301
5	8447	84.320992296999	1.0629932083383
5	8518	85.383985505337	0.43328831816711
5	8554	85.817273823504	0.21051676937727
5	8565	86.027790592881	1.2546054965035
5	8726	87.282396089385	1.6900638691482
5	8897	88.972459958533	0.44228787127242
5	8918	89.414747829805	0.45021148584795
5	8949	89.864959315653	0.052998495013298
5	8969	89.917957810666	0.040680778435761
5	8980	89.958638589102	0.37967894759556
5	9017	90.338317536698	5.5578538200963
5	9578	95.896171356794	6.7292833627546
5	10273	102.625454719549	1.1399790098276
5	10380	103.765433729377	0.33954374209219
5	10411	104.104977471469	1.3293156443167
5	10577	105.434293115786	0.61951736090136
5	10653	106.053810476687	1.0823736980885
5	10749	107.136184174775	1.3290376990236
5	10860	108.465221873799	0.396189382448
5	10891	108.861411256247	2.8766868528447
5	11172	111.738098109092	1.3110610723389
5	11313	113.049159181431	0.19286006522716
5	11324	113.242019246658	0.203053158656
5	11345	113.445072405314	0.23879207507193
5	11366	113.683864480386	0.60210715493532
5	11422	114.285971635321	0.14211396376084
5	11443	114.428085599082	0.24985691352593
5	11454	114.677942512608	0.23405435054157
5	11475	114.91199686315	0.69272314617475
5	11536	115.604720009325	5.4463395134501
5	11997	121.051059522775	1.2504444708825
5	12097	122.301503993658	0.28321981939661
5	12143	122.584723813055	0.19919707002223
5	12170	122.783920883077	0.11659354183077
5	12186	122.900514424908	2.3857095766646
5	12402	125.286224001573	0.69779846993984
5	12453	125.984022471513	0.11467902501328
5	12464	126.098701496526	0.60902998079864
5	12590	126.707731477325	1.3112446092072
5	12721	128.018976086532	1.3261036360277
5	12837	129.34507972256	1.4580743856603
5	13003	130.80315410822	0.97007012632633
5	13143	131.773224234546	0.4042955314979
5	13185	132.177519766044	0.97040437584046
5	13326	133.147924141884	1.4049373360932
5	13487	134.552861477977	0.1627220479119
5	13513	134.715583525889	1.4677937347897
5	13648	136.183377260679	0.7727848212931
5	13739	136.956162081972	0.92215814255391
5	13821	137.878320224526	0.12822804559371
5	13827	138.00654827012	0.90437012457378
5	13898	138.910918394694	0.16608471414463
5	13924	139.077003108839	2.2230883095413
5	14150	141.30009141838	0.59816171158667
5	14186	141.898253129967	0.094197951622436
5	14197	141.992451081589	0.56049277678252
5	14253	142.552943858372	0.89089499898987
5	14329	143.443838857362	1.3229893874665
5	14405	144.766828244828	0.94125008458478
5	14486	145.708078329413	0.076418464076137
5	14496	145.784496793489	0.34912317742803
5	14518	146.133619970917	0.32681913408435
5	14534	146.460439105001	1.1067759447727
5	14645	147.567215049774	0.18067544270272
5	14666	147.747890492477	2.0940022200554
5	14912	149.841892712532	0.70945572592809
5	14998	150.55134843846	0.83916674513115
5	15079	151.390515183591	0.8657191833238
5	15154	152.256234366915	1.0240769287336
5	15291	153.280311295649	1.017791838153
5	15427	154.298103133802	0.2350663069903
5	15448	154.533169440792	0.24083118310255
5	15469	154.774000623895	1.4698950179156
5	15675	156.243895641811	0.54055940343517
5	15721	156.784455045246	0.2677598417101
5	15762	157.052214886956	0.62888527670424
5	15803	157.68110016366	1.2666271171925
5	15913	158.947727280852	0.086723287437258
5	15920	159.034450568289	0.48920332135474
5	15976	159.523653889644	0.84460495474056
5	16037	160.368258844385	0.060377452112895
5	16048	160.428636296498	0.25944137923001
5	16084	160.688077675728	0.071456165594554
5	16090	160.759533841323	0.036383646386867
5	16096	160.79591748771	1.6667755614227
5	16347	162.462693049133	3.3390477205222
5	16688	165.801740769655	0.37421247808957
5	16704	166.175953247745	0.07759398524776
5	16705	166.253547232993	0.51013727365075
5	16766	166.763684506644	1.3111135779805
5	16862	168.074798084625	0.32330099223492
5	16907	168.39809907686	0.69842090858726
5	16979	169.096519985447	0.46494635376967
5	17035	169.561466339217	0.097183852127801
5	17036	169.658650191345	1.7907427398772
5	17231	171.449392931222	0.74223102431072
5	17293	172.191623955533	2.6475763240006
5	17624	174.839200279534	0.56954637458579
5	17690	175.40874665412	0.2831162391092
5	17736	175.691862893229	0.79410939861706
5	17812	176.485972291846	0.014705165765836
5	17813	176.500677457612	2.7334751607669
5	18078	179.234152618379	2.9859159719884
5	18310	182.220068590367	5.3084278693055
5	18775	187.528496459673	2.3924166773245
5	18976	189.920913136998	1.0856508750166
5	19043	191.006564012015	0.079225070279794
5	19059	191.085789082295	0.43715745686594
5	19110	191.522946539161	0.76372812661474
5	19186	192.286674665776	0.57831429874837
5	19227	192.864988964524	1.0749475368554
5	19348	193.939936501379	1.4939502811309
5	19504	195.43388678251	3.7354823051868
5	19885	199.169369087697	0.99071966041708
5	19991	200.160088748114	0.63588340380589
5	20037	200.79597215192	0.10313069175312
5	20043	200.899102843673	1.6134224948435
5	20239	202.512525338516	1.0543640124777
5	20375	203.566889350994	0.86616895456611
5	20471	204.43305830556	3.4614573194766
5	20832	207.894515625037	2.9067620201896
5	21153	210.801277645227	0.27043429625474
5	21174	211.071711941482	1.0916229685543
5	21279	212.163334910036	0.49877148758423
5	21341	212.66210639762	0.05835693576517
5	21352	212.720463333385	0.086282784350885
5	21358	212.806746117736	0.35363410730599
5	21413	213.160380225042	1.7347222606292
5	21615	214.895102485671	0.40105605508614
5	21685	215.296158540757	0.34178113375048
5	21712	215.637939674507	0.17357184639461
5	21723	215.811511520902	0.17912437309083
5	21734	215.990635893993	0.017677593251316
5	21735	216.008313487244	0.17809256556641
5	21751	216.18640605281	1.653311815023
5	21936	217.839717867833	0.32567985661372
5	21978	218.165397724447	0.37140334626567
5	22013	218.536801070713	0.007087578950863
5	22015	218.543888649664	1.484480817503
5	22156	220.028369467167	1.3813291188892
5	22337	221.409698586056	0.15643060158827
5	22383	221.566129187644	1.9228816260239
5	22626	223.489010813668	0.23067870151807
5	22655	223.719689515186	2.5996770810585
5	22861	226.319366596245	0.33836576690727
5	22907	226.657732363152	0.35974380885872
5	22963	227.017476172011	0.89075496823384
5	23069	227.908231140245	0.6427019330951
5	23120	228.55093307334	2.1675065175744
5	23326	230.718439590914	1.3482877197275
5	23446	232.066727310641	0.10616401935073
5	23463	232.172891329992	1.0516444174534
5	23584	233.224535747445	1.5802135549697
5	23785	234.804749302415	0.31145266369178
5	23840	235.116201966107	1.1051280547355
5	24002	236.221330020842	0.49310240771337
5	24072	236.714432428555	2.1429668423554
5	24334	238.85739927091	2.3564172315582
5	24605	241.213816502468	0.073915822626002
5	24626	241.287732325094	1.312457346544
5	24772	242.600189671638	0.1431137039986
5	24773	242.743303375637	0.079309625400128
5	24783	242.822613001037	0.064414262611027
5	24785	242.887027263648	0.23102234705677
5	24811	243.118049610705	1.422750118359
5	24922	244.540799729064	2.1921031603278
5	25133	246.732902889392	0.60402481566961
5	25204	247.336927705062	0.53222820172884
5	25265	247.869155906791	0.19549133568673
5	25281	248.064647242478	0.22879825595752
5	25302	248.293445498436	0.83663214813745
5	25418	249.130077646573	0.42607304566723
5	25464	249.55615069224	2.3085129117325
5	25680	251.864663603973	0.53136668968068
5	25725	252.396030293654	1.438972032022
5	25851	253.835002325676	1.4076589974738
5	25983	255.24266132315	1.1647267296343
5	26064	256.407388052784	0.14281325699937
5	26075	256.550201309783	0.0095387296950683
5	26076	256.559740039478	1.9297886139233
5	26281	258.489528653401	0.53441773422208
5	26323	259.023946387623	0.47772645837287
5	26364	259.501672845996	0.65320706235648
5	26470	260.154879908352	0.64794058846376
5	26506	260.802820496816	0.26289690485511
5	26526	261.065717401671	0.13943874640802
5	26543	261.205156148079	0.71673842606195
5	26639	261.921894574141	0.31772538971147
5	26685	262.239619963852	0.57291313926889
5	26736	262.812533103121	2.9157751847404
5	27032	265.728308287861	0.97524953030525
5	27128	266.703557818166	0.64313020155372
5	27199	267.34668801972	0.05708858732735
5	27210	267.403776607047	0.16537786079496
5	27211	267.569154467842	0.30379643453538
5	27232	267.872950902377	0.80329029789152
5	27303	268.676241200269	0.87439728328657
5	27394	269.550638483556	0.96934665184892
5	27500	270.519985135405	0.82417051929022
5	27585	271.344155654695	1.8906515511837
5	27807	273.234807205879	2.706138699367
5	28102	275.940945905246	0.55961123150831
5	28188	276.500557136754	2.469489796123
5	28465	278.970046932877	3.1721580781719
5	28756	282.142205011049	1.9810765856474
5	28977	284.123281596696	0.21777100867869
5	28988	284.341052605375	2.1438816286045
5	29234	286.48493423398	0.72688866550123
5	29270	287.211822899481	0.42805871049596
5	29316	287.639881609977	0.51348617570551
5	29357	288.153367785683	0.32728496604846
5	29413	288.480652751731	0.32686149111803
5	29444	288.807514242849	0.39463509383969
5	29475	289.202149336689	0.926567084344
5	29606	290.128716421033	0.90458475152643
5	29697	291.033301172559	0.083025599434065
5	29698	291.116326771993	1.5411505494567
5	29839	292.65747732145	0.68348978455801
5	29930	293.340967106008	0.23893124948178
5	29936	293.57989835549	0.64259092677605
5	30012	294.222489282266	1.626646921404
5	30208	295.84913620367	1.3310694722633
5	30349	297.180205675933	0.021384813618576
5	30350	297.201590489552	0.34737023467456
5	30381	297.548960724227	0.29986676567427
5	30432	297.848827489901	0.24473609028852
5	30458	298.09356358019	0.46869821272743
5	30504	298.562261792917	0.23014376650186
5	30525	298.792405559419	0.13403582435067
5	30546	298.92644138377	4.0201851392124
5	30907	302.946626522982	1.482967902512
5	31058	304.429594425494	0.60316700239117
5	31149	305.032761427885	0.043229424313242
5	31155	305.075990852198	3.1865288927383
5	31451	308.262519744936	0.57919450625952
5	31562	308.841714251196	2.2643895094518
5	31788	311.106103760648	0.67786003671218
5	31833	311.78396379736	0.58143951712357
5	31892	312.365403314484	1.3255522926184
5	32036	313.690955607102	0.52756831701415
5	32092	314.218523924116	1.535255300206
5	32293	315.753779224322	1.0816494846735
5	32374	316.835428708995	0.61610929870905
5	32425	317.451538007704	2.7178178906438
5	32726	320.169355898348	0.25908218950125
5	32771	320.428438087849	1.6323840490132
5	32987	322.060822136862	2.217043622494
5	33209	324.277865759356	0.64335810009153
5	33310	324.921223859448	0.098884116800226
5	33331	325.020107976248	0.68110717550828
5	33417	325.701215151756	1.0469453295565
5	33508	326.748160481312	0.29490141707202
5	33544	327.043061898384	0.36944709594871
5	33575	327.412508994333	0.9352038517903
5	33711	328.347712846123	1.1664768344079
5	33797	329.514189680531	0.065359200502463
5	33803	329.579548881033	0.26425734682488
5	33844	329.843806227858	0.84740258510031
5	33900	330.691208812958	0.78218206315009
5	34006	331.473390876108	0.095937546944666
5	34007	331.569328423053	0.66959495790424
5	34068	332.238923380957	0.73508259619199
5	34114	332.974005977149	2.0655366779212
5	34260	335.03954265507	0.91043890161315
5	34336	335.949981556683	0.1418943632551
5	34357	336.091875919938	1.4812266416826
5	34493	337.573102561621	0.13219640114141
5	34499	337.705298962762	0.74467635952186
5	34550	338.449975322284	0.4533298859922
5	34586	338.903305208276	1.0196397612912
5	34682	339.922944969567	0.75286356321204
5	34758	340.675808532779	0.77732669399249
5	34849	341.453135226771	0.78260813141367
5	34940	342.235743358185	0.30867752890847
5	34956	342.544420887093	0.055856512215394
5	34962	342.600277399308	0.37248278513803
5	34998	342.972760184446	0.96151008541758
5	35064	343.934270269864	0.58531775580985
5	35115	344.519588025674	0.14732505998194
5	35126	344.666913085656	0.47296295578254
5	35152	345.139876041439	0.56455735228139
5	35183	345.70443339372	0.83775310284546
5	35293	346.542186496565	5.1186202552688
5	35830	351.660806751834	0.53251783033599
5	35875	352.19332458217	0.36419192694113
5	35917	352.557516509111	3.0661961035861
5	36203	355.623712612697	0.34453731356419
5	36239	355.968249926261	0.90802254197791
5	36335	356.876272468239	1.7056881366726
5	36486	358.581960604912	0.6426176270772
5	36567	359.224578231989	0.55540309659568
5	36607	359.779981328585	5.4035748641953
5	37249	365.18355619278	0.33746507965363
5	37285	365.521021272434	0.25540047422128
5	37311	365.776421746655	0.97853646884457
5	37387	366.7549582155	0.60572594650062
5	37503	367.360684162001	0.17791006167193
5	37529	367.538594223673	0.56951049109386
5	37570	368.108104714767	0.77464422323152
5	37655	368.882748937999	1.4294424439047
5	37797	370.312191381904	1.982555947525
5	37998	372.294747329429	0.84754897337514
5	38084	373.142296302804	1.2697423856915
5	38230	374.412038688495	1.1649321849903
5	38331	375.576970873485	0.58567808165008
5	38402	376.162648955135	0.53098825652493
5	38438	376.69363721166	2.8888895166766
5	38753	379.582526728337	0.24516299354425
5	38790	379.827689721881	1.8649954390787
5	38951	381.69268516096	0.15883952128709
5	38961	381.851524682247	3.861845968862
5	39363	385.713370651109	0.29397499865067
5	39389	386.00734564976	0.94488137137003
5	39474	386.95222702113	0.50404201480016
5	39506	387.45626903593	0.54491990620262
5	39562	388.001188942133	0.070898977255402
5	39573	388.072087919388	0.4469950770092
5	39644	388.519082996397	1.6096061446289
5	39810	390.128689141026	0.43334878194583
5	39841	390.562037922972	0.07120415309104
5	39847	390.633242076063	3.8088588809227
5	40168	394.442100956986	0.038008818211962
5	40179	394.480109775198	0.25776851857886
5	40200	394.737878293777	0.22226179225025
5	40226	394.960140086027	0.89623150264702
5	40307	395.856371588674	0.2513890267419
5	40318	396.107760615416	0.1692278532949
5	40329	396.276988468711	0.30741679660505
5	40379	396.584405265316	0.72742776759797
5	40471	397.311833032914	0.014615787255572
5	40472	397.32644882017	0.60479454392062
5	40523	397.931243364091	0.48652905427001
5	40598	398.417772418361	0.57971592687341
5	40660	398.997488345234	1.1479558082601

