file 1451098 1612888992                                         
version 2
run Non-monitoring-8-20210209-17:43:12-26720
attr configname Non-monitoring
attr datetime 20210209-17:43:12
attr experiment Non-monitoring
attr inifile aerocom.ini
attr iterationvars ""
attr iterationvarsf ""
attr measurement ""
attr network Aerocom
attr processid 26720
attr repetition 8
attr replication #8
attr resultdir results
attr runnumber 8
attr seedset 8
param **.t 1s
param **.k 50ms
param **.nA 1
param **.nDL 1
param **.s "70 byte"
param **.X 0s
param **.dimPoolMax 9000
param **.dimPoolMin 9000
param **.tDistribution "\"exponential\""
param **.m 1s
param **.DLMaxCapacity 0
param **.trasmitting false
param **.operationMode 1

vector 0 Aerocom.aircraft[0].packetGenerator arrivalTime:vector ETV
attr "" ""
attr source computeArrivalTime
vector 1 Aerocom.aircraft[0].dataLink[0] queueLength:vector ETV
attr "" ""
attr source computeQueueLength
vector 2 Aerocom.aircraft[0].dataLink[0] waitingTime:vector ETV
attr "" ""
attr source computeWaitingTime
vector 3 Aerocom.aircraft[0].dataLink[0] serviceTime:vector ETV
attr "" ""
attr source computeServiceTime
vector 4 Aerocom.aircraft[0].dataLink[0] responseTime:vector ETV
attr "" ""
attr source computeResponseTime
vector 5 Aerocom.aircraft[0].dataLink[0] tDistribution:vector ETV
attr "" ""
attr source computeTDistribution
0	1345 317500 832 40584 10.105600204358 399.963918388118 7876 1.0936495e-005 0.493843544015 389.9087709732 38.694933738914
1	318845 216005 834 40586 10.105600204358 399.963918388118 7876 0 2 110 126
2	534850 232177 834 40586 10.105600204358 399.963918388118 7876 0 0.021804679109 5.711371020808 0.037674688794298
3	767027 349926 834 40586 10.105600204358 399.963918388118 7876 0.0077777777777778 0.0077777777777778 61.257777777771 0.47644938271609
4	1116953 318280 834 40586 10.105600204358 399.963918388118 7876 0.007777777778 0.029582456887 66.969148800344 0.60296762075271
5	1435233 15863 937 40493 10.969592515027 399.161606058043 377 0.0050570753659368 5.7162526646056 389.05466542537 799.68278969804

