version 2
run Non-monitoring-7-20210209-17:43:12-29952
attr configname Non-monitoring
attr datetime 20210209-17:43:12
attr experiment Non-monitoring
attr inifile aerocom.ini
attr iterationvars ""
attr iterationvarsf ""
attr measurement ""
attr network Aerocom
attr processid 29952
attr repetition 7
attr replication #7
attr resultdir results
attr runnumber 7
attr seedset 7
param **.t 1s
param **.k 50ms
param **.nA 1
param **.nDL 1
param **.s "70 byte"
param **.X 0s
param **.dimPoolMax 9000
param **.dimPoolMin 9000
param **.tDistribution "\"exponential\""
param **.m 1s
param **.DLMaxCapacity 0
param **.trasmitting false
param **.operationMode 1

vector 0 Aerocom.aircraft[0].packetGenerator arrivalTime:vector ETV
attr "" ""
attr source computeArrivalTime
vector 1 Aerocom.aircraft[0].dataLink[0] queueLength:vector ETV
attr "" ""
attr source computeQueueLength
vector 2 Aerocom.aircraft[0].dataLink[0] waitingTime:vector ETV
attr "" ""
attr source computeWaitingTime
vector 3 Aerocom.aircraft[0].dataLink[0] serviceTime:vector ETV
attr "" ""
attr source computeServiceTime
vector 4 Aerocom.aircraft[0].dataLink[0] responseTime:vector ETV
attr "" ""
attr source computeResponseTime
vector 5 Aerocom.aircraft[0].dataLink[0] tDistribution:vector ETV
attr "" ""
attr source computeTDistribution
0	1054	10.024981857526	0.081662208834
0	1059	10.10664406636	0.062300541257
0	1064	10.168944607617	0.11492671726
0	1069	10.283871324877	0.008171528924
0	1074	10.292042853801	0.017536231344
0	1079	10.309579085145	0.047694902736
0	1084	10.357273987881	0.012851452682
0	1089	10.370125440563	0.008176029448
0	1094	10.378301470011	0.105214354261
0	1099	10.483515824272	0.030969955225
0	1104	10.514485779497	0.026562628608
0	1109	10.541048408105	0.196263726211
0	1114	10.737312134316	0.006888995993
0	1118	10.744201130309	0.092741084728
0	1124	10.836942215037	0.108273110301
0	1129	10.945215325338	0.058868943178
0	1134	11.004084268516	0.012300415105
0	1139	11.016384683621	0.031069140888
0	1144	11.047453824509	0.047578710529
0	1149	11.095032535038	0.124309546022
0	1155	11.21934208106	0.029232974613
0	1160	11.248575055673	0.065944400886
0	1165	11.314519456559	0.069955944316
0	1171	11.384475400875	0.000105135634
0	1175	11.384580536509	0.030578268222
0	1181	11.415158804731	0.055878938664
0	1186	11.471037743395	0.001865155016
0	1190	11.472902898411	0.043225969355
0	1197	11.516128867766	0.054049966058
0	1202	11.570178833824	0.032600792397
0	1207	11.602779626221	0.021156535741
0	1213	11.623936161962	0.028645614104
0	1218	11.652581776066	0.074303640917
0	1223	11.726885416983	0.022573577057
0	1228	11.74945899404	0.054781096955
0	1233	11.804240090995	0.016713761474
0	1238	11.820953852469	0.027123465459
0	1243	11.848077317928	0.073926074246
0	1248	11.922003392174	0.050977316242
0	1253	11.972980708416	0.062907149791
0	1258	12.035887858207	0.021927291374
0	1263	12.057815149581	0.008886460611
0	1268	12.066701610192	0.027709310768
0	1273	12.09441092096	0.071503487376
0	1279	12.165914408336	0.165136974361
0	1284	12.331051382697	0.077048832523
0	1290	12.40810021522	0.024959394311
0	1295	12.433059609531	0.067086435465
0	1300	12.500146044996	0.019102795161
0	1305	12.519248840157	0.012990476228
0	1310	12.532239316385	0.024466056992
0	1315	12.556705373377	0.020039662939
0	1320	12.576745036316	0.077057708891
0	1325	12.653802745207	0.016157326487
0	1330	12.669960071694	0.018610100407
0	1335	12.688570172101	0.113942649128
0	1340	12.802512821229	0.184090880411
0	1345	12.98660370164	0.129595154628
0	1350	13.116198856268	0.034979700685
0	1355	13.151178556953	0.048192125612
0	1360	13.199370682565	0.162672753787
0	1366	13.362043436352	0.007500671482
0	1370	13.369544107834	0.034821158224
0	1376	13.404365266058	0.007397692426
0	1380	13.411762958484	0.001851566002
0	1385	13.413614524486	0.022774906562
0	1391	13.436389431048	0.039961445511
0	1396	13.476350876559	0.006134916462
0	1400	13.482485793021	0.000426086163
0	1403	13.482911879184	0.035854853256
0	1411	13.51876673244	0.017568195637
0	1416	13.536334928077	0.015011770831
0	1421	13.551346698908	0.067080137385
0	1426	13.618426836293	0.005853545966
0	1430	13.624280382259	0.058223428464
0	1436	13.682503810723	0.010419770136
0	1441	13.692923580859	0.082547309369
0	1446	13.775470890228	0.019575089865
0	1451	13.795045980093	0.014617597527
0	1456	13.80966357762	0.054761770853
0	1461	13.864425348473	0.061137342044
0	1466	13.925562690517	0.018695354948
0	1471	13.944258045465	0.017457060484
0	1476	13.961715105949	0.037111488759
0	1481	13.998826594708	0.028354926399
0	1486	14.027181521107	0.020305896993
0	1491	14.0474874181	0.052235034512
0	1496	14.099722452612	0.004624126295
0	1500	14.104346578907	0.092046616181
0	1506	14.196393195088	0.004621433389
0	1510	14.201014628477	0.027725539808
0	1516	14.228740168285	0.014537196181
0	1521	14.243277364466	0.033133726678
0	1526	14.276411091144	0.012311586043
0	1531	14.288722677187	0.065709978898
0	1536	14.354432656085	0.003237017136
0	1540	14.357669673221	0.042385684069
0	1546	14.40005535729	0.075203710368
0	1551	14.475259067658	0.016736655034
0	1556	14.491995722692	0.034272060472
0	1561	14.526267783164	0.03178299207
0	1566	14.558050775234	0.016027526634
0	1571	14.574078301868	0.013559500383
0	1576	14.587637802251	0.082992712518
0	1581	14.670630514769	0.013593440207
0	1586	14.684223954976	0.020600029546
0	1591	14.704823984522	0.046661029111
0	1596	14.751485013633	0.01088357687
0	1601	14.762368590503	0.020596351825
0	1606	14.782964942328	0.020925234311
0	1611	14.803890176639	0.009591088126
0	1616	14.813481264765	0.055854576705
0	1621	14.86933584147	0.006748249458
0	1625	14.876084090928	0.016641953472
0	1631	14.8927260444	0.023703137409
0	1636	14.916429181809	0.015438861636
0	1641	14.931868043445	0.008345736074
0	1646	14.940213779519	0.106490940188
0	1651	15.046704719707	0.021833752452
0	1656	15.068538472159	0.038731956339
0	1661	15.107270428498	0.011245043399
0	1667	15.118515471897	0.068083040788
0	1672	15.186598512685	0.043903276047
0	1677	15.230501788732	0.114045343466
0	1682	15.344547132198	0.00276257127
0	1686	15.347309703468	0.016007583737
0	1692	15.363317287205	0.020820988405
0	1697	15.38413827561	0.038117952549
0	1702	15.422256228159	0.040316078224
0	1707	15.462572306383	0.00714697212
0	1711	15.469719278503	0.008807662209
0	1717	15.478526940712	0.163318279374
0	1722	15.641845220086	0.023161828068
0	1728	15.665007048154	0.083687069086
0	1733	15.74869411724	0.060046517611
0	1738	15.808740634851	0.052692797577
0	1743	15.861433432428	0.069056004353
0	1748	15.930489436781	0.011298467469
0	1753	15.94178790425	0.033425840162
0	1758	15.975213744412	0.17671838355
0	1763	16.151932127962	0.113621342564
0	1770	16.265553470526	0.001809140636
0	1774	16.267362611162	0.019350258235
0	1780	16.286712869397	0.02751595154
0	1785	16.314228820937	0.015321427071
0	1790	16.329550248008	0.144491412397
0	1795	16.474041660405	0.14371142107
0	1800	16.617753081475	0.019225050394
0	1805	16.636978131869	0.092928856197
0	1810	16.729906988066	0.07500996271
0	1815	16.804916950776	0.081642810915
0	1820	16.886559761691	0.184627520085
0	1825	17.071187281776	0.007844941156
0	1830	17.079032222932	0.060522115762
0	1835	17.139554338694	0.146246410511
0	1840	17.285800749205	0.018014721999
0	1845	17.303815471204	0.091895825708
0	1850	17.395711296912	0.173149236713
0	1855	17.568860533625	0.033131518143
0	1860	17.601992051768	0.025185317241
0	1866	17.627177369009	0.060402280022
0	1871	17.687579649031	0.151113120636
0	1876	17.838692769667	0.005641786627
0	1880	17.844334556294	0.006928979105
0	1885	17.851263535399	0.02294878069
0	1891	17.874212316089	0.138281980786
0	1896	18.012494296875	0.163233728794
0	1901	18.175728025669	0.070756925532
0	1906	18.246484951201	0.067401713302
0	1911	18.313886664503	0.002360832421
0	1915	18.316247496924	0.010776645936
0	1920	18.32702414286	0.054364651645
0	1926	18.381388794505	0.013417888306
0	1931	18.394806682811	0.012846084724
0	1936	18.407652767535	0.046599956242
0	1941	18.454252723777	0.036641266459
0	1946	18.490893990236	0.006071438641
0	1950	18.496965428877	0.035736450242
0	1956	18.532701879119	0.002156856567
0	1960	18.534858735686	0.005688787403
0	1965	18.540547523089	0.010655487048
0	1970	18.551203010137	0.084387118122
0	1976	18.635590128259	0.005459126935
0	1980	18.641049255194	0.164108118726
0	1986	18.80515737392	0.015023740814
0	1991	18.820181114734	0.044443797903
0	1996	18.864624912637	0.094064523782
0	2001	18.958689436419	0.025896879947
0	2006	18.984586316366	0.075606555402
0	2011	19.060192871768	0.053337805009
0	2016	19.113530676777	0.072384269792
0	2021	19.185914946569	0.025187661085
0	2026	19.211102607654	0.012358819182
0	2031	19.223461426836	0.045220463803
0	2036	19.268681890639	0.006627835393
0	2040	19.275309726032	0.028340984683
0	2046	19.303650710715	0.193444104851
0	2051	19.497094815566	0.008295038504
0	2056	19.50538985407	0.011098080503
0	2061	19.516487934573	0.09637746901
0	2066	19.612865403583	0.051240885364
0	2071	19.664106288947	0.022262356544
0	2076	19.686368645491	0.036630544425
0	2081	19.722999189916	0.005396553453
0	2085	19.728395743369	0.094776887602
0	2092	19.823172630971	0.001898065498
0	2096	19.825070696469	0.122651080965
0	2102	19.947721777434	0.030434083853
0	2107	19.978155861287	0.047548843345
0	2112	20.025704704632	0.006856801984
0	2116	20.032561506616	0.227259630241
0	2122	20.259821136857	0.060825053873
0	2127	20.32064619073	0.006453314403
0	2131	20.327099505133	0.003274752183
0	2136	20.330374257316	0.11224821839
0	2142	20.442622475706	0.000151776357
0	2146	20.442774252063	0.099295161312
0	2152	20.542069413375	0.004668821578
0	2156	20.546738234953	0.013222887822
0	2162	20.559961122775	0.081959373403
0	2167	20.641920496178	0.017570726862
0	2172	20.65949122304	0.060397442824
0	2177	20.719888665864	0.02129943801
0	2182	20.741188103874	0.098323577107
0	2187	20.839511680981	9.4539575e-005
0	2191	20.839606220556	0.080885310462
0	2197	20.920491531018	0.065321767775
0	2202	20.985813298793	0.012980038577
0	2207	20.99879333737	0.014005639549
0	2212	21.012798976919	0.035534441683
0	2217	21.048333418602	0.137079362904
0	2222	21.185412781506	0.038888413378
0	2227	21.224301194884	0.028526567851
0	2232	21.252827762735	0.017386228514
0	2237	21.270213991249	0.036178973745
0	2242	21.306392964994	0.023039522039
0	2247	21.329432487033	0.004690694216
0	2251	21.334123181249	0.015753622109
0	2257	21.349876803358	0.020440510567
0	2262	21.370317313925	0.004897920905
0	2266	21.37521523483	0.010635163
0	2271	21.38585039783	0.069945083841
0	2277	21.455795481671	0.065950319108
0	2282	21.521745800779	0.065565039572
0	2287	21.587310840351	0.035457987436
0	2292	21.622768827787	0.000181600781
0	2296	21.622950428568	0.023317187102
0	2302	21.64626761567	0.013697467917
0	2307	21.659965083587	0.09680719893
0	2312	21.756772282517	0.015716180915
0	2317	21.772488463432	0.033818469375
0	2322	21.806306932807	0.078428175018
0	2327	21.884735107825	0.023973506305
0	2332	21.90870861413	0.035406370288
0	2337	21.944114984418	0.014389331922
0	2342	21.95850431634	0.031338632005
0	2347	21.989842948345	0.067787770535
0	2352	22.05763071888	0.015250578005
0	2357	22.072881296885	0.020365967793
0	2362	22.093247264678	0.046210051966
0	2367	22.139457316644	0.176722678108
0	2372	22.316179994752	0.104403776977
0	2377	22.420583771729	0.00367045725
0	2381	22.424254228979	0.250228887599
0	2387	22.674483116578	0.024839352574
0	2392	22.699322469152	0.001363729029
0	2396	22.700686198181	0.049169215795
0	2402	22.749855413976	0.037185137023
0	2407	22.787040550999	0.043086833519
0	2412	22.830127384518	0.002227334273
0	2416	22.832354718791	0.110147915617
0	2422	22.942502634408	0.092787292309
0	2427	23.035289926717	0.137783598605
0	2432	23.173073525322	0.050848473204
0	2437	23.223921998526	0.069687450199
0	2442	23.293609448725	0.025205249975
0	2447	23.3188146987	0.041953146437
0	2452	23.360767845137	0.018332928023
0	2457	23.37910077316	0.022313935901
0	2462	23.401414709061	0.003165327995
0	2466	23.404580037056	0.053882449129
0	2472	23.458462486185	0.113431193368
0	2477	23.571893679553	0.058452568587
0	2482	23.63034624814	0.120778691126
0	2487	23.751124939266	0.027048804399
0	2492	23.778173743665	0.150740460315
0	2497	23.92891420398	0.118064244328
0	2502	24.046978448308	0.12610505701
0	2507	24.173083505318	0.024465541156
0	2512	24.197549046474	0.001616005551
0	2516	24.199165052025	0.026997232485
0	2522	24.22616228451	0.104431580754
0	2527	24.330593865264	0.123360667344
0	2532	24.453954532608	0.002155817144
0	2536	24.456110349752	0.001318854501
0	2539	24.457429204253	0.197199491479
0	2547	24.654628695732	0.044926029236
0	2552	24.699554724968	0.071116507291
0	2557	24.770671232259	0.070013184752
0	2562	24.840684417011	0.112519934171
0	2567	24.953204351182	0.029282473127
0	2572	24.982486824309	0.069644368453
0	2577	25.052131192762	0.038441743227
0	2582	25.090572935989	0.118305664724
0	2587	25.208878600713	0.02734261577
0	2592	25.236221216483	0.067520442011
0	2597	25.303741658494	0.011931627994
0	2602	25.315673286488	0.117734435583
0	2607	25.433407722071	0.07561250449
0	2612	25.509020226561	0.001412257671
0	2616	25.510432484232	0.00124318414
0	2619	25.511675668372	0.056989190161
0	2628	25.568664858533	0.036200678263
0	2633	25.604865536796	0.093649082214
0	2638	25.69851461901	0.039332717733
0	2643	25.737847336743	0.109232758251
0	2648	25.847080094994	0.118372249596
0	2653	25.96545234459	0.002135218524
0	2657	25.967587563114	0.202655755422
0	2663	26.170243318536	0.032530368125
0	2668	26.202773686661	0.002049383013
0	2672	26.204823069674	0.043713128738
0	2678	26.248536198412	0.013323776815
0	2683	26.261859975227	0.012572803353
0	2688	26.27443277858	0.004218075819
0	2692	26.278650854399	0.02825285159
0	2698	26.306903705989	0.05693691986
0	2703	26.363840625849	0.090705816603
0	2708	26.454546442452	0.032800275455
0	2713	26.487346717907	0.192729304772
0	2718	26.680076022679	0.035814620102
0	2723	26.715890642781	0.055246993121
0	2728	26.771137635902	0.039314884868
0	2733	26.81045252077	0.125174767749
0	2738	26.935627288519	0.044677797083
0	2743	26.980305085602	0.007864592881
0	2748	26.988169678483	0.115660691409
0	2753	27.103830369892	0.030020413106
0	2758	27.133850782998	0.060806909003
0	2763	27.194657692001	0.004586520534
0	2767	27.199244212535	0.026780938221
0	2773	27.226025150756	0.010099334637
0	2778	27.236124485393	0.011566796127
0	2783	27.24769128152	0.038612300406
0	2788	27.286303581926	0.029663312074
0	2793	27.315966894	0.056721285281
0	2798	27.372688179281	0.004344832232
0	2802	27.377033011513	0.015835809486
0	2808	27.392868820999	0.043328009295
0	2813	27.436196830294	0.051139273478
0	2818	27.487336103772	0.046454596252
0	2823	27.533790700024	0.105940311787
0	2828	27.639731011811	0.438551869882
0	2836	28.078282881693	0.070028110623
0	2841	28.148310992316	0.03789843805
0	2846	28.186209430366	0.042240995405
0	2851	28.228450425771	0.007690021787
0	2855	28.236140447558	0.061249532326
0	2861	28.297389979884	0.043810621461
0	2866	28.341200601345	0.020096148768
0	2871	28.361296750113	0.020112619365
0	2876	28.381409369478	0.047902218583
0	2881	28.429311588061	0.026597089202
0	2886	28.455908677263	0.058938195504
0	2891	28.514846872767	0.066934264269
0	2896	28.581781137036	0.002319537387
0	2900	28.584100674423	0.002621091857
0	2903	28.58672176628	0.001866350887
0	2906	28.588588117167	0.042336986289
0	2916	28.630925103456	0.021109382951
0	2921	28.652034486407	0.125876197622
0	2926	28.777910684029	0.08313288775
0	2931	28.861043571779	0.045090253898
0	2936	28.906133825677	0.027701779733
0	2941	28.93383560541	0.021326165644
0	2946	28.955161771054	0.099058788381
0	2951	29.054220559435	0.056374918481
0	2956	29.110595477916	0.017350633588
0	2961	29.127946111504	0.034935641662
0	2966	29.162881753166	0.018164460724
0	2971	29.18104621389	0.008312817941
0	2976	29.189359031831	0.107087949197
0	2981	29.296446981028	0.018602815409
0	2986	29.315049796437	0.023831155237
0	2991	29.338880951674	0.044091251048
0	2996	29.382972202722	0.035380937813
0	3001	29.418353140535	0.187685481675
0	3006	29.60603862221	0.079385501696
0	3011	29.685424123906	0.071752732364
0	3016	29.75717685627	0.020475243493
0	3021	29.777652099763	0.064424180329
0	3026	29.842076280092	0.000249003159
0	3030	29.842325283251	0.022929879343
0	3036	29.865255162594	0.043998092846
0	3041	29.90925325544	0.163981302979
0	3046	30.073234558419	0.021512020145
0	3051	30.094746578564	0.008622829908
0	3056	30.103369408472	0.030247550973
0	3061	30.133616959445	0.025607018881
0	3066	30.159223978326	0.017303108646
0	3071	30.176527086972	0.010667302172
0	3076	30.187194389144	0.053291122048
0	3081	30.240485511192	0.183708991602
0	3086	30.424194502794	0.033831777408
0	3091	30.458026280202	0.082778763612
0	3096	30.540805043814	0.084858269153
0	3101	30.625663312967	0.006735576206
0	3105	30.632398889173	0.022591876039
0	3111	30.654990765212	0.102417499996
0	3116	30.757408265208	0.013915802054
0	3121	30.771324067262	0.028277636885
0	3126	30.799601704147	0.037906149322
0	3131	30.837507853469	0.002926104673
0	3135	30.840433958142	0.073016854354
0	3141	30.913450812496	0.0501912919
0	3146	30.963642104396	0.137001743312
0	3151	31.100643847708	0.081461527327
0	3156	31.182105375035	0.015222773302
0	3161	31.197328148337	0.045293568227
0	3166	31.242621716564	0.003548643923
0	3170	31.246170360487	0.0122810117
0	3176	31.258451372187	0.024192587459
0	3181	31.282643959646	0.020226312783
0	3186	31.302870272429	0.068111847688
0	3191	31.370982120117	0.002279073105
0	3195	31.373261193222	0.046233875989
0	3201	31.419495069211	0.042299907238
0	3206	31.461794976449	0.072622873555
0	3211	31.534417850004	0.057709231051
0	3216	31.592127081055	0.036120748184
0	3221	31.628247829239	0.01929209739
0	3226	31.647539926629	0.020270646234
0	3231	31.667810572863	0.094234722093
0	3236	31.762045294956	0.048606202742
0	3242	31.810651497698	0.007281403278
0	3246	31.817932900976	0.069370000855
0	3252	31.887302901831	0.017317572929
0	3257	31.90462047476	0.049906390474
0	3262	31.954526865234	0.003993048844
0	3266	31.958519914078	0.001088652048
0	3269	31.959608566126	0.004050995156
0	3274	31.963659561282	0.019962341792
0	3281	31.983621903074	0.02975035951
0	3287	32.013372262584	0.030351747437
0	3292	32.043724010021	0.028027584872
0	3297	32.071751594893	0.020760076168
0	3302	32.092511671061	0.07107306352
0	3307	32.163584734581	0.008338081138
0	3312	32.171922815719	0.038605564549
0	3317	32.210528380268	0.056293333544
0	3322	32.266821713812	0.025453870411
0	3327	32.292275584223	0.000796581057
0	3331	32.29307216528	0.062113916609
0	3337	32.355186081889	0.032941150956
0	3342	32.388127232845	0.010350646626
0	3347	32.398477879471	0.001570124458
0	3351	32.400048003929	0.028855599184
0	3357	32.428903603113	0.018269384109
0	3362	32.447172987222	0.083355971817
0	3367	32.530528959039	0.163234651366
0	3373	32.693763610405	0.089502133496
0	3378	32.783265743901	0.136088359589
0	3383	32.91935410349	0.025980103743
0	3388	32.945334207233	0.02729442177
0	3393	32.972628629003	0.057157511264
0	3398	33.029786140267	0.006482550368
0	3402	33.036268690635	0.000175337276
0	3405	33.036444027911	0.148817278207
0	3413	33.185261306118	0.021434037101
0	3418	33.206695343219	0.146282384112
0	3424	33.352977727331	0.003221750878
0	3428	33.356199478209	0.022925860331
0	3434	33.37912533854	0.036478370267
0	3439	33.415603708807	0.002730177882
0	3443	33.418333886689	0.127518158346
0	3449	33.545852045035	0.006621741969
0	3453	33.552473787004	0.086597044227
0	3459	33.639070831231	0.113834138264
0	3464	33.752904969495	0.029088338767
0	3469	33.781993308262	0.004310617864
0	3473	33.786303926126	0.002336419619
0	3476	33.788640345745	0.02768823303
0	3484	33.816328578775	0.129881846845
0	3489	33.94621042562	0.01640460559
0	3494	33.96261503121	0.007520577041
0	3498	33.970135608251	0.012769527096
0	3504	33.982905135347	0.037512763287
0	3509	34.020417898634	0.00477941947
0	3513	34.025197318104	0.221150524485
0	3519	34.246347842589	5.209035e-005
0	3523	34.246399932939	0.056924064314
0	3529	34.303323997253	0.009175828627
0	3534	34.31249982588	0.054673958356
0	3539	34.367173784236	0.046458527904
0	3544	34.41363231214	0.008969533408
0	3549	34.422601845548	0.019977116627
0	3554	34.442578962175	0.013091942279
0	3559	34.455670904454	0.060733543965
0	3564	34.516404448419	0.011404524669
0	3569	34.527808973088	0.030328629563
0	3574	34.558137602651	0.00634055508
0	3578	34.564478157731	0.063161347972
0	3584	34.627639505703	0.053472455025
0	3589	34.681111960728	0.010659130431
0	3594	34.691771091159	0.009217477766
0	3599	34.700988568925	0.012859756696
0	3604	34.713848325621	0.013680674208
0	3609	34.727528999829	0.144223320468
0	3614	34.871752320297	0.184453909694
0	3619	35.056206229991	0.121252907069
0	3624	35.17745913706	0.019072486282
0	3629	35.196531623342	0.042492960326
0	3634	35.239024583668	0.019314085142
0	3639	35.25833866881	0.192973914447
0	3644	35.451312583257	0.030209309809
0	3649	35.481521893066	0.100488437081
0	3654	35.582010330147	0.127859711596
0	3659	35.709870041743	0.104479227551
0	3664	35.814349269294	0.021337442359
0	3669	35.835686711653	0.037450636478
0	3674	35.873137348131	0.132703494814
0	3679	36.005840842945	0.006195773952
0	3683	36.012036616897	0.113972941958
0	3689	36.126009558855	0.049442354069
0	3694	36.175451912924	0.026122497176
0	3699	36.2015744101	0.165720409422
0	3704	36.367294819522	0.016840925999
0	3709	36.384135745521	0.029015222921
0	3714	36.413150968442	0.022741396573
0	3719	36.435892365015	0.037557615251
0	3724	36.473449980266	0.018831053833
0	3729	36.492281034099	0.0054634511
0	3733	36.497744485199	0.051043236244
0	3739	36.548787721443	0.02009604781
0	3744	36.568883769253	0.136439725731
0	3749	36.705323494984	0.007645701852
0	3753	36.712969196836	0.029010685215
0	3759	36.741979882051	0.117998980819
0	3764	36.85997886287	0.009422695922
0	3769	36.869401558792	0.268182186713
0	3775	37.137583745505	0.125962939146
0	3780	37.263546684651	0.112171636778
0	3785	37.375718321429	0.024587728571
0	3790	37.40030605	0.059714125639
0	3795	37.460020175639	0.06850718334
0	3800	37.528527358979	0.038966439164
0	3805	37.567493798143	0.042287331194
0	3810	37.609781129337	0.023254293341
0	3815	37.633035422678	0.052770509362
0	3820	37.68580593204	0.017356507914
0	3825	37.703162439954	0.124444675814
0	3830	37.827607115768	0.070224147104
0	3835	37.897831262872	0.029023952754
0	3840	37.926855215626	0.001764043523
0	3844	37.928619259149	0.000786471125
0	3847	37.929405730274	0.106307816962
0	3855	38.035713547236	0.011369061904
0	3860	38.04708260914	0.023868804669
0	3865	38.070951413809	0.114167936981
0	3870	38.18511935079	0.017810005143
0	3876	38.202929355933	0.03759179981
0	3881	38.240521155743	0.073605134925
0	3886	38.314126290668	0.032313619316
0	3891	38.346439909984	0.030956593255
0	3896	38.377396503239	0.013782020339
0	3901	38.391178523578	0.125095432817
0	3906	38.516273956395	0.028321990202
0	3911	38.544595946597	0.037614224499
0	3916	38.582210171096	0.011631980398
0	3921	38.593842151494	0.108294271981
0	3926	38.702136423475	0.00118141329
0	3930	38.703317836765	0.036438323097
0	3936	38.739756159862	0.039605424731
0	3941	38.779361584593	0.165215338103
0	3946	38.944576922696	0.178195047619
0	3951	39.122771970315	0.014880886232
0	3956	39.137652856547	0.053646466598
0	3961	39.191299323145	0.015896164676
0	3966	39.207195487821	0.143067389145
0	3971	39.350262876966	0.248353903251
0	3976	39.598616780217	0.18572848005
0	3981	39.784345260267	0.092128526505
0	3986	39.876473786772	0.14416634184
0	3991	40.020640128612	0.008686966312
0	3996	40.029327094924	0.039998067767
0	4002	40.069325162691	0.066831377928
0	4007	40.136156540619	0.015318618649
0	4012	40.151475159268	0.027091320102
0	4017	40.17856647937	0.013412693892
0	4022	40.191979173262	0.006478678087
0	4026	40.198457851349	0.023398416565
0	4032	40.221856267914	0.066868764145
0	4037	40.288725032059	0.005726543396
0	4041	40.294451575455	0.237863126526
0	4047	40.532314701981	0.044215162809
0	4052	40.57652986479	0.093054262885
0	4057	40.669584127675	0.03476523873
0	4062	40.704349366405	0.069237296135
0	4067	40.77358666254	0.02109704052
0	4072	40.79468370306	0.026087886214
0	4077	40.820771589274	0.185615082193
0	4082	41.006386671467	0.00358863446
0	4086	41.009975305927	0.008799672255
0	4091	41.018774978182	0.010385828004
0	4096	41.029160806186	0.021218580687
0	4102	41.050379386873	0.074677461645
0	4107	41.125056848518	0.001154542346
0	4111	41.126211390864	0.041647214666
0	4117	41.16785860553	0.326617985475
0	4123	41.494476591005	0.109056565584
0	4129	41.603533156589	0.012353819673
0	4134	41.615886976262	0.179752499227
0	4139	41.795639475489	0.018585469732
0	4144	41.814224945221	0.12526255684
0	4149	41.939487502061	0.020061930893
0	4154	41.959549432954	0.058613928024
0	4159	42.018163360978	0.01275789676
0	4164	42.030921257738	0.011351917917
0	4169	42.042273175655	0.033613821858
0	4174	42.075886997513	0.070946873853
0	4179	42.146833871366	0.003066358602
0	4183	42.149900229968	0.03022417027
0	4189	42.180124400238	0.039074011104
0	4194	42.219198411342	0.074568603736
0	4199	42.293767015078	0.032552310024
0	4204	42.326319325102	0.032039348587
0	4209	42.358358673689	0.000495963887
0	4213	42.358854637576	0.037879408123
0	4220	42.396734045699	0.07572758237
0	4225	42.472461628069	0.048124606224
0	4230	42.520586234293	0.047437081542
0	4235	42.568023315835	0.015328422734
0	4240	42.583351738569	0.183445437339
0	4246	42.766797175908	0.108018420491
0	4251	42.874815596399	0.082790305645
0	4256	42.957605902044	0.120162751884
0	4261	43.077768653928	0.071367899079
0	4266	43.149136553007	0.042645853015
0	4271	43.191782406022	0.015822087148
0	4276	43.20760449317	0.041281048489
0	4282	43.248885541659	0.002821160701
0	4286	43.25170670236	0.045758011328
0	4292	43.297464713688	0.020156494654
0	4297	43.317621208342	0.067500330794
0	4302	43.385121539136	0.084570630779
0	4307	43.469692169915	0.022319889284
0	4312	43.492012059199	0.003188644408
0	4316	43.495200703607	0.007594306703
0	4321	43.50279501031	0.024167206957
0	4327	43.526962217267	0.005547339396
0	4331	43.532509556663	0.072135200376
0	4338	43.604644757039	0.056567872463
0	4343	43.661212629502	0.135028725368
0	4348	43.79624135487	0.028725737151
0	4353	43.824967092021	0.09001063866
0	4358	43.914977730681	0.049128400907
0	4363	43.964106131588	0.010404342266
0	4368	43.974510473854	0.077528647483
0	4373	44.052039121337	0.054964375923
0	4378	44.10700349726	0.053236320824
0	4383	44.160239818084	0.019389140955
0	4388	44.179628959039	0.012764978185
0	4393	44.192393937224	0.177491717933
0	4399	44.369885655157	0.101432140236
0	4404	44.471317795393	0.230017905641
0	4409	44.701335701034	0.115956050269
0	4414	44.817291751303	0.021774268431
0	4419	44.839066019734	0.011362814348
0	4424	44.850428834082	0.086283923569
0	4429	44.936712757651	0.013449173513
0	4434	44.950161931164	0.091569731244
0	4439	45.041731662408	0.013545588849
0	4444	45.055277251257	0.011740226616
0	4449	45.067017477873	0.0331306003
0	4454	45.100148078173	0.04061625996
0	4459	45.140764338133	0.172818264327
0	4464	45.31358260246	0.015060352994
0	4469	45.328642955454	0.047104686082
0	4474	45.375747641536	0.010487228286
0	4479	45.386234869822	0.017178239853
0	4484	45.403413109675	0.009710542147
0	4489	45.413123651822	0.083492171413
0	4494	45.496615823235	0.000666152665
0	4498	45.4972819759	0.076044236122
0	4504	45.573326212022	0.118711473137
0	4509	45.692037685159	0.025477892413
0	4514	45.717515577572	0.005464636617
0	4518	45.722980214189	0.022744365067
0	4524	45.745724579256	0.021769212079
0	4529	45.767493791335	0.045829087203
0	4534	45.813322878538	0.015489087332
0	4539	45.82881196587	0.084005520805
0	4544	45.912817486675	0.228917290942
0	4550	46.141734777617	0.056165482224
0	4555	46.197900259841	0.020143337544
0	4560	46.218043597385	0.004729090947
0	4564	46.222772688332	0.061659385046
0	4570	46.284432073378	0.002867584417
0	4574	46.287299657795	0.010800852672
0	4579	46.298100510467	0.076568132959
0	4585	46.374668643426	0.006924724909
0	4589	46.381593368335	0.017861617061
0	4595	46.399454985396	0.085055653402
0	4601	46.484510638798	0.005405838419
0	4605	46.489916477217	0.005543507652
0	4610	46.495459984869	0.013757773485
0	4616	46.509217758354	0.064631569726
0	4621	46.57384932808	0.079075676301
0	4626	46.652925004381	0.039129256644
0	4631	46.692054261025	0.26307513118
0	4636	46.955129392205	0.023090490734
0	4641	46.978219882939	0.125127445865
0	4646	47.103347328804	8.3926705e-005
0	4650	47.103431255509	0.004609004036
0	4653	47.108040259545	0.023668157098
0	4661	47.131708416643	0.054199659596
0	4666	47.185908076239	0.148818324337
0	4671	47.334726400576	0.021766155851
0	4676	47.356492556427	0.064094463777
0	4681	47.420587020204	0.032256147261
0	4687	47.452843167465	0.028236710761
0	4692	47.481079878226	0.033913746683
0	4697	47.514993624909	0.085710053
0	4702	47.600703677909	0.024150605287
0	4707	47.624854283196	0.011808917111
0	4712	47.636663200307	0.016887629761
0	4717	47.653550830068	0.144907403857
0	4722	47.798458233925	0.049915386691
0	4727	47.848373620616	0.014821097509
0	4732	47.863194718125	0.022551739286
0	4737	47.885746457411	0.074091523752
0	4742	47.959837981163	0.020331352468
0	4747	47.980169333631	0.06527148918
0	4752	48.045440822811	0.011370755457
0	4757	48.056811578268	0.025527804373
0	4762	48.082339382641	0.16459035768
0	4767	48.246929740321	0.009240278316
0	4772	48.256170018637	0.028138223112
0	4777	48.284308241749	0.025613806211
0	4782	48.30992204796	0.026931341354
0	4787	48.336853389314	0.026634723069
0	4792	48.363488112383	0.028419312057
0	4797	48.39190742444	0.080741409424
0	4802	48.472648833864	0.04847076673
0	4807	48.521119600594	0.063658681087
0	4813	48.584778281681	0.00943615529
0	4818	48.594214436971	0.033071666825
0	4823	48.627286103796	0.005130093137
0	4827	48.632416196933	0.088323823856
0	4834	48.720740020789	0.085479971978
0	4839	48.806219992767	0.070858358897
0	4844	48.877078351664	0.087528981872
0	4849	48.964607333536	0.147030696929
0	4854	49.111638030465	0.01038221782
0	4859	49.122020248285	0.012234507832
0	4864	49.134254756117	0.065997875541
0	4869	49.200252631658	0.004820494423
0	4873	49.205073126081	0.014551538953
0	4879	49.219624665034	0.067811816354
0	4884	49.287436481388	0.021703094072
0	4889	49.30913957546	0.130289318898
0	4894	49.439428894358	0.181759337124
0	4899	49.621188231482	0.034469063254
0	4904	49.655657294736	0.06719062503
0	4909	49.722847919766	0.079756022207
0	4914	49.802603941973	0.118307306937
0	4919	49.92091124891	0.001462381155
0	4923	49.922373630065	0.013315290638
0	4928	49.935688920703	0.031293969905
0	4934	49.966982890608	0.037435684997
0	4939	50.004418575605	0.204402907909
0	4946	50.208821483514	0.010642583178
0	4951	50.219464066692	0.030117960654
0	4956	50.249582027346	0.105573537017
0	4961	50.355155564363	0.089866810964
0	4966	50.445022375327	0.002444714757
0	4970	50.447467090084	0.007833635873
0	4975	50.455300725957	0.090327382034
0	4981	50.545628107991	0.12579293411
0	4986	50.671421042101	0.063229159604
0	4991	50.734650201705	0.002687162552
0	4995	50.737337364257	0.127678701193
0	5001	50.86501606545	0.012951712923
0	5006	50.877967778373	0.085634520086
0	5011	50.963602298459	0.025923606368
0	5016	50.989525904827	0.009711771551
0	5021	50.999237676378	0.023516192063
0	5026	51.022753868441	0.044303596932
0	5031	51.067057465373	0.142535157623
0	5036	51.209592622996	0.068426437553
0	5041	51.278019060549	0.030632932444
0	5046	51.308651992993	0.185275908924
0	5051	51.493927901917	0.004995221269
0	5055	51.498923123186	0.051748802905
0	5061	51.550671926091	0.026707746315
0	5066	51.577379672406	0.019274792775
0	5071	51.596654465181	0.021130233956
0	5076	51.617784699137	0.078114028916
0	5081	51.695898728053	0.0369039834
0	5086	51.732802711453	0.000887207787
0	5090	51.73368991924	0.004803168909
0	5093	51.738493088149	0.040133438633
0	5101	51.778626526782	0.069833255823
0	5106	51.848459782605	0.048559926449
0	5112	51.897019709054	0.022658499941
0	5117	51.919678208995	0.016083448542
0	5122	51.935761657537	0.01443550295
0	5127	51.950197160487	0.02454566358
0	5132	51.974742824067	0.037885950119
0	5137	52.012628774186	0.104690874841
0	5142	52.117319649027	0.010562257855
0	5147	52.127881906882	0.213413631369
0	5152	52.341295538251	0.081135757432
0	5157	52.422431295683	0.007514341691
0	5161	52.429945637374	0.026829240786
0	5167	52.45677487816	0.141584423885
0	5172	52.598359302045	0.032283091342
0	5177	52.630642393387	0.026833916416
0	5182	52.657476309803	0.012674287763
0	5187	52.670150597566	0.034215368408
0	5192	52.704365965974	0.011632973665
0	5197	52.715998939639	0.064025720754
0	5202	52.780024660393	0.072515803734
0	5207	52.852540464127	0.041688941264
0	5212	52.894229405391	0.052390761037
0	5217	52.946620166428	0.044764050759
0	5222	52.991384217187	0.001995573996
0	5226	52.993379791183	0.033905421285
0	5232	53.027285212468	0.085011477852
0	5237	53.11229669032	0.016280946962
0	5242	53.128577637282	0.114626954922
0	5247	53.243204592204	0.02103056764
0	5252	53.264235159844	0.062201621314
0	5257	53.326436781158	0.134034924454
0	5262	53.460471705612	0.009538041834
0	5267	53.470009747446	0.048888990438
0	5272	53.518898737884	0.026755724247
0	5277	53.545654462131	0.089216228197
0	5282	53.634870690328	0.00952844233
0	5287	53.644399132658	0.02290107755
0	5292	53.667300210208	0.058637332202
0	5297	53.72593754241	0.137759967039
0	5302	53.863697509449	0.054207676235
0	5307	53.917905185684	0.040190596528
0	5312	53.958095782212	0.034132309118
0	5317	53.99222809133	0.016088934656
0	5322	54.008317025986	0.132175914627
0	5327	54.140492940613	0.060851725683
0	5332	54.201344666296	0.00144050826
0	5336	54.202785174556	0.01447590499
0	5342	54.217261079546	0.031325885873
0	5347	54.248586965419	0.040995844445
0	5352	54.289582809864	0.084662678156
0	5357	54.37424548802	0.035193670884
0	5362	54.409439158904	0.091974789824
0	5367	54.501413948728	0.002776864247
0	5371	54.504190812975	0.045292447605
0	5377	54.54948326058	0.078100201297
0	5382	54.627583461877	0.061589247322
0	5387	54.689172709199	0.012003689841
0	5392	54.70117639904	0.000171862809
0	5396	54.701348261849	0.002797391989
0	5399	54.704145653838	0.041185569715
0	5408	54.745331223553	0.016678947196
0	5413	54.762010170749	0.050444457742
0	5418	54.812454628491	0.039956544547
0	5423	54.852411173038	0.12573408798
0	5429	54.978145261018	0.0376837058
0	5434	55.015828966818	0.005360079575
0	5438	55.021189046393	0.048641437311
0	5445	55.069830483704	0.110019344362
0	5450	55.179849828066	0.007693061872
0	5454	55.187542889938	0.048344299607
0	5460	55.235887189545	0.21977148063
0	5466	55.455658670175	0.119031366385
0	5471	55.57469003656	0.053195693243
0	5476	55.627885729803	0.054646780052
0	5481	55.682532509855	0.049660948993
0	5486	55.732193458848	0.105471787513
0	5491	55.837665246361	0.006258606566
0	5496	55.843923852927	0.014657196634
0	5502	55.858581049561	0.001812161193
0	5506	55.860393210754	0.075270529843
0	5512	55.935663740597	0.209809979561
0	5517	56.145473720158	0.025808700406
0	5522	56.171282420564	0.011061241962
0	5527	56.182343662526	0.022696168539
0	5532	56.205039831065	0.014879436723
0	5537	56.219919267788	0.066323068279
0	5542	56.286242336067	0.016223688799
0	5547	56.302466024866	0.018311002622
0	5552	56.320777027488	0.014655285806
0	5557	56.335432313294	0.013669779012
0	5562	56.349102092306	0.061561057888
0	5567	56.410663150194	0.087536178126
0	5572	56.49819932832	0.064804936158
0	5577	56.563004264478	0.006299181754
0	5581	56.569303446232	0.184094153275
0	5587	56.753397599507	0.04170671397
0	5592	56.795104313477	0.004498741662
0	5596	56.799603055139	0.098653531488
0	5602	56.898256586627	0.077711893685
0	5607	56.975968480312	0.06460369001
0	5612	57.040572170322	0.028141397906
0	5617	57.068713568228	0.015938067508
0	5622	57.084651635736	0.018368735526
0	5627	57.103020371262	0.005123572476
0	5631	57.108143943738	0.131938106498
0	5637	57.240082050236	0.067778301211
0	5642	57.307860351447	0.024705112032
0	5647	57.332565463479	0.050946063423
0	5652	57.383511526902	0.007961411832
0	5657	57.391472938734	0.001183745695
0	5661	57.392656684429	0.015263802852
0	5667	57.407920487281	0.066604651503
0	5672	57.474525138784	0.117597925815
0	5677	57.592123064599	0.017892225917
0	5682	57.610015290516	0.098430767642
0	5687	57.708446058158	0.02959070852
0	5692	57.738036766678	0.05266631398
0	5697	57.790703080658	0.046555805172
0	5702	57.83725888583	0.150168406688
0	5708	57.987427292518	0.015853233701
0	5713	58.003280526219	0.014578675806
0	5718	58.017859202025	0.036798758004
0	5723	58.054657960029	0.053739241937
0	5728	58.108397201966	0.080982384831
0	5733	58.189379586797	0.149644471361
0	5738	58.339024058158	0.108473217792
0	5744	58.44749727595	0.01407346329
0	5749	58.46157073924	0.029842345142
0	5754	58.491413084382	0.007965163329
0	5759	58.499378247711	0.005942698433
0	5763	58.505320946144	0.181680446272
0	5769	58.687001392416	0.053560424429
0	5774	58.740561816845	0.19196419273
0	5780	58.932526009575	0.040866215862
0	5785	58.973392225437	0.013233079913
0	5790	58.98662530535	0.02888133919
0	5795	59.01550664454	0.02896896893
0	5800	59.04447561347	0.004469709153
0	5804	59.048945322623	0.047134695778
0	5810	59.096080018401	0.044235624854
0	5815	59.140315643255	0.058885293334
0	5820	59.199200936589	0.001429391387
0	5824	59.200630327976	0.064046969049
0	5830	59.264677297025	0.026464173006
0	5835	59.291141470031	0.031868612339
0	5840	59.32301008237	0.049984715815
0	5845	59.372994798185	0.003338162357
0	5849	59.376332960542	0.012023119929
0	5854	59.388356080471	0.205512924027
0	5860	59.593869004498	0.007312345045
0	5864	59.601181349543	0.050047694479
0	5870	59.651229044022	0.008689092791
0	5875	59.659918136813	0.091950003953
0	5880	59.751868140766	0.03318939685
0	5885	59.785057537616	0.014782074114
0	5890	59.79983961173	0.021311400498
0	5895	59.821151012228	0.036190115176
0	5900	59.857341127404	0.052124750639
0	5905	59.909465878043	0.11166501924
0	5910	60.021130897283	0.076259548246
0	5915	60.097390445529	0.005279389059
0	5919	60.102669834588	0.037536167739
0	5925	60.140206002327	0.008852245383
0	5930	60.14905824771	0.014675858162
0	5935	60.163734105872	0.013491079651
0	5940	60.177225185523	0.058034126537
0	5945	60.23525931206	0.000564586867
0	5949	60.235823898927	0.021098303955
0	5955	60.256922202882	0.004694471515
0	5959	60.261616674397	0.017698036908
0	5965	60.279314711305	0.055115170883
0	5970	60.334429882188	0.025884637384
0	5975	60.360314519572	0.181749317119
0	5980	60.542063836691	0.029816934633
0	5985	60.571880771324	0.064650478261
0	5990	60.636531249585	0.060363212936
0	5995	60.696894462521	0.095839493965
0	6000	60.792733956486	0.007423661471
0	6004	60.800157617957	0.00060287427
0	6009	60.800760492227	0.013750915276
0	6014	60.814511407503	0.071037175871
0	6020	60.885548583374	0.017580865733
0	6025	60.903129449107	0.075619933406
0	6031	60.978749382513	0.041821251777
0	6036	61.02057063429	0.005560893588
0	6040	61.026131527878	0.013708534139
0	6046	61.039840062017	0.027958090608
0	6051	61.067798152625	0.050320709127
0	6056	61.118118861752	0.018283205658
0	6061	61.13640206741	0.01516443167
0	6066	61.15156649908	0.067818592328
0	6071	61.219385091408	0.071570198848
0	6076	61.290955290256	0.008185182338
0	6081	61.299140472594	0.035440007857
0	6086	61.334580480451	0.015707864353
0	6091	61.350288344804	0.0273738898
0	6096	61.377662234604	0.035638747862
0	6101	61.413300982466	0.05606905605
0	6106	61.469370038516	0.213579167825
0	6111	61.682949206341	0.033076547063
0	6116	61.716025753404	0.024846228272
0	6121	61.740871981676	0.008476717455
0	6126	61.749348699131	0.01080152455
0	6131	61.760150223681	0.006280465725
0	6135	61.766430689406	0.085863866121
0	6141	61.852294555527	0.118466076256
0	6146	61.970760631783	0.019066043074
0	6151	61.989826674857	0.018406255484
0	6156	62.008232930341	0.038004157632
0	6161	62.046237087973	0.026428161329
0	6166	62.072665249302	0.039340457159
0	6171	62.112005706461	0.016613158127
0	6176	62.128618864588	0.043154808972
0	6181	62.17177367356	0.127699731809
0	6186	62.299473405369	0.043981099354
0	6191	62.343454504723	0.014727231171
0	6196	62.358181735894	0.012742573383
0	6201	62.370924309277	0.025254690401
0	6206	62.396178999678	0.006132598042
0	6210	62.40231159772	0.100463091795
0	6216	62.502774689515	0.020499277417
0	6221	62.523273966932	0.033810343029
0	6226	62.557084309961	0.183468827858
0	6231	62.740553137819	0.011190431028
0	6236	62.751743568847	0.059544516244
0	6241	62.811288085091	0.016882236353
0	6246	62.828170321444	0.018489985524
0	6251	62.846660306968	0.022317124882
0	6256	62.86897743185	0.011302824865
0	6261	62.880280256715	0.036165036012
0	6266	62.916445292727	0.000630802566
0	6270	62.917076095293	0.05898263968
0	6276	62.976058734973	0.006365504153
0	6280	62.982424239126	0.046623668102
0	6286	63.029047907228	0.053785012096
0	6292	63.082832919324	0.084371254524
0	6297	63.167204173848	0.039822777166
0	6302	63.207026951014	0.096076086298
0	6307	63.303103037312	0.151773235065
0	6312	63.454876272377	0.053867482403
0	6317	63.50874375478	0.030639891275
0	6322	63.539383646055	0.081903796954
0	6328	63.621287443009	0.104221432767
0	6333	63.725508875776	0.013614068109
0	6338	63.739122943885	0.045020209237
0	6343	63.784143153122	0.096249954589
0	6348	63.880393107711	0.002083664864
0	6352	63.882476772575	0.105604459101
0	6358	63.988081231676	0.003570259026
0	6362	63.991651490702	0.002704022714
0	6365	63.994355513416	0.012094369231
0	6372	64.006449882647	0.111593952817
0	6378	64.118043835464	0.112853624255
0	6383	64.230897459719	0.021209258411
0	6389	64.25210671813	0.034961033221
0	6394	64.287067751351	0.023133802411
0	6399	64.310201553762	0.004819367552
0	6403	64.315020921314	0.001178049853
0	6406	64.316198971167	0.01421821693
0	6413	64.330417188097	0.161415748924
0	6419	64.491832937021	0.008092617424
0	6424	64.499925554445	0.00892738745
0	6429	64.508852941895	0.041877027992
0	6434	64.550729969887	0.094731406927
0	6439	64.645461376814	0.09697495479
0	6444	64.742436331604	0.147767283102
0	6449	64.890203614706	0.017891987836
0	6454	64.908095602542	0.029323615188
0	6459	64.93741921773	0.068029085175
0	6464	65.005448302905	0.019233948416
0	6469	65.024682251321	0.018590569778
0	6474	65.043272821099	0.01700259426
0	6479	65.060275415359	0.06222178381
0	6484	65.122497199169	0.048251410333
0	6489	65.170748609502	0.350291004794
0	6494	65.521039614296	0.021874984038
0	6499	65.542914598334	0.020859246103
0	6504	65.563773844437	0.15283087488
0	6509	65.716604719317	0.003612555703
0	6513	65.72021727502	0.029917481837
0	6519	65.750134756857	0.00901167749
0	6524	65.759146434347	0.006107337575
0	6528	65.765253771922	0.004282151719
0	6533	65.769535923641	0.026267296295
0	6539	65.795803219936	0.048152186507
0	6544	65.843955406443	0.046656781377
0	6549	65.89061218782	0.146214374784
0	6555	66.036826562604	0.072075589815
0	6560	66.108902152419	0.012437976884
0	6565	66.121340129303	0.012021329737
0	6570	66.13336145904	0.001796465897
0	6574	66.135157924937	0.034937668989
0	6580	66.170095593926	0.02179652115
0	6585	66.191892115076	0.330104642912
0	6591	66.521996757988	0.02443194516
0	6596	66.546428703148	0.158414586379
0	6601	66.704843289527	0.006310131994
0	6605	66.711153421521	0.010976417291
0	6611	66.722129838812	0.044736845792
0	6616	66.766866684604	0.091774594815
0	6621	66.858641279419	0.001014908314
0	6625	66.859656187733	0.057445843829
0	6631	66.917102031562	0.160689946654
0	6636	67.077791978216	0.042050924889
0	6641	67.119842903105	0.112795286023
0	6646	67.232638189128	0.048676085817
0	6651	67.281314274945	0.017467512047
0	6656	67.298781786992	0.036016714207
0	6661	67.334798501199	0.003920130064
0	6665	67.338718631263	0.104438779186
0	6671	67.443157410449	0.020133017618
0	6676	67.463290428067	0.010816354731
0	6681	67.474106782798	0.038399833382
0	6686	67.51250661618	0.039873352158
0	6691	67.552379968338	0.007425889315
0	6695	67.559805857653	0.174850723665
0	6702	67.734656581318	0.00089342431
0	6706	67.735550005628	0.011438797374
0	6711	67.746988803002	0.010876363107
0	6716	67.757865166109	0.061411000991
0	6722	67.8192761671	0.03084661945
0	6727	67.85012278655	0.006489338381
0	6731	67.856612124931	0.045510587483
0	6737	67.902122712414	0.117081492374
0	6742	68.019204204788	0.027595716643
0	6747	68.046799921431	0.04819385653
0	6752	68.094993777961	0.012773453454
0	6757	68.107767231415	0.088283824434
0	6762	68.196051055849	0.199100183436
0	6767	68.395151239285	0.066656680195
0	6772	68.46180791948	0.056857231408
0	6777	68.518665150888	0.028537684816
0	6782	68.547202835704	0.131926252873
0	6787	68.679129088577	0.046315095743
0	6792	68.72544418432	0.255240816804
0	6797	68.980685001124	0.009144104472
0	6802	68.989829105596	0.027209524107
0	6807	69.017038629703	0.050166504538
0	6812	69.067205134241	0.089539581315
0	6818	69.156744715556	0.00571829069
0	6822	69.162463006246	0.013781532649
0	6828	69.176244538895	0.056174182618
0	6835	69.232418721513	0.003924536136
0	6839	69.236343257649	0.178276662569
0	6845	69.414619920218	0.005667911167
0	6849	69.420287831385	0.078380810171
0	6855	69.498668641556	0.041840740393
0	6860	69.540509381949	0.075894989392
0	6865	69.616404371341	0.033709806521
0	6870	69.650114177862	0.040893461164
0	6875	69.691007639026	0.008925948848
0	6880	69.699933587874	0.026634991589
0	6885	69.726568579463	0.028037947161
0	6890	69.754606526624	0.167851590429
0	6895	69.922458117053	0.043216863068
0	6900	69.965674980121	0.014129561547
0	6905	69.979804541668	0.008239311813
0	6910	69.988043853481	0.003650829081
0	6914	69.991694682562	0.009090742614
0	6919	70.000785425176	0.03359708657
0	6925	70.034382511746	0.050377692414
0	6930	70.08476020416	0.046737040781
0	6936	70.131497244941	0.002333132567
0	6940	70.133830377508	0.112371603929
0	6946	70.246201981437	0.078651675832
0	6951	70.324853657269	0.008284026336
0	6956	70.333137683605	0.014913185832
0	6961	70.348050869437	0.011904134494
0	6966	70.359955003931	0.011522029734
0	6971	70.371477033665	0.050682658764
0	6976	70.422159692429	0.000546961639
0	6980	70.422706654068	0.009277816998
0	6985	70.431984471066	0.013300376023
0	6990	70.445284847089	0.029460043046
0	6996	70.474744890135	0.000156936983
0	7000	70.474901827118	0.114195979537
0	7006	70.589097806655	0.016213277094
0	7011	70.605311083749	0.000568781176
0	7015	70.605879864925	0.023370907682
0	7021	70.629250772607	0.028931668958
0	7026	70.658182441565	0.132852951531
0	7031	70.791035393096	0.052077970108
0	7036	70.843113363204	0.021714203915
0	7041	70.864827567119	0.004836173852
0	7045	70.869663740971	0.001870623893
0	7048	70.871534364864	0.190778238371
0	7056	71.062312603235	0.260468022599
0	7062	71.322780625834	0.081491885091
0	7068	71.404272510925	0.034233325005
0	7073	71.43850583593	0.14350889603
0	7078	71.58201473196	0.041492714455
0	7083	71.623507446415	0.0218866384
0	7088	71.645394084815	0.02611739167
0	7093	71.671511476485	0.01533739406
0	7098	71.686848870545	0.045978788428
0	7103	71.732827658973	0.033666006869
0	7108	71.766493665842	0.060742429862
0	7113	71.827236095704	0.022569673335
0	7118	71.849805769039	0.049723644434
0	7123	71.899529413473	0.013795921763
0	7128	71.913325335236	0.115746747286
0	7133	72.029072082522	0.00911584128
0	7139	72.038187923802	0.032394174523
0	7144	72.070582098325	0.294075519737
0	7150	72.364657618062	0.005238199974
0	7154	72.369895818036	0.060878942968
0	7160	72.430774761004	0.015406238327
0	7165	72.446180999331	0.013128975784
0	7170	72.459309975115	0.131207103594
0	7175	72.590517078709	0.035622395535
0	7180	72.626139474244	0.026220468974
0	7185	72.652359943218	0.022629303538
0	7190	72.674989246756	0.006862124982
0	7194	72.681851371738	0.033573872672
0	7200	72.71542524441	0.113152997631
0	7205	72.828578242041	0.036305172902
0	7210	72.864883414943	0.043442418305
0	7215	72.908325833248	0.0763745911
0	7220	72.984700424348	0.025349923278
0	7225	73.010050347626	0.026340577978
0	7230	73.036390925604	0.003607155074
0	7234	73.039998080678	0.146136274901
0	7241	73.186134355579	0.020844597477
0	7246	73.206978953056	0.004965613483
0	7250	73.211944566539	0.04237456581
0	7256	73.254319132349	0.006319255654
0	7260	73.260638388003	0.091591620573
0	7266	73.352230008576	0.015981533986
0	7271	73.368211542562	0.118002011068
0	7276	73.48621355363	0.026910045172
0	7281	73.513123598802	0.096446684097
0	7286	73.609570282899	0.039359110833
0	7291	73.648929393732	0.032135829307
0	7296	73.681065223039	0.005652241711
0	7300	73.68671746475	0.041312046835
0	7306	73.728029511585	0.09867798062
0	7311	73.826707492205	0.00311747751
0	7315	73.829824969715	0.017615789552
0	7321	73.847440759267	0.01965156123
0	7326	73.867092320497	0.003030139564
0	7330	73.870122460061	0.023290021062
0	7336	73.893412481123	0.000475820998
0	7340	73.893888302121	0.067210862597
0	7346	73.961099164718	0.004635085218
0	7350	73.965734249936	0.02949267182
0	7356	73.995226921756	0.098613016446
0	7361	74.093839938202	0.031672544306
0	7366	74.125512482508	0.026708359473
0	7371	74.152220841981	0.034854083669
0	7376	74.18707492565	0.091759632539
0	7381	74.278834558189	0.012853177808
0	7386	74.291687735997	0.034413626879
0	7391	74.326101362876	0.067825142093
0	7396	74.393926504969	0.094773385676
0	7401	74.488699890645	0.019983597402
0	7406	74.508683488047	0.01139211348
0	7411	74.520075601527	0.135908739318
0	7416	74.655984340845	0.057068929315
0	7421	74.71305327016	0.01202735755
0	7426	74.72508062771	0.004158376537
0	7430	74.729239004247	0.031797658478
0	7436	74.761036662725	0.215383654866
0	7442	74.976420317591	0.013662588402
0	7447	74.990082905993	0.028336203409
0	7452	75.018419109402	0.030050969654
0	7457	75.048470079056	0.000460406237
0	7461	75.048930485293	0.012704989285
0	7466	75.061635474578	0.204279858251
0	7472	75.265915332829	0.016558232648
0	7477	75.282473565477	0.12673371662
0	7482	75.409207282097	0.010419737644
0	7487	75.419627019741	0.079463741014
0	7492	75.499090760755	0.040627004901
0	7497	75.539717765656	0.062354888841
0	7502	75.602072654497	0.022080181721
0	7507	75.624152836218	0.013977098712
0	7512	75.63812993493	0.002317107229
0	7516	75.640447042159	0.049038085696
0	7522	75.689485127855	0.278273133496
0	7527	75.967758261351	0.151175829826
0	7532	76.118934091177	0.015508751948
0	7537	76.134442843125	0.05523597355
0	7542	76.189678816675	0.011096462698
0	7547	76.200775279373	0.040132494006
0	7552	76.240907773379	0.013272625955
0	7557	76.254180399334	0.094730220215
0	7562	76.348910619549	0.011849804776
0	7567	76.360760424325	0.012351692639
0	7572	76.373112116964	0.058884932392
0	7577	76.431997049356	0.046602698228
0	7582	76.478599747584	0.064661252152
0	7587	76.543260999736	0.01132777213
0	7592	76.554588771866	0.008260075711
0	7597	76.562848847577	0.034196811547
0	7602	76.597045659124	0.036082714662
0	7607	76.633128373786	0.003481999955
0	7611	76.636610373741	0.002260821937
0	7614	76.638871195678	0.037899536092
0	7622	76.67677073177	0.034637370159
0	7627	76.711408101929	0.08678439326
0	7632	76.798192495189	0.031844570162
0	7637	76.830037065351	0.000666807876
0	7641	76.830703873227	0.026712965019
0	7647	76.857416838246	0.032203676645
0	7652	76.889620514891	0.135561892685
0	7657	77.025182407576	0.109028597328
0	7662	77.134211004904	0.006243755275
0	7666	77.140454760179	0.085643277438
0	7672	77.226098037617	0.004869022163
0	7676	77.23096705978	0.116939995506
0	7682	77.347907055286	0.033924771291
0	7687	77.381831826577	0.013760782239
0	7692	77.395592608816	0.088613172326
0	7698	77.484205781142	0.093827039146
0	7703	77.578032820288	0.016013783915
0	7708	77.594046604203	0.004931671948
0	7712	77.598978276151	0.022833095325
0	7718	77.621811371476	0.078834772678
0	7723	77.700646144154	0.040742034309
0	7728	77.741388178463	0.01502520632
0	7733	77.756413384783	0.016042041392
0	7738	77.772455426175	0.012746937844
0	7743	77.785202364019	0.175051679187
0	7748	77.960254043206	0.054734967846
0	7753	78.014989011052	0.032364206694
0	7758	78.047353217746	0.004868484804
0	7763	78.05222170255	0.24768312701
0	7770	78.29990482956	0.022784460502
0	7775	78.322689290062	0.004549279328
0	7779	78.32723856939	0.062403866347
0	7786	78.389642435737	0.052129793378
0	7791	78.441772229115	0.151094739402
0	7796	78.592866968517	0.107903387298
0	7801	78.700770355815	0.267426062358
0	7806	78.968196418173	0.106898982574
0	7811	79.075095400747	0.031004510238
0	7816	79.106099910985	0.022703590286
0	7821	79.128803501271	0.052089618574
0	7826	79.180893119845	0.035102113613
0	7831	79.215995233458	0.001648589279
0	7835	79.217643822737	0.085170704271
0	7841	79.302814527008	0.010232985235
0	7846	79.313047512243	0.011646615829
0	7851	79.324694128072	0.018219933287
0	7856	79.342914061359	0.024526927498
0	7861	79.367440988857	0.088412361221
0	7866	79.455853350078	0.015283906106
0	7871	79.471137256184	0.01550586636
0	7876	79.486643122544	0.035241217754
0	7881	79.521884340298	0.09843840003
0	7886	79.620322740328	0.005035128422
0	7890	79.62535786875	0.043241739675
0	7896	79.668599608425	0.017892696821
0	7901	79.686492305246	0.026384544151
0	7906	79.712876849397	0.080408463692
0	7911	79.793285313089	0.051016683794
0	7916	79.844301996883	0.028026763621
0	7921	79.872328760504	0.090574167122
0	7926	79.962902927626	0.056597578546
0	7931	80.019500506172	0.002552882968
0	7935	80.02205338914	0.061761881236
0	7941	80.083815270376	0.184715793275
0	7947	80.268531063651	0.103187777408
0	7952	80.371718841059	0.007241939268
0	7956	80.378960780327	0.021579506006
0	7962	80.400540286333	0.037941174481
0	7967	80.438481460814	0.019114584974
0	7972	80.457596045788	0.019401630901
0	7977	80.476997676689	0.009211103687
0	7982	80.486208780376	0.013841740468
0	7987	80.500050520844	0.031831615468
0	7992	80.531882136312	0.109403677846
0	7997	80.641285814158	0.028341385337
0	8002	80.669627199495	0.045710850557
0	8007	80.715338050052	0.01525232115
0	8012	80.730590371202	0.03426826559
0	8017	80.764858636792	0.030406215202
0	8022	80.795264851994	0.04976155478
0	8027	80.845026406774	0.015566656049
0	8032	80.860593062823	0.03909866253
0	8037	80.899691725353	0.060812315961
0	8042	80.960504041314	0.003712125439
0	8046	80.964216166753	0.006147592003
0	8051	80.970363758756	0.006400936272
0	8056	80.976764695028	0.161110162663
0	8063	81.137874857691	0.007256044496
0	8067	81.145130902187	0.014319076296
0	8073	81.159449978483	0.090865980589
0	8078	81.250315959072	0.021645163817
0	8083	81.271961122889	0.084782060529
0	8088	81.356743183418	0.041868034469
0	8093	81.398611217887	0.025952346412
0	8098	81.424563564299	0.081940985478
0	8103	81.506504549777	0.033839954195
0	8108	81.540344503972	0.011317852986
0	8113	81.551662356958	0.048563072596
0	8118	81.600225429554	0.034022754298
0	8123	81.634248183852	0.020168996593
0	8128	81.654417180445	0.047204240383
0	8133	81.701621420828	0.013991167726
0	8138	81.715612588554	0.003819447056
0	8142	81.71943203561	0.146842890499
0	8148	81.866274926109	0.035651213298
0	8153	81.901926139407	0.265159383001
0	8158	82.167085522408	0.03142217773
0	8163	82.198507700138	0.061402966761
0	8169	82.259910666899	0.049677585385
0	8174	82.309588252284	0.004856407587
0	8178	82.314444659871	0.108669596887
0	8184	82.423114256758	0.070592816929
0	8189	82.493707073687	0.058755991238
0	8194	82.552463064925	0.004147715137
0	8198	82.556610780062	0.186067585921
0	8204	82.742678365983	0.057346979183
0	8209	82.800025345166	0.074025047274
0	8214	82.87405039244	0.06178762297
0	8219	82.93583801541	0.024892375601
0	8224	82.960730391011	0.001406548431
0	8228	82.962136939442	0.025403769536
0	8234	82.987540708978	0.029285814513
0	8239	83.016826523491	0.030793219816
0	8244	83.047619743307	0.028644166491
0	8249	83.076263909798	0.012630092894
0	8254	83.088894002692	0.035538877458
0	8260	83.12443288015	0.010100551155
0	8265	83.134533431305	0.011009779406
0	8270	83.145543210711	0.055601619999
0	8275	83.20114483071	0.01526313718
0	8280	83.21640796789	0.025499173954
0	8285	83.241907141844	0.026950421539
0	8290	83.268857563383	0.056343491062
0	8295	83.325201054445	0.000264399522
0	8299	83.325465453967	0.001570134933
0	8302	83.3270355889	0.004033673271
0	8305	83.331069262171	0.043380897457
0	8315	83.374450159628	0.056597170521
0	8320	83.431047330149	0.023385047011
0	8325	83.45443237716	0.046280125012
0	8330	83.500712502172	0.013677267861
0	8335	83.514389770033	0.011638274933
0	8340	83.526028044966	0.015403554279
0	8345	83.541431599245	0.050816798289
0	8350	83.592248397534	0.029638130514
0	8355	83.621886528048	0.037388974386
0	8360	83.659275502434	0.010616981679
0	8365	83.669892484113	0.041016340434
0	8370	83.710908824547	0.026556005549
0	8375	83.737464830096	0.002029314345
0	8379	83.739494144441	0.122386506778
0	8385	83.861880651219	0.107452737817
0	8390	83.969333389036	0.000745731115
0	8394	83.970079120151	0.34080319531
0	8400	84.310882315461	0.005844344839
0	8404	84.3167266603	0.027979909372
0	8410	84.344706569672	0.104968791114
0	8415	84.449675360786	0.119062648351
0	8420	84.568738009137	0.014907471874
0	8425	84.583645481011	0.011651588899
0	8430	84.59529706991	0.048507746976
0	8435	84.643804816886	0.020723756665
0	8440	84.664528573551	0.220209004531
0	8445	84.884737578082	0.061134796728
0	8450	84.94587237481	0.117219674568
0	8455	85.063092049378	0.025291313149
0	8460	85.088383362527	0.022705421087
0	8465	85.111088783614	0.0003208167
0	8469	85.111409600314	0.020997445685
0	8475	85.132407045999	0.00396593845
0	8479	85.136372984449	0.103989764351
0	8485	85.2403627488	0.129603986363
0	8490	85.369966735163	0.038527173577
0	8495	85.40849390874	0.226987961255
0	8500	85.635481869995	0.04206145769
0	8505	85.677543327685	0.073961308734
0	8510	85.751504636419	0.013174425152
0	8515	85.764679061571	0.027235421029
0	8520	85.7919144826	0.009041725617
0	8525	85.800956208217	0.041642659795
0	8530	85.842598868012	0.072434755839
0	8535	85.915033623851	0.04121802284
0	8540	85.956251646691	0.07593910594
0	8545	86.032190752631	0.061768426075
0	8550	86.093959178706	0.101285661698
0	8555	86.195244840404	0.024564651965
0	8560	86.219809492369	0.024678006496
0	8565	86.244487498865	0.160248895557
0	8570	86.404736394422	0.031146110862
0	8575	86.435882505284	0.038711446627
0	8580	86.474593951911	0.148595916911
0	8586	86.623189868822	0.085484101027
0	8591	86.708673969849	0.010267802929
0	8596	86.718941772778	0.001482625382
0	8600	86.72042439816	0.009793632056
0	8605	86.730218030216	0.042387941836
0	8611	86.772605972052	0.005459554376
0	8615	86.778065526428	0.098131675857
0	8621	86.876197202285	0.003189659056
0	8625	86.879386861341	0.154038106515
0	8631	87.033424967856	0.02613556257
0	8636	87.059560530426	0.11668398486
0	8641	87.176244515286	0.172538327389
0	8646	87.348782842675	0.03001396143
0	8651	87.378796804105	0.022822685748
0	8656	87.401619489853	0.104720546172
0	8661	87.506340036025	0.029140310294
0	8666	87.535480346319	0.00718745879
0	8670	87.542667805109	0.059368898584
0	8676	87.602036703693	0.022129999572
0	8681	87.624166703265	0.037493863463
0	8686	87.661660566728	0.06070761028
0	8691	87.722368177008	0.128676059299
0	8696	87.851044236307	0.016789853666
0	8701	87.867834089973	0.012957101299
0	8706	87.880791191272	0.141994793286
0	8711	88.022785984558	0.0201489914
0	8717	88.042934975958	0.04052224883
0	8722	88.083457224788	0.028617305892
0	8727	88.11207453068	0.102261932825
0	8732	88.214336463505	0.030291302632
0	8737	88.244627766137	0.074051183783
0	8742	88.31867894992	0.109698102675
0	8747	88.428377052595	0.0139743788
0	8752	88.442351431395	0.074135825704
0	8757	88.516487257099	0.147184519927
0	8762	88.663671777026	0.060707507884
0	8767	88.72437928491	0.005127289583
0	8771	88.729506574493	0.011361761718
0	8777	88.740868336211	0.000633726123
0	8781	88.741502062334	0.00087148967
0	8784	88.742373552004	0.033794734771
0	8792	88.776168286775	0.025186230021
0	8797	88.801354516796	0.017465297593
0	8802	88.818819814389	0.016969562553
0	8807	88.835789376942	0.00340753915
0	8811	88.839196916092	0.015032382657
0	8817	88.854229298749	0.102592077887
0	8822	88.956821376636	0.000552291071
0	8826	88.957373667707	0.132694465715
0	8832	89.090068133422	0.008273152142
0	8837	89.098341285564	0.088162892236
0	8842	89.1865041778	0.063379142692
0	8847	89.249883320492	0.040524229076
0	8852	89.290407549568	0.111328828244
0	8857	89.401736377812	0.001701212146
0	8861	89.403437589958	0.105296260712
0	8867	89.50873385067	0.034329129615
0	8872	89.543062980285	0.019255279143
0	8877	89.562318259428	0.116828631389
0	8882	89.679146890817	0.020255651141
0	8887	89.699402541958	0.023178017177
0	8892	89.722580559135	0.215083466179
0	8897	89.937664025314	0.069576684414
0	8902	90.007240709728	0.112602264291
0	8907	90.119842974019	0.064361279291
0	8912	90.18420425331	0.009350753306
0	8917	90.193555006616	0.051132376449
0	8922	90.244687383065	0.012141326462
0	8927	90.256828709527	0.015656212447
0	8932	90.272484921974	0.041825461167
0	8937	90.314310383141	0.036615801297
0	8942	90.350926184438	0.000131131836
0	8946	90.351057316274	0.043828518158
0	8953	90.394885834432	0.020599272467
0	8958	90.415485106899	0.106204607362
0	8963	90.521689714261	0.030473083885
0	8968	90.552162798146	0.017870983464
0	8973	90.57003378161	0.084820370876
0	8978	90.654854152486	0.062202219349
0	8983	90.717056371835	0.000746662521
0	8987	90.717803034356	0.005804273887
0	8990	90.723607308243	0.078496115651
0	8998	90.802103423894	0.030221697481
0	9003	90.832325121375	0.028602684893
0	9008	90.860927806268	0.066707613023
0	9013	90.927635419291	0.051580969697
0	9018	90.979216388988	0.050355224753
0	9023	91.029571613741	0.038313029473
0	9028	91.067884643214	0.021498025544
0	9033	91.089382668758	0.022880337917
0	9038	91.112263006675	0.023038891248
0	9043	91.135301897923	0.00031456181
0	9047	91.135616459733	0.009303221715
0	9052	91.144919681448	0.052018907388
0	9058	91.196938588836	0.166963653458
0	9063	91.363902242294	0.126778706809
0	9069	91.490680949103	0.116269867345
0	9074	91.606950816448	0.127981045177
0	9079	91.734931861625	0.070176991482
0	9085	91.805108853107	0.030968292467
0	9090	91.836077145574	0.065591471655
0	9095	91.901668617229	0.065425427098
0	9100	91.967094044327	0.085843757548
0	9105	92.052937801875	0.053627643245
0	9110	92.10656544512	0.006217905699
0	9114	92.112783350819	0.035917835484
0	9120	92.148701186303	0.003917767068
0	9124	92.152618953371	0.00368868978
0	9127	92.156307643151	0.002478193495
0	9132	92.158785836646	0.116806597531
0	9140	92.275592434177	0.0844469095
0	9145	92.360039343677	0.060465830427
0	9150	92.420505174104	0.002396096612
0	9154	92.422901270716	0.073671274415
0	9160	92.496572545131	0.11128880746
0	9166	92.607861352591	0.008859069317
0	9171	92.616720421908	0.072595781763
0	9176	92.689316203671	0.01445814414
0	9181	92.703774347811	2.8223418e-005
0	9185	92.703802571229	0.02117115756
0	9191	92.724973728789	0.090625255316
0	9197	92.815598984105	0.018620848919
0	9202	92.834219833024	0.18136729086
0	9208	93.015587123884	0.000235373834
0	9212	93.015822497718	0.051931286847
0	9218	93.067753784565	0.045935276144
0	9224	93.113689060709	0.01694168539
0	9229	93.130630746099	0.085565131278
0	9234	93.216195877377	0.055977321241
0	9239	93.272173198618	0.004866614793
0	9243	93.277039813411	0.028667668971
0	9249	93.305707482382	0.156317838944
0	9255	93.462025321326	0.079516033226
0	9260	93.541541354552	0.025234192469
0	9265	93.566775547021	0.048194196946
0	9270	93.614969743967	0.042326057883
0	9275	93.65729580185	0.040878162303
0	9280	93.698173964153	0.044107629502
0	9285	93.742281593655	0.027789188424
0	9290	93.770070782079	0.078455494486
0	9295	93.848526276565	0.097979641089
0	9300	93.946505917654	0.108771113321
0	9305	94.055277030975	0.023225246084
0	9310	94.078502277059	0.00376282673
0	9314	94.082265103789	0.090984602308
0	9320	94.173249706097	0.088580431472
0	9325	94.261830137569	0.004316986499
0	9329	94.266147124068	0.025808296133
0	9335	94.291955420201	0.075881607217
0	9340	94.367837027418	0.16267331477
0	9345	94.530510342188	0.014825966193
0	9350	94.545336308381	0.026533612596
0	9355	94.571869920977	0.069475063091
0	9360	94.641344984068	0.063984347633
0	9365	94.705329331701	0.040830510354
0	9370	94.746159842055	0.01179219012
0	9375	94.757952032175	0.013637826002
0	9380	94.771589858177	0.029221376385
0	9385	94.800811234562	0.009394654655
0	9390	94.810205889217	0.044909788344
0	9395	94.855115677561	0.011234049842
0	9400	94.866349727403	0.012098188252
0	9405	94.878447915655	0.118832452025
0	9410	94.99728036768	0.061537756277
0	9415	95.058818123957	0.00533012717
0	9419	95.064148251127	0.065574134703
0	9425	95.12972238583	0.128526270712
0	9430	95.258248656542	0.01638961967
0	9435	95.274638276212	0.105574944389
0	9440	95.380213220601	0.064941749913
0	9445	95.445154970514	0.05342049767
0	9450	95.498575468184	0.040497409949
0	9455	95.539072878133	0.111606131604
0	9460	95.650679009737	0.057592555786
0	9465	95.708271565523	0.064882104713
0	9470	95.773153670236	0.039371189239
0	9475	95.812524859475	0.205730142912
0	9480	96.018255002387	0.00076485506
0	9484	96.019019857447	0.058043112778
0	9490	96.077062970225	0.111445110475
0	9495	96.1885080807	0.055865203133
0	9500	96.244373283833	0.090165952892
0	9505	96.334539236725	0.013023596037
0	9510	96.347562832762	0.014987190961
0	9515	96.362550023723	0.131573216237
0	9521	96.49412323996	0.012412590025
0	9526	96.506535829985	0.022160623159
0	9531	96.528696453144	0.006620037021
0	9535	96.535316490165	0.011374289605
0	9541	96.54669077977	0.077762079313
0	9546	96.624452859083	0.189855349184
0	9551	96.814308208267	0.096892582957
0	9556	96.911200791224	0.104173671435
0	9561	97.015374462659	0.090333957355
0	9566	97.105708420014	0.018421023269
0	9571	97.124129443283	0.047253470709
0	9576	97.171382913992	0.109660814122
0	9583	97.281043728114	0.022799932171
0	9588	97.303843660285	0.047771063326
0	9593	97.351614723611	0.196575685917
0	9598	97.548190409528	0.092742177616
0	9603	97.640932587144	0.056779335254
0	9609	97.697711922398	0.05231699478
0	9614	97.750028917178	0.030182885384
0	9619	97.780211802562	0.120948084429
0	9624	97.901159886991	0.051739825275
0	9629	97.952899712266	0.048807668448
0	9634	98.001707380714	0.087839353401
0	9640	98.089546734115	0.009025868836
0	9645	98.098572602951	0.053762805165
0	9650	98.152335408116	0.038249194046
0	9655	98.190584602162	0.098660316108
0	9660	98.28924491827	0.043870372506
0	9665	98.333115290776	0.0075645957
0	9669	98.340679886476	0.045741687051
0	9675	98.386421573527	0.013664076164
0	9680	98.400085649691	0.074965091874
0	9685	98.475050741565	0.000282433009
0	9689	98.475333174574	0.015849822898
0	9695	98.491182997472	0.20410744078
0	9701	98.695290438252	0.05343779609
0	9706	98.748728234342	0.045357503081
0	9711	98.794085737423	0.064614222257
0	9716	98.85869995968	0.014912555275
0	9721	98.873612514955	0.012489459457
0	9726	98.886101974412	0.007924320754
0	9731	98.894026295166	0.002201145562
0	9735	98.896227440728	0.082404598683
0	9741	98.978632039411	0.053197313424
0	9746	99.031829352835	0.042641893105
0	9751	99.07447124594	0.031561809674
0	9756	99.106033055614	0.000235159602
0	9760	99.106268215216	0.050730822716
0	9766	99.156999037932	0.008089851741
0	9771	99.165088889673	0.156479205476
0	9776	99.321568095149	0.102496287411
0	9782	99.42406438256	0.002322339036
0	9786	99.426386721596	0.04187888484
0	9792	99.468265606436	0.016665202429
0	9797	99.484930808865	0.024858084889
0	9802	99.509788893754	0.02216411978
0	9807	99.531953013534	0.177870076851
0	9812	99.709823090385	0.048081063458
0	9817	99.757904153843	0.061430592566
0	9822	99.819334746409	0.187675950015
0	9827	100.007010696424	0.085788252541
0	9832	100.092798948965	0.01848508996
0	9837	100.111284038925	0.052096874549
0	9842	100.163380913474	0.016905601511
0	9847	100.180286514985	0.047772401431
0	9852	100.228058916416	0.077097769941
0	9857	100.305156686357	0.000312824235
0	9861	100.305469510592	0.009332458115
0	9866	100.314801968707	0.066838659893
0	9872	100.3816406286	0.073706964955
0	9877	100.455347593555	0.081758076655
0	9882	100.53710567021	0.077949685006
0	9887	100.615055355216	0.080748476662
0	9892	100.695803831878	0.028885745931
0	9897	100.724689577809	0.024067733008
0	9902	100.748757310817	0.045088063997
0	9907	100.793845374814	0.091703562155
0	9912	100.885548936969	0.045567335431
0	9917	100.9311162724	0.1098846222
0	9922	101.0410008946	0.037777232654
0	9927	101.078778127254	0.028322172863
0	9932	101.107100300117	0.004154783695
0	9936	101.111255083812	0.020638455708
0	9942	101.13189353952	0.06561295407
0	9947	101.19750649359	0.024890878502
0	9952	101.222397372092	0.04901011187
0	9957	101.271407483962	0.065446682126
0	9962	101.336854166088	0.000308070995
0	9966	101.337162237083	0.01154671986
0	9971	101.348708956943	0.096215865729
0	9977	101.444924822672	0.028242557187
0	9982	101.473167379859	0.102830657345
0	9987	101.575998037204	0.205831399754
0	9992	101.781829436958	0.066625878832
0	9997	101.84845531579	0.005330863601
0	10001	101.853786179391	0.132560914011
0	10007	101.986347093402	0.035223722336
0	10012	102.021570815738	0.085062630248
0	10017	102.106633445986	0.002298794467
0	10021	102.108932240453	0.026284468882
0	10027	102.135216709335	0.035413528501
0	10032	102.170630237836	0.075988906592
0	10037	102.246619144428	0.003242504705
0	10041	102.249861649133	0.135687260519
0	10047	102.385548909652	0.002122700101
0	10051	102.387671609753	0.059716808303
0	10057	102.447388418056	0.03524226278
0	10063	102.482630680836	0.109090971028
0	10069	102.591721651864	0.112867714578
0	10074	102.704589366442	0.034234293444
0	10079	102.738823659886	0.067414461524
0	10084	102.80623812141	0.014769761929
0	10089	102.821007883339	0.091068797333
0	10094	102.912076680672	0.008448344952
0	10099	102.920525025624	0.001477534612
0	10103	102.922002560236	0.002446509353
0	10106	102.924449069589	0.025682668194
0	10114	102.950131737783	0.132458151813
0	10119	103.082589889596	0.083534687855
0	10124	103.166124577451	0.113235865854
0	10129	103.279360443305	0.012313104017
0	10134	103.291673547322	0.088510471623
0	10139	103.380184018945	0.011373480818
0	10144	103.391557499763	0.025891917493
0	10149	103.417449417256	0.062119045344
0	10154	103.4795684626	0.097049382113
0	10159	103.576617844713	0.087708428385
0	10164	103.664326273098	0.044949858289
0	10169	103.709276131387	0.008309969986
0	10174	103.717586101373	0.011348442671
0	10179	103.728934544044	0.111926349596
0	10184	103.84086089364	0.002315168855
0	10188	103.843176062495	0.037969998439
0	10194	103.881146060934	0.000984229917
0	10198	103.882130290851	0.083480887526
0	10204	103.965611178377	0.037843767988
0	10209	104.003454946365	0.039242520572
0	10214	104.042697466937	0.047533665359
0	10219	104.090231132296	0.074836089592
0	10224	104.165067221888	0.035059134181
0	10229	104.200126356069	0.010184690251
0	10234	104.21031104632	0.031026298688
0	10239	104.241337345008	0.008502647461
0	10244	104.249839992469	9.3593482e-005
0	10248	104.249933585951	0.112269780101
0	10254	104.362203366052	0.013190544385
0	10259	104.375393910437	0.005986525289
0	10263	104.381380435726	0.090415049302
0	10269	104.471795485028	0.024004417344
0	10274	104.495799902372	0.109375359477
0	10279	104.605175261849	0.034030884823
0	10284	104.639206146672	0.000580128664
0	10288	104.639786275336	0.029084230105
0	10294	104.668870505441	0.033604112704
0	10299	104.702474618145	0.193596453174
0	10305	104.896071071319	0.080806473954
0	10310	104.976877545273	0.037870629142
0	10315	105.014748174415	5.4491005e-005
0	10319	105.01480266542	0.138407239966
0	10325	105.153209905386	0.029862392534
0	10330	105.18307229792	0.009556712228
0	10335	105.192629010148	0.010859414148
0	10340	105.203488424296	0.045362265465
0	10345	105.248850689761	0.041283483111
0	10350	105.290134172872	0.091763655957
0	10355	105.381897828829	0.183799334008
0	10360	105.565697162837	0.006737545628
0	10364	105.572434708465	0.010996134376
0	10370	105.583430842841	0.023726703111
0	10375	105.607157545952	0.005174802646
0	10379	105.612332348598	0.064602505276
0	10385	105.676934853874	0.037260871938
0	10390	105.714195725812	0.005156092138
0	10394	105.71935181795	0.024747931843
0	10400	105.744099749793	0.025650218583
0	10405	105.769749968376	0.108357034769
0	10410	105.878107003145	0.023341433078
0	10415	105.901448436223	0.011578722583
0	10420	105.913027158806	0.083274032372
0	10425	105.996301191178	0.035974282897
0	10430	106.032275474075	0.031944978397
0	10435	106.064220452472	0.079409149847
0	10440	106.143629602319	0.135351896076
0	10445	106.278981498395	0.033002084624
0	10450	106.311983583019	0.039524354909
0	10455	106.351507937928	0.001969196429
0	10459	106.353477134357	0.008781150746
0	10464	106.362258285103	0.000491830444
0	10467	106.362750115547	0.026361877567
0	10475	106.389111993114	0.135400130361
0	10480	106.524512123475	0.07546483991
0	10485	106.599976963385	0.019641864573
0	10490	106.619618827958	0.009322381103
0	10495	106.628941209061	0.051213832249
0	10500	106.68015504131	0.03160642729
0	10505	106.7117614686	0.118405638271
0	10510	106.830167106871	0.002062466638
0	10514	106.832229573509	0.06135993262
0	10520	106.893589506129	0.123646940564
0	10526	107.017236446693	0.040252545622
0	10531	107.057488992315	0.002407071539
0	10535	107.059896063854	0.006393573728
0	10540	107.066289637582	0.059926457764
0	10546	107.126216095346	0.169341711127
0	10551	107.295557806473	0.036686238896
0	10556	107.332244045369	0.085125153312
0	10561	107.417369198681	0.100616476946
0	10566	107.517985675627	0.020794393162
0	10571	107.538780068789	0.007756000171
0	10575	107.54653606896	0.008591583972
0	10581	107.555127652932	0.024676329489
0	10586	107.579803982421	0.014130390839
0	10591	107.59393437326	0.043475782138
0	10597	107.637410155398	0.100408185603
0	10602	107.737818341001	0.050269310998
0	10608	107.788087651999	0.018056312678
0	10613	107.806143964677	0.013916729685
0	10618	107.820060694362	0.052506912722
0	10623	107.872567607084	0.160611994726
0	10628	108.03317960181	0.155923095235
0	10633	108.189102697045	0.023727878926
0	10638	108.212830575971	0.075816412401
0	10643	108.288646988372	0.079065385261
0	10648	108.367712373633	0.025998405266
0	10653	108.393710778899	0.0553315796
0	10658	108.449042358499	0.04077239585
0	10663	108.489814754349	0.030362699122
0	10668	108.520177453471	0.032365199313
0	10673	108.552542652784	0.026016101625
0	10678	108.578558754409	0.040094572866
0	10683	108.618653327275	0.039055616574
0	10688	108.657708943849	0.022851034985
0	10693	108.680559978834	0.028074874771
0	10698	108.708634853605	0.012597773203
0	10703	108.721232626808	0.00133427141
0	10707	108.722566898218	0.034295260388
0	10713	108.756862158606	0.035902075297
0	10718	108.792764233903	0.047453066868
0	10723	108.840217300771	0.13527304401
0	10728	108.975490344781	0.129448464123
0	10733	109.104938808904	0.032667622582
0	10738	109.137606431486	0.028945897672
0	10743	109.166552329158	0.005535410552
0	10747	109.17208773971	0.012199483131
0	10753	109.184287222841	0.010568329863
0	10758	109.194855552704	0.081881244365
0	10763	109.276736797069	0.013218620298
0	10768	109.289955417367	0.124539481243
0	10773	109.41449489861	0.037007741727
0	10778	109.451502640337	0.075087972055
0	10784	109.526590612392	0.094447681363
0	10789	109.621038293755	0.019840446943
0	10794	109.640878740698	0.006103835328
0	10798	109.646982576026	0.013514971492
0	10804	109.660497547518	0.085873601825
0	10809	109.746371149343	0.001824426468
0	10813	109.748195575811	0.050452866082
0	10819	109.798648441893	0.020678257256
0	10824	109.819326699149	0.058618960263
0	10829	109.877945659412	0.163599944098
0	10834	110.04154560351	0.003660899752
0	10838	110.045206503262	0.011265512474
0	10843	110.056472015736	0.05529061174
0	10849	110.111762627476	0.007683695956
0	10853	110.119446323432	0.024712367489
0	10859	110.144158690921	0.002159675577
0	10863	110.146318366498	0.054354258224
0	10869	110.200672624722	0.072397827546
0	10874	110.273070452268	0.001061240717
0	10878	110.274131692985	0.059415727315
0	10884	110.3335474203	0.02326760059
0	10889	110.35681502089	0.021440741378
0	10894	110.378255762268	0.010710866942
0	10899	110.38896662921	0.01919204155
0	10904	110.40815867076	0.074741745784
0	10909	110.482900416544	0.026793362084
0	10914	110.509693778628	0.171841101424
0	10919	110.681534880052	0.078509920567
0	10925	110.760044800619	0.198640809913
0	10930	110.958685610532	0.029161996256
0	10935	110.987847606788	0.049105265379
0	10940	111.036952872167	0.02760681303
0	10945	111.064559685197	0.010781388359
0	10950	111.075341073556	0.041638520622
0	10955	111.116979594178	0.045133445904
0	10960	111.162113040082	0.154463889531
0	10965	111.316576929613	0.007047343137
0	10969	111.32362427275	0.017781656934
0	10975	111.341405929684	0.06137811695
0	10980	111.402784046634	0.024850916877
0	10985	111.427634963511	0.165892817759
0	10990	111.59352778127	0.027499590293
0	10995	111.621027371563	0.020979321247
0	11000	111.64200669281	0.018636247978
0	11005	111.660642940788	0.029516831048
0	11010	111.690159771836	0.06167440778
0	11015	111.751834179616	0.033092011788
0	11020	111.784926191404	0.029678345303
0	11025	111.814604536707	0.029633049566
0	11030	111.844237586273	0.0040515707
0	11034	111.848289156973	0.081674928244
0	11040	111.929964085217	0.11743229462
0	11045	112.047396379837	0.064400639819
0	11050	112.111797019656	0.03648961026
0	11055	112.148286629916	0.021908193357
0	11060	112.170194823273	0.078423571515
0	11065	112.248618394788	0.03749537863
0	11070	112.286113773418	0.02328839965
0	11075	112.309402173068	0.085102626714
0	11080	112.394504799782	0.18548992443
0	11087	112.579994724212	0.042233921726
0	11092	112.622228645938	0.109380161333
0	11097	112.731608807271	0.074001121984
0	11103	112.805609929255	0.049047767171
0	11108	112.854657696426	0.010807407512
0	11113	112.865465103938	0.11948582968
0	11119	112.984950933618	0.009565973653
0	11124	112.994516907271	0.050711753089
0	11130	113.04522866036	0.032925936984
0	11135	113.078154597344	0.186081005588
0	11140	113.264235602932	0.112525967165
0	11145	113.376761570097	0.039833469325
0	11150	113.416595039422	0.044306689599
0	11155	113.460901729021	0.09524029316
0	11160	113.556142022181	0.005126145638
0	11164	113.561268167819	0.024562882995
0	11170	113.585831050814	0.020056460723
0	11175	113.605887511537	0.026284529438
0	11180	113.632172040975	0.183191492472
0	11185	113.815363533447	0.058010804638
0	11190	113.873374338085	0.015380677929
0	11195	113.888755016014	0.041306243289
0	11200	113.930061259303	0.114676786446
0	11205	114.044738045749	0.011024745092
0	11210	114.055762790841	0.064346586668
0	11215	114.120109377509	0.037390719945
0	11220	114.157500097454	0.000467008891
0	11224	114.157967106345	0.047933854158
0	11230	114.205900960503	0.003775836173
0	11234	114.209676796676	0.02673391382
0	11240	114.236410710496	0.07715007943
0	11245	114.313560789926	0.030956321121
0	11250	114.344517111047	0.081395242053
0	11255	114.4259123531	0.018591732806
0	11260	114.444504085906	0.044601718303
0	11265	114.489105804209	0.035262820327
0	11271	114.524368624536	0.093025149972
0	11276	114.617393774508	0.016681200878
0	11281	114.634074975386	0.035390219016
0	11286	114.669465194402	0.016799094364
0	11291	114.686264288766	0.126907999447
0	11296	114.813172288213	0.009940117915
0	11301	114.823112406128	0.043605760187
0	11306	114.866718166315	0.002047383434
0	11310	114.868765549749	0.025934869858
0	11316	114.894700419607	0.157007289593
0	11321	115.0517077092	0.000510081386
0	11325	115.052217790586	0.008078873666
0	11330	115.060296664252	0.040651043373
0	11336	115.100947707625	0.067362258195
0	11342	115.16830996582	0.010513317269
0	11347	115.178823283089	0.026475854227
0	11352	115.205299137316	0.034434311285
0	11357	115.239733448601	0.022116405548
0	11362	115.261849854149	0.033680988614
0	11367	115.295530842763	0.029464299139
0	11372	115.324995141902	0.014124210139
0	11377	115.339119352041	0.132421384147
0	11382	115.471540736188	0.014190553954
0	11387	115.485731290142	0.144214069067
0	11392	115.629945359209	0.017983825888
0	11397	115.647929185097	0.117675149895
0	11402	115.765604334992	0.055301239653
0	11407	115.820905574645	0.00332930319
0	11411	115.824234877835	0.21270108321
0	11417	116.036935961045	0.084374233096
0	11422	116.121310194141	0.028203988238
0	11427	116.149514182379	0.012242112227
0	11432	116.161756294606	0.063276491757
0	11437	116.225032786363	0.052900269104
0	11442	116.277933055467	0.096691315318
0	11447	116.374624370785	0.115413618341
0	11452	116.490037989126	0.107045111936
0	11457	116.597083101062	0.00074094394
0	11461	116.597824045002	0.073541456412
0	11468	116.671365501414	0.026758972936
0	11473	116.69812447435	0.026050752552
0	11478	116.724175226902	0.003183952271
0	11482	116.727359179173	0.047845865289
[...]
4	39597	395.509999973962	0.007777777778
4	39602	395.561959868241	0.007777777778
4	39607	395.588984137448	0.007777777778
4	39612	395.752690983896	0.007777777778
4	39617	395.778245200046	0.007777777778
4	39622	395.819848249012	0.007777777778
4	39627	395.864531195913	0.007777777778
4	39633	395.94148557847	0.007777777778
4	39638	395.949263356248	0.010370193873
4	39643	395.957041134026	0.015103067008
4	39648	395.976260668838	0.007777777778
4	39653	396.011647735873	0.007777777778
4	39658	396.021899690746	0.007777777778
4	39663	396.06433913215	0.007777777778
4	39668	396.09548947675	0.007777777778
4	39673	396.103267254528	0.014507142545
4	39678	396.152243079424	0.007777777778
4	39683	396.173838225543	0.007777777778
4	39688	396.185508053815	0.007777777778
4	39693	396.259225881329	0.007777777778
4	39698	396.301387538119	0.007777777778
4	39703	396.339302488417	0.007777777778
4	39708	396.427733923135	0.007777777778
4	39713	396.466537614693	0.007777777778
4	39718	396.498101577096	0.007777777778
4	39723	396.539760620674	0.007777777778
4	39728	396.575122721969	0.007777777778
4	39733	396.637604406599	0.007777777778
4	39738	396.675675481023	0.007777777778
4	39743	396.683453258801	0.011831489722
4	39748	396.806845789381	0.007777777778
4	39753	396.924906835997	0.007777777778
4	39758	396.932684613775	0.00940969006
4	39763	396.954460416186	0.007777777778
4	39768	397.015174877705	0.007777777778
4	39773	397.032545957832	0.007777777778
4	39778	397.071619407346	0.007777777778
4	39783	397.122693505058	0.007777777778
4	39788	397.133304002973	0.007777777778
4	39793	397.186610674652	0.007777777778
4	39798	397.196743710794	0.007777777778
4	39803	397.244137420689	0.007777777778
4	39808	397.32714802937	0.007777777778
4	39813	397.334925807148	0.014047926048
4	39818	397.383201939082	0.007777777778
4	39823	397.534708093895	0.007777777778
4	39828	397.542485871673	0.010093970854
4	39833	397.589231635133	0.007777777778
4	39838	397.597009412911	0.011931542077
4	39843	397.604787190689	0.008403557072
4	39849	397.650026391778	0.007777777778
4	39854	397.657804169556	0.01142650448
4	39859	397.668095005978	0.007777777778
4	39864	397.687280449778	0.007777777778
4	39869	397.727299003699	0.007777777778
4	39874	397.781037616931	0.007777777778
4	39879	397.810475620604	0.007777777778
4	39884	397.908744754395	0.007777777778
4	39889	397.92093393293	0.007777777778
4	39895	397.978570737696	0.007777777778
4	39900	398.17723722942	0.007777777778
4	39905	398.23821484825	0.007777777778
4	39910	398.307266799166	0.007777777778
4	39916	398.393358290879	0.007777777778
4	39921	398.410879419062	0.007777777778
4	39928	398.526280562287	0.007777777778
4	39933	398.534058340065	0.01066399471
4	39938	398.75854673157	0.007777777778
4	39943	398.808297311752	0.007777777778
4	39948	398.840347894488	0.007777777778
4	39953	398.860514219932	0.007777777778
4	39958	398.86829199771	0.011740766865
4	39963	399.002778674352	0.007777777778
4	39971	399.01055645213	0.012770056174
4	39973	399.018334229908	0.015972608058
4	39978	399.179175761281	0.007777777778
4	39983	399.19337897839	0.007777777778
4	39988	399.299272769626	0.007777777778
4	39993	399.307050547404	0.008349256893
4	39998	399.314828325182	0.010284293529
4	40006	399.32260610296	0.014608321904
4	40008	399.330383880738	0.017297056431
4	40013	399.341739377676	0.007777777778
4	40018	399.351630401229	0.007777777778
4	40023	399.401419297957	0.007777777778
4	40028	399.442190504333	0.007777777778
4	40033	399.48494243375	0.007777777778
4	40038	399.519271611431	0.007777777778
4	40043	399.608339341718	0.007777777778
4	40048	399.652840366985	0.007777777778
4	40053	399.686032694306	0.007777777778
4	40058	399.717181485349	0.007777777778
4	40063	399.724959263127	0.009128274992
4	40069	399.757239004924	0.007777777778
4	40074	399.926583640328	0.007777777778
4	40079	399.945330152294	0.007777777778
5	1154	11.124568229771	0.20333497873261
5	1170	11.327903208504	0.18288876744003
5	1196	11.510791975944	0.10516066795756
5	1212	11.615952643902	0.49830840245006
5	1278	12.114261046352	0.24801610174036
5	1289	12.362277148092	0.96247170612775
5	1365	13.32474885422	1.791794057284
5	1666	15.116542911504	0.53090945317905
5	1726	15.647452364683	0.55646016589721
5	1768	16.20391253058	0.0024679209532776
5	1769	16.206380451533	1.4047551510912
5	1865	17.611135602624	2.1544425066031
5	2091	19.765578109227	5.7653033595327
5	2626	25.53088146876	2.1623670908893
5	2833	27.693248559649	8.3097216738495e-005
5	2834	27.693331656866	0.35726038073104
5	2835	28.050592037597	3.7278215580933
5	3241	31.77841359569	0.89057879892948
5	3372	32.668992394619	0.54321319581413
5	3422	33.212205590433	3.8363089415262
5	3774	37.048514531959	1.1443131347882
5	3874	38.192827666747	1.8649356417324
5	4001	40.057763308479	1.3968685335429
5	4122	41.454631842022	0.067289438543131
5	4128	41.521921280565	0.86478753862279
5	4219	42.386708819188	0.34919508122907
5	4245	42.735903900417	0.50242927316393
5	4281	43.238333173581	0.33958528982486
5	4337	43.577918463406	0.65310744809291
5	4398	44.231025911499	1.7285950590148
5	4549	45.959620970514	0.49583906596215
5	4600	46.455460036476	0.98398900372221
5	4686	47.439449040198	1.1000993678848
5	4812	48.539548408083	0.11707071306701
5	4833	48.65661912115	1.4111088594817
5	4944	50.067727980632	0.00052895134722598
5	4945	50.068256931979	1.7938492658317
5	5111	51.862106197811	2.8501825336207
5	5404	54.712288731432	0.18896451104824
5	5428	54.90125324248	0.15256947996146
5	5444	55.053822722441	0.2384519062791
5	5465	55.29227462872	0.54748359578186
5	5495	55.839758224502	2.0771603284692
5	5707	57.916918552971	0.42539658326799
5	5742	58.342315136239	0.5669191831344
5	5779	58.909234319373	2.0385689893938
5	6030	60.947803308767	2.0881025645106
5	6290	63.035905873278	0.55966896623856
5	6327	63.595574839517	0.63602272512855
5	6387	64.231597564646	1.7646394644553
5	6554	65.996237029101	0.36014939447804
5	6590	66.356386423579	1.2653229541486
5	6701	67.621709377728	1.4581015151263
5	6817	69.079810892854	0.12695500069398
5	6833	69.206765893548	0.010397633671016
5	6834	69.217163527219	0.9072917669612
5	6935	70.12445529418	1.1277630102956
5	7061	71.252218304476	0.13898198547566
5	7067	71.391200289952	0.63805478137557
5	7137	72.029255071328	0.080704854430123
5	7149	72.109959925758	1.0055737418324
5	7240	73.11553366759	1.7790718350447
5	7441	74.894605502635	2.5310802250138
5	7697	77.425685727649	0.62434081381329
5	7762	78.050026541462	0.14119726889195
5	7769	78.191223810354	0.17675206422629
5	7785	78.36797587458	1.8288177487077
5	7946	80.196793623288	0.79401843478638
5	8061	80.990812058074	1.2203045223403
5	8168	82.211116580414	0.88791180012966
5	8259	83.099028380544	3.4386499785112
5	8585	86.537678359055	1.4855101027356
5	8715	88.023188461791	2.3457528634042
5	8952	90.368941325195	1.066664479703
5	9068	91.435605804898	0.34645022319054
5	9084	91.782056028089	0.81578217957002
5	9165	92.597838207659	0.15950746488587
5	9196	92.757345672545	0.19631574532719
5	9207	92.953661417872	0.15228325912698
5	9223	93.105944676999	0.27520494131131
5	9254	93.38114961831	3.085630704819
5	9520	96.466780323129	0.7053303621002
5	9580	97.172110685229	0.00042364172624324
5	9581	97.172534326955	0.50541644245963
5	9608	97.677950769415	0.34349350868033
5	9639	98.021444278095	0.65981914975
5	9700	98.681263427845	0.67093623631534
5	9781	99.35219966416	3.1176704593806
5	10062	102.469870123541	0.030394643740058
5	10068	102.500264767281	2.3187366932867
5	10304	104.819001460568	2.1072206229684
5	10525	106.926222083536	0.70473267818058
5	10596	107.630954761717	0.11725604884238
5	10607	107.748210810559	1.7187031535342
5	10783	109.466913964093	1.2200755994156
5	10923	110.686989563509	1.758610597813
5	11085	112.445600161322	0.027576695860033
5	11086	112.473176857182	0.26374857373948
5	11101	112.736925430921	0.2104519356407
5	11118	112.947377366562	0.082355491459335
5	11129	113.029732858021	1.4749274018546
5	11270	114.504660259876	0.62691557282922
5	11341	115.131575832705	1.5080161995787
5	11467	116.639592032284	2.1117648130689
5	11713	118.751356845353	3.5399373027209
5	12054	122.291294148074	0.15958565988552
5	12059	122.45087980796	0.53196461740305
5	12121	122.982844425363	0.26299115708088
5	12147	123.245835582444	1.5887207365401
5	12343	124.834556318984	2.5003753836993
5	12589	127.334931702683	0.63244897864008
5	12650	127.967380681323	0.13818623900623
5	12671	128.105566920329	0.58512811716352
5	12727	128.690695037493	2.4818041795088
5	13008	131.172499217002	0.47374254052722
5	13074	131.646241757529	0.26761483829564
5	13095	131.913856595825	1.7331809433532
5	13261	133.647037539178	0.95707827573114
5	13352	134.604115814909	0.83207751591547
5	13448	135.436193330824	3.0280026216277
5	13794	138.464195952452	0.15079843240909
5	13805	138.614994384861	0.29454667299267
5	13846	138.909541057854	3.3787370763919
5	14247	142.288278134246	0.59830101574683
5	14308	142.886579149993	0.031663609574756
5	14309	142.918242759568	3.5942160214219
5	14680	146.51245878099	2.6373149120612
5	14971	149.149773693051	0.27360955011195
5	15017	149.423383243163	0.73887143826996
5	15098	150.162254681433	0.22149654506588
5	15123	150.383751226499	0.044739431363837
5	15129	150.428490657863	1.1645802204758
5	15201	151.593070878339	1.1912934180513
5	15332	152.78436429639	1.8643895084193
5	15477	154.648753804809	0.28447728150865
5	15504	154.933231086318	0.60388466635911
5	15535	155.537115752677	4.517754693795
5	16031	160.054870446472	0.10688392541354
5	16032	160.161754371886	1.529280392675
5	16152	161.691034764561	0.97510690495727
5	16284	162.666141669518	0.68714418484188
5	16355	163.35328585436	0.08716695712979
5	16361	163.44045281149	0.8867119600562
5	16462	164.327164771546	0.054738266418486
5	16468	164.381903037964	0.5463515189288
5	16539	164.928254556893	0.42385080803872
5	16580	165.352105364932	0.48982380752201
5	16620	165.841929172454	2.3588932880684
5	16831	168.200822460522	0.67141256502046
5	16948	168.872235025542	1.6024633407881
5	17104	170.47469836633	0.52922845167842
5	17160	171.003926818008	0.48487679901983
5	17211	171.488803617028	0.34542481065357
5	17277	171.834228427682	0.097310786987078
5	17283	171.931539214669	1.0385081058828
5	17409	172.970047320552	0.13550477219527
5	17420	173.105552092747	2.0554287908384
5	17616	175.160980883585	0.76442252932047
5	17697	175.925403412905	2.7519790886033
5	17973	178.677382501508	0.70786332394343
5	18049	179.385245825451	1.3329180928117
5	18130	180.718163918263	0.70024183868967
5	18201	181.418405756953	0.34535252100362
5	18232	181.763758277957	0.13536939684775
5	18248	181.899127674805	1.5223426699098
5	18379	183.421470344715	1.5668123731633
5	18510	184.988282717878	0.38472186818473
5	18550	185.373004586063	0.90646727963087
5	18612	186.279471865694	0.10532327389983
5	18633	186.384795139594	1.4178649919927
5	18759	187.802660131587	0.80222087087786
5	18834	188.604881002465	0.61500921490528
5	18901	189.21989021737	1.3394423745284
5	19102	190.559332591898	0.077377071740072
5	19103	190.636709663638	0.36470738197712
5	19149	191.001417045615	0.9225297717102
5	19225	191.923946817325	0.68854402212787
5	19295	192.612490839453	0.57199058457374
5	19372	193.184481424027	1.9049775561118
5	19523	195.089458980139	0.0064490516038626
5	19528	195.095908031743	1.4199291185616
5	19655	196.515837150305	0.047752073354421
5	19665	196.563589223659	0.40140760459512
5	19707	196.964996828254	0.54256124511531
5	19778	197.507558073369	0.78979215493297
5	19864	198.297350228302	2.1059157237952
5	20075	200.403265952097	1.0971094901041
5	20191	201.500375442201	0.5674271778529
5	20232	202.067802620054	3.8955319802543
5	20618	205.963334600308	1.0313094296923
5	20719	206.99464403	0.62994769823275
5	20775	207.624591728233	0.84013967586359
5	20856	208.464731404097	0.85651965105154
5	20961	209.321251055149	0.27467622577209
5	20988	209.595927280921	0.14188518598344
5	20999	209.737812466904	0.35056054111211
5	21030	210.088373008016	0.31061968795802
5	21071	210.398992695974	0.0050375887521367
5	21072	210.404030284726	1.8697785068702
5	21273	212.273808791596	0.13799109618169
5	21294	212.411799887778	0.27949803967098
5	21305	212.691297927449	0.75322636449161
5	21356	213.444524291941	0.69528098698719
5	21417	214.139805278928	1.0426904352314
5	21508	215.182495714159	0.23011971260792
5	21519	215.412615426767	0.15707724163672
5	21544	215.569692668404	0.31450525211217
5	21571	215.884197920516	1.1756745346807
5	21701	217.059872455197	1.2128617351097
5	21793	218.272734190307	0.93030140679173
5	21874	219.203035597099	0.91128259548385
5	21990	220.114318192583	3.311670650721
5	22360	223.425988843304	0.23097362616444
5	22382	223.656962469468	1.8505834760029
5	22553	225.507545945471	2.0892679785616
5	22784	227.596813924033	0.73046375173523
5	22870	228.327277675768	0.22981766602048
5	22885	228.557095341788	0.92501671080806
5	22947	229.482112052596	0.24441521892827
5	22968	229.726527271524	0.089373182094616
5	22974	229.815900453619	0.024984897340393
5	22975	229.840885350959	3.0912400552928
5	23316	232.932125406252	0.028430425837354
5	23317	232.960555832089	2.254756875646
5	23518	235.215312707735	0.68512606975778
5	23588	235.900438777493	0.81723116542197
5	23675	236.717669942915	0.52177337194898
5	23726	237.239443314864	0.3313085284171
5	23767	237.570751843281	0.059085306979193
5	23787	237.62983715026	1.0199578874867
5	23894	238.649795037747	1.7557595779077
5	24065	240.405554615655	0.53961630593862
5	24106	240.945170921594	0.043150706774295
5	24107	240.988321628368	0.98680038714652
5	24198	241.975122015515	0.0462318460179
5	24199	242.021353861533	0.50489432745552
5	24249	242.526248188989	0.45181950380112
5	24301	242.97806769279	0.3592685403921
5	24357	243.337336233182	0.15223218597
5	24368	243.489568419152	0.50740587141904
5	24439	243.996974290571	0.53371533399806
5	24522	244.530689624569	1.8956845040062
5	24740	246.426374128575	1.1839520655739
5	24919	247.610326194149	1.8247292707807
5	25098	249.43505546493	0.17844288909694
5	25114	249.613498354027	0.33600482245601
5	25140	249.949503176483	0.36402672334753
5	25190	250.313529899831	0.4137870630086
5	25217	250.72731696284	0.11161633253014
5	25218	250.83893329537	0.6614391650474
5	25299	251.500372460417	4.5224359001759
5	25720	256.022808360593	0.48530628746558
5	25771	256.508114648059	0.15818242579931
5	25777	256.666297073858	0.39866928181745
5	25818	257.064966355675	0.10993378566842
5	25824	257.174900141343	0.75290394222618
5	25900	257.927804083569	0.13628403398899
5	25906	258.064088117558	0.10190534006696
5	25926	258.165993457625	1.5304361462865
5	26043	259.696429603911	0.023657581268293
5	26044	259.720087185179	0.17944323211894
5	26055	259.899530417298	0.2107687551938
5	26076	260.110299172492	0.021524164601838
5	26077	260.131823337094	3.2792269311665
5	26403	263.41105026826	0.37431300475144
5	26444	263.785363273011	1.4311082769788
5	26565	265.21647154999	0.0019155008245412
5	26566	265.218387050815	0.73687014179508
5	26627	265.95525719261	0.046862315013634
5	26640	266.002119507624	0.1305042462782
5	26649	266.132623753902	0.22565509679312
5	26670	266.358278850695	6.5618149150481
5	27331	272.920093765743	0.79288235564804
5	27412	273.712976121391	2.1915997438826
5	27663	275.904575865274	2.1938680394121
5	27874	278.098443904686	3.2100353503559
5	28175	281.308479255042	0.078530834409488
5	28181	281.387010089451	0.83191613771683
5	28269	282.218926227168	1.5773592072171
5	28463	283.796285434385	0.35415369502735
5	28494	284.150439129412	1.6304885706277
5	28620	285.78092770004	0.2048039026035
5	28631	285.985731602643	0.98431602988136
5	28722	286.970047632524	1.5180115449138
5	28878	288.488059177438	1.4613596875104
5	29034	289.949418864948	0.16867282425326
5	29050	290.118091689201	0.95307553604273
5	29145	291.071167225244	0.91909201326505
5	29262	291.990259238509	1.4704049450769
5	29408	293.460664183586	1.3395635562762
5	29584	294.800227739862	0.26763486241503
5	29600	295.067862602277	0.83543473062176
5	29646	295.903297332899	1.2009952583385
5	29772	297.104292591238	1.5817221078993
5	29953	298.686014699137	1.1098089122204
5	30059	299.795823611357	2.6208640254287
5	30219	302.416687636786	1.456383780141
5	30346	303.873071416927	0.084319246470041
5	30352	303.957390663397	0.68334768991695
5	30442	304.640738353314	0.12388415738924
5	30454	304.764622510703	0.3526208798087
5	30475	305.117243390512	0.12081401392146
5	30486	305.238057404433	0.46284052406609
5	30532	305.700897928499	0.3395831991219
5	30558	306.040481127621	0.72260846779621
5	30638	306.763089595417	0.80162900899739
5	30725	307.564718604414	2.3673125613203
5	30940	309.932031165734	0.58814518469769
5	30992	310.520176350432	1.5409637072803
5	31163	312.061140057712	0.5969228382868
5	31214	312.658062895999	1.4464340132739
5	31385	314.104496909273	1.1668535228603
5	31495	315.271350432133	1.7213545560234
5	31642	316.992704988156	0.16116457865519
5	31668	317.153869566811	1.2672146140048
5	31798	318.421084180816	0.12743858864578
5	31815	318.548522769462	1.2422555014209
5	31986	319.790778270883	0.15158304075542
5	32012	319.942361311638	0.52676044562512
5	32048	320.469121757263	1.8618653459277
5	32239	322.330987103191	1.1790381956623
5	32370	323.510025298853	0.46447299294476
5	32401	323.974498291798	0.58275563682673
5	32432	324.557253928625	0.94503409115488
5	32507	325.50228801978	0.72703570170466
5	32589	326.229323721485	2.415841489793
5	32840	328.645165211278	0.63554085328887
5	32896	329.280706064567	0.20217656027917
5	32932	329.482882624846	0.10884202314475
5	32948	329.591724647991	0.051418598259515
5	32953	329.643143246251	0.34387702918085
5	33000	329.987020275432	0.30591988315333
5	33016	330.292940158585	2.8418181347935
5	33287	333.134758293378	0.4785316798405
5	33323	333.613289973218	0.20365700405398
5	33349	333.816946977272	0.76763053777749
5	33400	334.584577515049	0.40393306269851
5	33435	334.988510577748	0.23058702641052
5	33467	335.219097604159	1.0289990932322
5	33582	336.248096697391	1.4176403477262
5	33734	337.665737045117	1.1553849374055
5	33860	338.821121982523	0.96035100703469
5	34021	339.781472989558	2.5180279935511
5	34266	342.299500983109	1.5091948158228
5	34413	343.808695798932	4.5675815784433
5	34859	348.376277377375	0.21599127375892
5	34880	348.592268651134	0.24213055402686
5	34901	348.834399205161	0.28234196699139
5	34927	349.116741172152	0.96173157592967
5	35023	350.078472748082	1.0232177888761
5	35173	351.101690536958	0.22314353786824
5	35205	351.324834074826	0.51100456608913
5	35255	351.835838640915	1.6722953126338
5	35467	353.508133953549	3.2893376600208
5	35828	356.79747161357	0.41568985474104
5	35864	357.213161468311	1.4425176671183
5	36005	358.655679135429	0.034330781680631
5	36011	358.69000991711	0.18728342666814
5	36027	358.877293343778	0.89340317086939
5	36133	359.770696514647	0.12689778685407
5	36144	359.897594301501	3.3326537562839
5	36465	363.230248057785	0.4008801194675
5	36491	363.631128177253	0.64050082253931
5	36567	364.271628999792	1.6025712384068
5	36708	365.874200238199	1.8265506790057
5	36894	367.700750917205	0.92908981671816
5	37010	368.629840733923	0.22800592239395
5	37041	368.857846656317	0.24525389028081
5	37066	369.103100546598	0.16367999109532
5	37098	369.266780537693	0.029196081803323
5	37099	369.295976619496	0.67118661299596
5	37160	369.967163232492	0.7191083877701
5	37216	370.686271620262	4.0420080531187
5	37577	374.728279673381	2.8057543649692
5	37848	377.53403403835	1.8367681511272
5	38049	379.370802189477	0.85931677051952
5	38115	380.230118959997	0.028756302922715
5	38116	380.25887526292	3.0627503050182
5	38462	383.321625567938	0.59217085726862
5	38563	383.913796425207	0.65524796811624
5	38599	384.569044393323	0.48690630291908
5	38665	385.055950696242	4.6875622514157
5	39126	389.743512947658	3.4831938569612
5	39402	393.226706804619	0.67973413650565
5	39468	393.906440941125	0.2218801819847
5	39479	394.12832112311	1.7594890903354
5	39630	395.887810213445	1.7230632923913
5	39845	397.610873505836	0.32335407987921
5	39892	397.934227585715	0.44310159192355
5	39913	398.377329177639	0.070228607826907
5	39924	398.447557785466	0.0088306992792591
5	39925	398.456388484745	1.2778350058449
5	40066	399.73422349059	1.771672800567

