file 1437953 1612888993                                         
version 2
run Non-monitoring-9-20210209-17:43:13-31068
attr configname Non-monitoring
attr datetime 20210209-17:43:13
attr experiment Non-monitoring
attr inifile aerocom.ini
attr iterationvars ""
attr iterationvarsf ""
attr measurement ""
attr network Aerocom
attr processid 31068
attr repetition 9
attr replication #9
attr resultdir results
attr runnumber 9
attr seedset 9
param **.t 1s
param **.k 50ms
param **.nA 1
param **.nDL 1
param **.s "70 byte"
param **.X 0s
param **.dimPoolMax 9000
param **.dimPoolMin 9000
param **.tDistribution "\"exponential\""
param **.m 1s
param **.DLMaxCapacity 0
param **.trasmitting false
param **.operationMode 1

vector 0 Aerocom.aircraft[0].packetGenerator arrivalTime:vector ETV
attr "" ""
attr source computeArrivalTime
vector 1 Aerocom.aircraft[0].dataLink[0] queueLength:vector ETV
attr "" ""
attr source computeQueueLength
vector 2 Aerocom.aircraft[0].dataLink[0] waitingTime:vector ETV
attr "" ""
attr source computeWaitingTime
vector 3 Aerocom.aircraft[0].dataLink[0] serviceTime:vector ETV
attr "" ""
attr source computeServiceTime
vector 4 Aerocom.aircraft[0].dataLink[0] responseTime:vector ETV
attr "" ""
attr source computeResponseTime
vector 5 Aerocom.aircraft[0].dataLink[0] tDistribution:vector ETV
attr "" ""
attr source computeTDistribution
0	1345 314991 946 40347 10.038235033635 399.961296552427 7810 1.4818292e-005 0.640809507755 389.98983523468 39.012530483444
1	316336 214259 948 40349 10.038235033635 399.961296552427 7810 0 2 109 133
2	530595 229801 948 40349 10.038235033635 399.961296552427 7810 0 0.022011432415 5.504264572479 0.036627820441398
3	760396 346987 948 40349 10.038235033635 399.961296552427 7810 0.0077777777777778 0.0077777777777778 60.744444444438 0.4724567901235
4	1107383 315609 948 40349 10.038235033635 399.961296552427 7810 0.007777777778 0.029789210193 66.248709018667 0.594706503944
5	1422992 14959 951 40231 10.066257790323 398.841835749494 356 6.3499123502667e-005 7.024733637238 390.39525147033 816.74586613827

