file 12177423 1609352360                                        
version 2
run non-monitoring-0-20201230-19:18:44-11404
attr configname non-monitoring
attr datetime 20201230-19:18:44
attr experiment non-monitoring
attr inifile aerocom.ini
attr iterationvars $0=4s
attr iterationvarsf 4s-
attr measurement $0=4s
attr network Aerocom
attr processid 11404
attr repetition 0
attr replication #0
attr resultdir results
attr runnumber 0
attr seedset 0
param **.t 0.5s
param **.k 0.5s
param **.nDL 1
param **.dataLink[*].s "1500 byte"
param **.dataLink[*].X 0
param **.dataLink[*].dimPoolMax 400
param **.dataLink[*].dimPoolMin 100
param **.dataLink[*].tDistribution "\"exponential\""
param **.aircraft[*].m 4s
param **.aircraft[*].linkSelector.DLMaxCapacity 0
param **.aircraft[*].linkSelector.trasmitting false
param **.operationMode 1

vector 0 Aerocom.aircraft[0].dataLink[0] queueLength:vector ETV
attr "" ""
attr source computeQueueLength
vector 1 Aerocom.aircraft[0].dataLink[0] waitingTime:vector ETV
attr "" ""
attr source computeWaitingTime
vector 2 Aerocom.aircraft[0].dataLink[0] responseTime:vector ETV
attr "" ""
attr source computeResponseTime
0	1125 1139411 83960 220185 10000.335380543637 26319.464179132675 32768 18466 48588 1098680637 39314945090869
0	1140536 1143167 220192 356214 26320.654348163831 42626.805892038358 32768 48589 78707 2085589703 1.3522223266327e+014
0	2283703 1152800 356218 492223 42626.988541140419 58847.523085822318 32768 78708 108842 3072777912 2.9062509669618e+014
0	3436503 1176186 492228 628820 58848.041532348462 75301.923510937212 32768 108843 138923 4059172695 5.053047107373e+014
0	4612689 1175944 628825 765443 75302.243373671363 91769.385324265298 32768 138924 169024 5045638058 7.7940332266068e+014
0	5788633 1192584 765448 902166 91770.205778160665 108287.039274660405 32768 169024 199070 6030709489 1.1123720653917e+015
0	6981217 1218079 902171 1038700 108287.34256221346 124656.625134461921 32768 199071 229160 7016096521 1.5047221993253e+015
0	8199296 1241564 1038704 1175837 124657.390967877016 141264.539999955219 32768 229161 259220 8001733262 1.9564426890787e+015
0	9440860 664413 1175841 1248809 141265.128028657286 149999.848571743832 17535 259221 275348 4686824515 1.2530928917841e+015
1	10105273 1036074 83980 1248775 10003.397937252283 149997.397937252283 22796 9175.1703808402 137826.339707 1676097649.9873 1.5465227826436e+014
2	11141347 1036074 83980 1248775 10003.397937252283 149997.397937252283 22796 9186.1703808402 137832.339707 1676237649.9873 1.5467285260601e+014

