file 764663 1612807841                                          
version 2
run Non-monitoring-6-20210208-19:10:41-5260
attr configname Non-monitoring
attr datetime 20210208-19:10:41
attr experiment Non-monitoring
attr inifile aerocom.ini
attr iterationvars ""
attr iterationvarsf ""
attr measurement ""
attr network Aerocom
attr processid 5260
attr repetition 6
attr replication #6
attr resultdir results
attr runnumber 6
attr seedset 6
param **.t 1s
param **.k 15ms
param **.nA 1
param **.nDL 10
param **.s "70 byte"
param **.X 5s
param **.dimPoolMax 10000
param **.dimPoolMin 8000
param **.tDistribution "\"lognormal\""
param **.m 1s
param **.DLMaxCapacity 0
param **.trasmitting false
param **.operationMode 1

vector 0 Aerocom.aircraft[0].packetGenerator arrivalTime:vector ETV
attr "" ""
attr source computeArrivalTime
vector 1 Aerocom.aircraft[0].dataLink[0] serviceTime:vector ETV
attr "" ""
attr source computeServiceTime
vector 2 Aerocom.aircraft[0].dataLink[0] tDistribution:vector ETV
attr "" ""
attr source computeTDistribution
vector 3 Aerocom.aircraft[0].dataLink[1] serviceTime:vector ETV
attr "" ""
attr source computeServiceTime
vector 4 Aerocom.aircraft[0].dataLink[1] tDistribution:vector ETV
attr "" ""
attr source computeTDistribution
vector 5 Aerocom.aircraft[0].dataLink[2] serviceTime:vector ETV
attr "" ""
attr source computeServiceTime
vector 6 Aerocom.aircraft[0].dataLink[2] tDistribution:vector ETV
attr "" ""
attr source computeTDistribution
vector 7 Aerocom.aircraft[0].dataLink[3] serviceTime:vector ETV
attr "" ""
attr source computeServiceTime
vector 8 Aerocom.aircraft[0].dataLink[3] tDistribution:vector ETV
attr "" ""
attr source computeTDistribution
vector 9 Aerocom.aircraft[0].dataLink[4] serviceTime:vector ETV
attr "" ""
attr source computeServiceTime
vector 10 Aerocom.aircraft[0].dataLink[4] tDistribution:vector ETV
attr "" ""
attr source computeTDistribution
vector 11 Aerocom.aircraft[0].dataLink[5] serviceTime:vector ETV
attr "" ""
attr source computeServiceTime
vector 12 Aerocom.aircraft[0].dataLink[5] tDistribution:vector ETV
attr "" ""
attr source computeTDistribution
vector 13 Aerocom.aircraft[0].dataLink[6] serviceTime:vector ETV
attr "" ""
attr source computeServiceTime
vector 14 Aerocom.aircraft[0].dataLink[6] tDistribution:vector ETV
attr "" ""
attr source computeTDistribution
vector 15 Aerocom.aircraft[0].dataLink[7] serviceTime:vector ETV
attr "" ""
attr source computeServiceTime
vector 16 Aerocom.aircraft[0].dataLink[7] tDistribution:vector ETV
attr "" ""
attr source computeTDistribution
vector 17 Aerocom.aircraft[0].dataLink[8] serviceTime:vector ETV
attr "" ""
attr source computeServiceTime
vector 18 Aerocom.aircraft[0].dataLink[8] tDistribution:vector ETV
attr "" ""
attr source computeTDistribution
vector 19 Aerocom.aircraft[0].dataLink[9] serviceTime:vector ETV
attr "" ""
attr source computeServiceTime
vector 20 Aerocom.aircraft[0].dataLink[9] tDistribution:vector ETV
attr "" ""
attr source computeTDistribution
vector 21 Aerocom.aircraft[0].dataLink[6] queueLength:vector ETV
attr "" ""
attr source computeQueueLength
vector 22 Aerocom.aircraft[0].dataLink[6] waitingTime:vector ETV
attr "" ""
attr source computeWaitingTime
vector 23 Aerocom.aircraft[0].dataLink[6] responseTime:vector ETV
attr "" ""
attr source computeResponseTime
0	3355 160721 0 20652 0 59.987128901422 4114 2.936678e-006 0.123100666549 60.007644206094 1.7539993715018
1	164076 26 0 0 0 0 1 0.0080450522928399 0.0080450522928399 0.0080450522928399 6.4722866394529e-005
2	164102 382 0 8896 0 26.012564776838 10 0.21655063928087 80.447845257398 106.46041003423 6675.6353796007
3	164484 26 0 0 0 0 1 0.0080183276059565 0.0080183276059565 0.0080183276059565 6.4293577596444e-005
4	164510 230 0 19206 0 55.735197258387 6 0.022959852906405 21.997503465771 77.732700724159 1532.0462988679
5	164740 26 0 0 0 0 1 0.0083782166367445 0.0083782166367445 0.0083782166367445 7.0194514012222e-005
6	164766 634 0 13449 0 38.686535973067 16 0.11210012095229 37.04925854934 75.73579452241 1661.6389041654
7	165400 26 0 0 0 0 1 0.0085241110569898 0.0085241110569898 0.0085241110569898 7.2660469311895e-005
8	165426 64 0 12937 0 37.322053190492 2 37.322053190492 268.76894226398 306.09099545447 73629.679980052
9	165490 26 0 0 0 0 1 0.0076687116564417 0.0076687116564417 0.0076687116564417 5.8809138469645e-005
10	165516 427 0 14893 0 42.793960545306 11 0.1421784113531 63.807017088741 106.60097763405 4388.9563781672
11	165943 27 0 0 0 0 1 0.0070521861777151 0.0070521861777151 0.0070521861777151 4.9733329885156e-005
12	165970 187 0 15273 0 44.173541733987 5 0.13280474500103 223.19597092599 267.36951265998 51537.805344149
13	166157 181352 0 20655 0 59.991546471567 4114 0.0072366380647162 0.0083672005737509 31.108361788832 0.23550409329414
14	347509 570 0 15657 0 45.139484145644 14 0.038890588535536 22.291765745126 64.617568477793 984.91159949355
15	348079 26 0 0 0 0 1 0.007427843803056 0.007427843803056 0.007427843803056 5.5172863562598e-005
16	348105 430 0 16234 0 46.979613241243 11 0.38238304121273 16.502450484824 62.323706894483 792.91514679025
17	348535 27 0 0 0 0 1 0.0083993280537557 0.0083993280537557 0.0083993280537557 7.0548711754607e-005
18	348562 24 0 0 0 0 1 125.43898974692 125.43898974692 125.43898974692 15734.940148728
19	348586 27 0 0 0 0 1 0.0081928838951311 0.0081928838951311 0.0081928838951311 6.7123346519098e-005
20	348613 190 0 19672 0 57.289306938538 5 0.070099758824181 210.72400954661 268.01331648514 46154.604479324
21	348803 111825 14 20654 0.015763379456 59.987128901422 4113 0 6 1145 2203
22	460628 139175 14 20655 0.015763379456 59.991546471567 4113 0 0.048842169931 16.769132287982 0.22665766811254
23	599803 164858 14 20655 0.015763379456 59.991546471567 4113 0.007236638065 0.056908544672 47.869901885853 0.71747354307352

