file 6708 1612439758                                            
version 2
run non-monitoring-1-20210204-12:55:58-13292
attr configname non-monitoring
attr datetime 20210204-12:55:58
attr experiment non-monitoring
attr inifile aerocom.ini
attr iterationvars ""
attr iterationvarsf ""
attr measurement ""
attr network Aerocom
attr processid 13292
attr repetition 1
attr replication #1
attr resultdir results
attr runnumber 1
attr seedset 1
param **.t 1s
param **.k 1s
param **.nA 10
param **.nDL 10
param **.dataLink[*].s "70 byte"
param **.dataLink[*].X 5s
param **.dataLink[*].dimPoolMax 9000
param **.dataLink[*].dimPoolMin 9000
param **.dataLink[*].tDistribution "\"exponential\""
param **.aircraft[*].m 1s
param **.aircraft[*].linkSelector.DLMaxCapacity 0
param **.aircraft[*].linkSelector.trasmitting false
param **.operationMode 1

vector 0 Aerocom.aircraft[0].packetGenerator arrivalTime:vector ETV
attr "" ""
attr source computeArrivalTime
vector 1 Aerocom.aircraft[0].dataLink[0] serviceTime:vector ETV
attr "" ""
attr source computeServiceTime
vector 2 Aerocom.aircraft[0].dataLink[0] tDistribution:vector ETV
attr "" ""
attr source computeTDistribution
vector 3 Aerocom.aircraft[0].dataLink[1] serviceTime:vector ETV
attr "" ""
attr source computeServiceTime
vector 4 Aerocom.aircraft[0].dataLink[1] tDistribution:vector ETV
attr "" ""
attr source computeTDistribution
vector 5 Aerocom.aircraft[0].dataLink[2] serviceTime:vector ETV
attr "" ""
attr source computeServiceTime
vector 6 Aerocom.aircraft[0].dataLink[2] tDistribution:vector ETV
attr "" ""
attr source computeTDistribution
vector 7 Aerocom.aircraft[0].dataLink[3] serviceTime:vector ETV
attr "" ""
attr source computeServiceTime
vector 8 Aerocom.aircraft[0].dataLink[3] tDistribution:vector ETV
attr "" ""
attr source computeTDistribution
vector 9 Aerocom.aircraft[0].dataLink[4] serviceTime:vector ETV
attr "" ""
attr source computeServiceTime
vector 10 Aerocom.aircraft[0].dataLink[4] tDistribution:vector ETV
attr "" ""
attr source computeTDistribution
vector 11 Aerocom.aircraft[0].dataLink[5] serviceTime:vector ETV
attr "" ""
attr source computeServiceTime
vector 12 Aerocom.aircraft[0].dataLink[5] tDistribution:vector ETV
attr "" ""
attr source computeTDistribution
vector 13 Aerocom.aircraft[0].dataLink[6] serviceTime:vector ETV
attr "" ""
attr source computeServiceTime
vector 14 Aerocom.aircraft[0].dataLink[6] tDistribution:vector ETV
attr "" ""
attr source computeTDistribution
vector 15 Aerocom.aircraft[0].dataLink[7] serviceTime:vector ETV
attr "" ""
attr source computeServiceTime
vector 16 Aerocom.aircraft[0].dataLink[7] tDistribution:vector ETV
attr "" ""
attr source computeTDistribution
vector 17 Aerocom.aircraft[0].dataLink[8] serviceTime:vector ETV
attr "" ""
attr source computeServiceTime
vector 18 Aerocom.aircraft[0].dataLink[8] tDistribution:vector ETV
attr "" ""
attr source computeTDistribution
vector 19 Aerocom.aircraft[0].dataLink[9] serviceTime:vector ETV
attr "" ""
attr source computeServiceTime
vector 20 Aerocom.aircraft[0].dataLink[9] tDistribution:vector ETV
attr "" ""
attr source computeTDistribution
vector 21 Aerocom.aircraft[1].packetGenerator arrivalTime:vector ETV
attr "" ""
attr source computeArrivalTime
vector 22 Aerocom.aircraft[1].dataLink[0] serviceTime:vector ETV
attr "" ""
attr source computeServiceTime
vector 23 Aerocom.aircraft[1].dataLink[0] tDistribution:vector ETV
attr "" ""
attr source computeTDistribution
vector 24 Aerocom.aircraft[1].dataLink[1] serviceTime:vector ETV
attr "" ""
attr source computeServiceTime
vector 25 Aerocom.aircraft[1].dataLink[1] tDistribution:vector ETV
attr "" ""
attr source computeTDistribution
vector 26 Aerocom.aircraft[1].dataLink[2] serviceTime:vector ETV
attr "" ""
attr source computeServiceTime
vector 27 Aerocom.aircraft[1].dataLink[2] tDistribution:vector ETV
attr "" ""
attr source computeTDistribution
vector 28 Aerocom.aircraft[1].dataLink[3] serviceTime:vector ETV
attr "" ""
attr source computeServiceTime
vector 29 Aerocom.aircraft[1].dataLink[3] tDistribution:vector ETV
attr "" ""
attr source computeTDistribution
vector 30 Aerocom.aircraft[1].dataLink[4] serviceTime:vector ETV
attr "" ""
attr source computeServiceTime
vector 31 Aerocom.aircraft[1].dataLink[4] tDistribution:vector ETV
attr "" ""
attr source computeTDistribution
vector 32 Aerocom.aircraft[1].dataLink[5] serviceTime:vector ETV
attr "" ""
attr source computeServiceTime
vector 33 Aerocom.aircraft[1].dataLink[5] tDistribution:vector ETV
attr "" ""
attr source computeTDistribution
vector 34 Aerocom.aircraft[1].dataLink[6] serviceTime:vector ETV
attr "" ""
attr source computeServiceTime
vector 35 Aerocom.aircraft[1].dataLink[6] tDistribution:vector ETV
attr "" ""
attr source computeTDistribution
vector 36 Aerocom.aircraft[1].dataLink[7] serviceTime:vector ETV
attr "" ""
attr source computeServiceTime
vector 37 Aerocom.aircraft[1].dataLink[7] tDistribution:vector ETV
attr "" ""
attr source computeTDistribution
vector 38 Aerocom.aircraft[1].dataLink[8] serviceTime:vector ETV
attr "" ""
attr source computeServiceTime
vector 39 Aerocom.aircraft[1].dataLink[8] tDistribution:vector ETV
attr "" ""
attr source computeTDistribution
vector 40 Aerocom.aircraft[1].dataLink[9] serviceTime:vector ETV
attr "" ""
attr source computeServiceTime
vector 41 Aerocom.aircraft[1].dataLink[9] tDistribution:vector ETV
attr "" ""
attr source computeTDistribution
vector 42 Aerocom.aircraft[2].packetGenerator arrivalTime:vector ETV
attr "" ""
attr source computeArrivalTime
0	5615 22 0 0 0 0 1 0.800282390893 0.800282390893 0.800282390893 0.64045190517342
1	5637 26 0 0 0 0 1 0.0077777777777778 0.0077777777777778 0.0077777777777778 6.0493827160494e-005
2	5663 24 0 0 0 0 1 0.25101997769202 0.25101997769202 0.25101997769202 0.063011029200501
3	5687 26 0 0 0 0 1 0.0077777777777778 0.0077777777777778 0.0077777777777778 6.0493827160494e-005
4	5713 25 0 0 0 0 1 0.056760973621286 0.056760973621286 0.056760973621286 0.0032218081264363
5	5738 26 0 0 0 0 1 0.0077777777777778 0.0077777777777778 0.0077777777777778 6.0493827160494e-005
6	5764 22 0 0 0 0 1 2.045869857952 2.045869857952 2.045869857952 4.1855834756767
7	5786 26 0 0 0 0 1 0.0077777777777778 0.0077777777777778 0.0077777777777778 6.0493827160494e-005
8	5812 23 0 0 0 0 1 1.7797983296482 1.7797983296482 1.7797983296482 3.1676820942185
9	5835 26 0 0 0 0 1 0.0077777777777778 0.0077777777777778 0.0077777777777778 6.0493827160494e-005
10	5861 25 0 0 0 0 1 0.23157796371086 0.23157796371086 0.23157796371086 0.053628353276468
11	5886 27 0 0 0 0 1 0.0077777777777778 0.0077777777777778 0.0077777777777778 6.0493827160494e-005
12	5913 25 0 0 0 0 1 0.45214311467518 0.45214311467518 0.45214311467518 0.20443339614817
13	5938 27 0 0 0 0 1 0.0077777777777778 0.0077777777777778 0.0077777777777778 6.0493827160494e-005
14	5965 24 0 0 0 0 1 2.5085139752147 2.5085139752147 2.5085139752147 6.2926423638473
15	5989 27 0 0 0 0 1 0.0077777777777778 0.0077777777777778 0.0077777777777778 6.0493827160494e-005
16	6016 24 0 0 0 0 1 3.8846509427469 3.8846509427469 3.8846509427469 15.090512946984
17	6040 27 0 0 0 0 1 0.0077777777777778 0.0077777777777778 0.0077777777777778 6.0493827160494e-005
18	6067 25 0 0 0 0 1 0.67023408205039 0.67023408205039 0.67023408205039 0.44921372474192
19	6092 27 0 0 0 0 1 0.0077777777777778 0.0077777777777778 0.0077777777777778 6.0493827160494e-005
20	6119 25 0 0 0 0 1 0.09411403299543 0.09411403299543 0.09411403299543 0.0088574512066649
21	6144 23 0 0 0 0 1 0.073350437964 0.073350437964 0.073350437964 0.0053802867495106
22	6167 27 0 0 0 0 1 0.0077777777777778 0.0077777777777778 0.0077777777777778 6.0493827160494e-005
23	6194 25 0 0 0 0 1 0.94609000658648 0.94609000658648 0.94609000658648 0.89508630056281
24	6219 27 0 0 0 0 1 0.0077777777777778 0.0077777777777778 0.0077777777777778 6.0493827160494e-005
25	6246 25 0 0 0 0 1 0.50540137246879 0.50540137246879 0.50540137246879 0.25543054729333
26	6271 27 0 0 0 0 1 0.0077777777777778 0.0077777777777778 0.0077777777777778 6.0493827160494e-005
27	6298 24 0 0 0 0 1 1.4520404809918 1.4520404809918 1.4520404809918 2.1084215584388
28	6322 27 0 0 0 0 1 0.0077777777777778 0.0077777777777778 0.0077777777777778 6.0493827160494e-005
29	6349 25 0 0 0 0 1 0.43716948654467 0.43716948654467 0.43716948654467 0.19111715996573
30	6374 27 0 0 0 0 1 0.0077777777777778 0.0077777777777778 0.0077777777777778 6.0493827160494e-005
31	6401 25 0 0 0 0 1 0.73067874289489 0.73067874289489 0.73067874289489 0.53389142531846
32	6426 27 0 0 0 0 1 0.0077777777777778 0.0077777777777778 0.0077777777777778 6.0493827160494e-005
33	6453 25 0 0 0 0 1 0.66677402647532 0.66677402647532 0.66677402647532 0.44458760238211
34	6478 27 0 0 0 0 1 0.0077777777777778 0.0077777777777778 0.0077777777777778 6.0493827160494e-005
35	6505 24 0 0 0 0 1 0.3521146377079 0.3521146377079 0.3521146377079 0.12398471808817
36	6529 27 0 0 0 0 1 0.0077777777777778 0.0077777777777778 0.0077777777777778 6.0493827160494e-005
37	6556 24 0 0 0 0 1 4.6908296265693 4.6908296265693 4.6908296265693 22.0038825855
38	6580 27 0 0 0 0 1 0.0077777777777778 0.0077777777777778 0.0077777777777778 6.0493827160494e-005
39	6607 25 0 0 0 0 1 0.20791168016846 0.20791168016846 0.20791168016846 0.043227266750472
40	6632 27 0 0 0 0 1 0.0077777777777778 0.0077777777777778 0.0077777777777778 6.0493827160494e-005
41	6659 24 0 0 0 0 1 1.6517281008374 1.6517281008374 1.6517281008374 2.7282057190958
42	6683 23 0 0 0 0 1 1.231507845242 1.231507845242 1.231507845242 1.5166115728926

