file 387048 1612439761                                          
version 2
run non-monitoring-6-20210204-12:56:01-5552
attr configname non-monitoring
attr datetime 20210204-12:56:01
attr experiment non-monitoring
attr inifile aerocom.ini
attr iterationvars ""
attr iterationvarsf ""
attr measurement ""
attr network Aerocom
attr processid 5552
attr repetition 6
attr replication #6
attr resultdir results
attr runnumber 6
attr seedset 6
param **.t 1s
param **.k 1s
param **.nA 10
param **.nDL 10
param **.dataLink[*].s "70 byte"
param **.dataLink[*].X 5s
param **.dataLink[*].dimPoolMax 9000
param **.dataLink[*].dimPoolMin 9000
param **.dataLink[*].tDistribution "\"exponential\""
param **.aircraft[*].m 1s
param **.aircraft[*].linkSelector.DLMaxCapacity 0
param **.aircraft[*].linkSelector.trasmitting false
param **.operationMode 1

vector 0 Aerocom.aircraft[0].packetGenerator arrivalTime:vector ETV
attr "" ""
attr source computeArrivalTime
vector 1 Aerocom.aircraft[0].dataLink[0] serviceTime:vector ETV
attr "" ""
attr source computeServiceTime
vector 2 Aerocom.aircraft[0].dataLink[0] tDistribution:vector ETV
attr "" ""
attr source computeTDistribution
vector 3 Aerocom.aircraft[0].dataLink[1] serviceTime:vector ETV
attr "" ""
attr source computeServiceTime
vector 4 Aerocom.aircraft[0].dataLink[1] tDistribution:vector ETV
attr "" ""
attr source computeTDistribution
vector 5 Aerocom.aircraft[0].dataLink[2] serviceTime:vector ETV
attr "" ""
attr source computeServiceTime
vector 6 Aerocom.aircraft[0].dataLink[2] tDistribution:vector ETV
attr "" ""
attr source computeTDistribution
vector 7 Aerocom.aircraft[0].dataLink[3] serviceTime:vector ETV
attr "" ""
attr source computeServiceTime
vector 8 Aerocom.aircraft[0].dataLink[3] tDistribution:vector ETV
attr "" ""
attr source computeTDistribution
vector 9 Aerocom.aircraft[0].dataLink[4] serviceTime:vector ETV
attr "" ""
attr source computeServiceTime
vector 10 Aerocom.aircraft[0].dataLink[4] tDistribution:vector ETV
attr "" ""
attr source computeTDistribution
vector 11 Aerocom.aircraft[0].dataLink[5] serviceTime:vector ETV
attr "" ""
attr source computeServiceTime
vector 12 Aerocom.aircraft[0].dataLink[5] tDistribution:vector ETV
attr "" ""
attr source computeTDistribution
vector 13 Aerocom.aircraft[0].dataLink[6] serviceTime:vector ETV
attr "" ""
attr source computeServiceTime
vector 14 Aerocom.aircraft[0].dataLink[6] tDistribution:vector ETV
attr "" ""
attr source computeTDistribution
vector 15 Aerocom.aircraft[0].dataLink[7] serviceTime:vector ETV
attr "" ""
attr source computeServiceTime
vector 16 Aerocom.aircraft[0].dataLink[7] tDistribution:vector ETV
attr "" ""
attr source computeTDistribution
vector 17 Aerocom.aircraft[0].dataLink[8] serviceTime:vector ETV
attr "" ""
attr source computeServiceTime
vector 18 Aerocom.aircraft[0].dataLink[8] tDistribution:vector ETV
attr "" ""
attr source computeTDistribution
vector 19 Aerocom.aircraft[0].dataLink[9] serviceTime:vector ETV
attr "" ""
attr source computeServiceTime
vector 20 Aerocom.aircraft[0].dataLink[9] tDistribution:vector ETV
attr "" ""
attr source computeTDistribution
vector 21 Aerocom.aircraft[1].packetGenerator arrivalTime:vector ETV
attr "" ""
attr source computeArrivalTime
vector 22 Aerocom.aircraft[1].dataLink[0] serviceTime:vector ETV
attr "" ""
attr source computeServiceTime
vector 23 Aerocom.aircraft[1].dataLink[0] tDistribution:vector ETV
attr "" ""
attr source computeTDistribution
vector 24 Aerocom.aircraft[1].dataLink[1] serviceTime:vector ETV
attr "" ""
attr source computeServiceTime
vector 25 Aerocom.aircraft[1].dataLink[1] tDistribution:vector ETV
attr "" ""
attr source computeTDistribution
vector 26 Aerocom.aircraft[1].dataLink[2] serviceTime:vector ETV
attr "" ""
attr source computeServiceTime
vector 27 Aerocom.aircraft[1].dataLink[2] tDistribution:vector ETV
attr "" ""
attr source computeTDistribution
vector 28 Aerocom.aircraft[1].dataLink[3] serviceTime:vector ETV
attr "" ""
attr source computeServiceTime
vector 29 Aerocom.aircraft[1].dataLink[3] tDistribution:vector ETV
attr "" ""
attr source computeTDistribution
vector 30 Aerocom.aircraft[1].dataLink[4] serviceTime:vector ETV
attr "" ""
attr source computeServiceTime
vector 31 Aerocom.aircraft[1].dataLink[4] tDistribution:vector ETV
attr "" ""
attr source computeTDistribution
vector 32 Aerocom.aircraft[1].dataLink[5] serviceTime:vector ETV
attr "" ""
attr source computeServiceTime
vector 33 Aerocom.aircraft[1].dataLink[5] tDistribution:vector ETV
attr "" ""
attr source computeTDistribution
vector 34 Aerocom.aircraft[1].dataLink[6] serviceTime:vector ETV
attr "" ""
attr source computeServiceTime
vector 35 Aerocom.aircraft[1].dataLink[6] tDistribution:vector ETV
attr "" ""
attr source computeTDistribution
vector 36 Aerocom.aircraft[1].dataLink[7] serviceTime:vector ETV
attr "" ""
attr source computeServiceTime
vector 37 Aerocom.aircraft[1].dataLink[7] tDistribution:vector ETV
attr "" ""
attr source computeTDistribution
vector 38 Aerocom.aircraft[1].dataLink[8] serviceTime:vector ETV
attr "" ""
attr source computeServiceTime
vector 39 Aerocom.aircraft[1].dataLink[8] tDistribution:vector ETV
attr "" ""
attr source computeTDistribution
vector 40 Aerocom.aircraft[1].dataLink[9] serviceTime:vector ETV
attr "" ""
attr source computeServiceTime
vector 41 Aerocom.aircraft[1].dataLink[9] tDistribution:vector ETV
attr "" ""
attr source computeTDistribution
vector 42 Aerocom.aircraft[2].packetGenerator arrivalTime:vector ETV
attr "" ""
attr source computeArrivalTime
vector 43 Aerocom.aircraft[2].dataLink[0] serviceTime:vector ETV
attr "" ""
attr source computeServiceTime
vector 44 Aerocom.aircraft[2].dataLink[0] tDistribution:vector ETV
attr "" ""
attr source computeTDistribution
vector 45 Aerocom.aircraft[2].dataLink[1] serviceTime:vector ETV
attr "" ""
attr source computeServiceTime
vector 46 Aerocom.aircraft[2].dataLink[1] tDistribution:vector ETV
attr "" ""
attr source computeTDistribution
vector 47 Aerocom.aircraft[2].dataLink[2] serviceTime:vector ETV
attr "" ""
attr source computeServiceTime
vector 48 Aerocom.aircraft[2].dataLink[2] tDistribution:vector ETV
attr "" ""
attr source computeTDistribution
vector 49 Aerocom.aircraft[2].dataLink[3] serviceTime:vector ETV
attr "" ""
attr source computeServiceTime
vector 50 Aerocom.aircraft[2].dataLink[3] tDistribution:vector ETV
attr "" ""
attr source computeTDistribution
vector 51 Aerocom.aircraft[2].dataLink[4] serviceTime:vector ETV
attr "" ""
attr source computeServiceTime
vector 52 Aerocom.aircraft[2].dataLink[4] tDistribution:vector ETV
attr "" ""
attr source computeTDistribution
vector 53 Aerocom.aircraft[2].dataLink[5] serviceTime:vector ETV
attr "" ""
attr source computeServiceTime
vector 54 Aerocom.aircraft[2].dataLink[5] tDistribution:vector ETV
attr "" ""
attr source computeTDistribution
vector 55 Aerocom.aircraft[2].dataLink[6] serviceTime:vector ETV
attr "" ""
attr source computeServiceTime
vector 56 Aerocom.aircraft[2].dataLink[6] tDistribution:vector ETV
attr "" ""
attr source computeTDistribution
vector 57 Aerocom.aircraft[2].dataLink[7] serviceTime:vector ETV
attr "" ""
attr source computeServiceTime
vector 58 Aerocom.aircraft[2].dataLink[7] tDistribution:vector ETV
attr "" ""
attr source computeTDistribution
vector 59 Aerocom.aircraft[2].dataLink[8] serviceTime:vector ETV
attr "" ""
attr source computeServiceTime
vector 60 Aerocom.aircraft[2].dataLink[8] tDistribution:vector ETV
attr "" ""
attr source computeTDistribution
vector 61 Aerocom.aircraft[2].dataLink[9] serviceTime:vector ETV
attr "" ""
attr source computeServiceTime
vector 62 Aerocom.aircraft[2].dataLink[9] tDistribution:vector ETV
attr "" ""
attr source computeTDistribution
vector 63 Aerocom.aircraft[3].packetGenerator arrivalTime:vector ETV
attr "" ""
attr source computeArrivalTime
vector 64 Aerocom.aircraft[3].dataLink[0] serviceTime:vector ETV
attr "" ""
attr source computeServiceTime
vector 65 Aerocom.aircraft[3].dataLink[0] tDistribution:vector ETV
attr "" ""
attr source computeTDistribution
vector 66 Aerocom.aircraft[3].dataLink[1] serviceTime:vector ETV
attr "" ""
attr source computeServiceTime
vector 67 Aerocom.aircraft[3].dataLink[1] tDistribution:vector ETV
attr "" ""
attr source computeTDistribution
vector 68 Aerocom.aircraft[3].dataLink[2] serviceTime:vector ETV
attr "" ""
attr source computeServiceTime
vector 69 Aerocom.aircraft[3].dataLink[2] tDistribution:vector ETV
attr "" ""
attr source computeTDistribution
vector 70 Aerocom.aircraft[3].dataLink[3] serviceTime:vector ETV
attr "" ""
attr source computeServiceTime
vector 71 Aerocom.aircraft[3].dataLink[3] tDistribution:vector ETV
attr "" ""
attr source computeTDistribution
vector 72 Aerocom.aircraft[3].dataLink[4] serviceTime:vector ETV
attr "" ""
attr source computeServiceTime
vector 73 Aerocom.aircraft[3].dataLink[4] tDistribution:vector ETV
attr "" ""
attr source computeTDistribution
vector 74 Aerocom.aircraft[3].dataLink[5] serviceTime:vector ETV
attr "" ""
attr source computeServiceTime
vector 75 Aerocom.aircraft[3].dataLink[5] tDistribution:vector ETV
attr "" ""
attr source computeTDistribution
vector 76 Aerocom.aircraft[3].dataLink[6] serviceTime:vector ETV
attr "" ""
attr source computeServiceTime
vector 77 Aerocom.aircraft[3].dataLink[6] tDistribution:vector ETV
attr "" ""
attr source computeTDistribution
vector 78 Aerocom.aircraft[3].dataLink[7] serviceTime:vector ETV
attr "" ""
attr source computeServiceTime
vector 79 Aerocom.aircraft[3].dataLink[7] tDistribution:vector ETV
attr "" ""
attr source computeTDistribution
vector 80 Aerocom.aircraft[3].dataLink[8] serviceTime:vector ETV
attr "" ""
attr source computeServiceTime
vector 81 Aerocom.aircraft[3].dataLink[8] tDistribution:vector ETV
attr "" ""
attr source computeTDistribution
vector 82 Aerocom.aircraft[3].dataLink[9] serviceTime:vector ETV
attr "" ""
attr source computeServiceTime
vector 83 Aerocom.aircraft[3].dataLink[9] tDistribution:vector ETV
attr "" ""
attr source computeTDistribution
vector 84 Aerocom.aircraft[4].packetGenerator arrivalTime:vector ETV
attr "" ""
attr source computeArrivalTime
vector 85 Aerocom.aircraft[4].dataLink[0] serviceTime:vector ETV
attr "" ""
attr source computeServiceTime
vector 86 Aerocom.aircraft[4].dataLink[0] tDistribution:vector ETV
attr "" ""
attr source computeTDistribution
vector 87 Aerocom.aircraft[4].dataLink[1] serviceTime:vector ETV
attr "" ""
attr source computeServiceTime
vector 88 Aerocom.aircraft[4].dataLink[1] tDistribution:vector ETV
attr "" ""
attr source computeTDistribution
vector 89 Aerocom.aircraft[4].dataLink[2] serviceTime:vector ETV
attr "" ""
attr source computeServiceTime
vector 90 Aerocom.aircraft[4].dataLink[2] tDistribution:vector ETV
attr "" ""
attr source computeTDistribution
vector 91 Aerocom.aircraft[4].dataLink[3] serviceTime:vector ETV
attr "" ""
attr source computeServiceTime
vector 92 Aerocom.aircraft[4].dataLink[3] tDistribution:vector ETV
attr "" ""
attr source computeTDistribution
vector 93 Aerocom.aircraft[4].dataLink[4] serviceTime:vector ETV
attr "" ""
attr source computeServiceTime
vector 94 Aerocom.aircraft[4].dataLink[4] tDistribution:vector ETV
attr "" ""
attr source computeTDistribution
vector 95 Aerocom.aircraft[4].dataLink[5] serviceTime:vector ETV
attr "" ""
attr source computeServiceTime
vector 96 Aerocom.aircraft[4].dataLink[5] tDistribution:vector ETV
attr "" ""
attr source computeTDistribution
vector 97 Aerocom.aircraft[4].dataLink[6] serviceTime:vector ETV
attr "" ""
attr source computeServiceTime
vector 98 Aerocom.aircraft[4].dataLink[6] tDistribution:vector ETV
attr "" ""
attr source computeTDistribution
vector 99 Aerocom.aircraft[4].dataLink[7] serviceTime:vector ETV
attr "" ""
attr source computeServiceTime
vector 100 Aerocom.aircraft[4].dataLink[7] tDistribution:vector ETV
attr "" ""
attr source computeTDistribution
vector 101 Aerocom.aircraft[4].dataLink[8] serviceTime:vector ETV
attr "" ""
attr source computeServiceTime
vector 102 Aerocom.aircraft[4].dataLink[8] tDistribution:vector ETV
attr "" ""
attr source computeTDistribution
vector 103 Aerocom.aircraft[4].dataLink[9] serviceTime:vector ETV
attr "" ""
attr source computeServiceTime
vector 104 Aerocom.aircraft[4].dataLink[9] tDistribution:vector ETV
attr "" ""
attr source computeTDistribution
vector 105 Aerocom.aircraft[5].packetGenerator arrivalTime:vector ETV
attr "" ""
attr source computeArrivalTime
vector 106 Aerocom.aircraft[5].dataLink[0] serviceTime:vector ETV
attr "" ""
attr source computeServiceTime
vector 107 Aerocom.aircraft[5].dataLink[0] tDistribution:vector ETV
attr "" ""
attr source computeTDistribution
vector 108 Aerocom.aircraft[5].dataLink[1] serviceTime:vector ETV
attr "" ""
attr source computeServiceTime
vector 109 Aerocom.aircraft[5].dataLink[1] tDistribution:vector ETV
attr "" ""
attr source computeTDistribution
vector 110 Aerocom.aircraft[5].dataLink[2] serviceTime:vector ETV
attr "" ""
attr source computeServiceTime
vector 111 Aerocom.aircraft[5].dataLink[2] tDistribution:vector ETV
attr "" ""
attr source computeTDistribution
vector 112 Aerocom.aircraft[5].dataLink[3] serviceTime:vector ETV
attr "" ""
attr source computeServiceTime
vector 113 Aerocom.aircraft[5].dataLink[3] tDistribution:vector ETV
attr "" ""
attr source computeTDistribution
vector 114 Aerocom.aircraft[5].dataLink[4] serviceTime:vector ETV
attr "" ""
attr source computeServiceTime
vector 115 Aerocom.aircraft[5].dataLink[4] tDistribution:vector ETV
attr "" ""
attr source computeTDistribution
vector 116 Aerocom.aircraft[5].dataLink[5] serviceTime:vector ETV
attr "" ""
attr source computeServiceTime
vector 117 Aerocom.aircraft[5].dataLink[5] tDistribution:vector ETV
attr "" ""
attr source computeTDistribution
vector 118 Aerocom.aircraft[5].dataLink[6] serviceTime:vector ETV
attr "" ""
attr source computeServiceTime
vector 119 Aerocom.aircraft[5].dataLink[6] tDistribution:vector ETV
attr "" ""
attr source computeTDistribution
vector 120 Aerocom.aircraft[5].dataLink[7] serviceTime:vector ETV
attr "" ""
attr source computeServiceTime
vector 121 Aerocom.aircraft[5].dataLink[7] tDistribution:vector ETV
attr "" ""
attr source computeTDistribution
vector 122 Aerocom.aircraft[5].dataLink[8] serviceTime:vector ETV
attr "" ""
attr source computeServiceTime
vector 123 Aerocom.aircraft[5].dataLink[8] tDistribution:vector ETV
attr "" ""
attr source computeTDistribution
vector 124 Aerocom.aircraft[5].dataLink[9] serviceTime:vector ETV
attr "" ""
attr source computeServiceTime
vector 125 Aerocom.aircraft[5].dataLink[9] tDistribution:vector ETV
attr "" ""
attr source computeTDistribution
vector 126 Aerocom.aircraft[6].packetGenerator arrivalTime:vector ETV
attr "" ""
attr source computeArrivalTime
vector 127 Aerocom.aircraft[6].dataLink[0] serviceTime:vector ETV
attr "" ""
attr source computeServiceTime
vector 128 Aerocom.aircraft[6].dataLink[0] tDistribution:vector ETV
attr "" ""
attr source computeTDistribution
vector 129 Aerocom.aircraft[6].dataLink[1] serviceTime:vector ETV
attr "" ""
attr source computeServiceTime
vector 130 Aerocom.aircraft[6].dataLink[1] tDistribution:vector ETV
attr "" ""
attr source computeTDistribution
vector 131 Aerocom.aircraft[6].dataLink[2] serviceTime:vector ETV
attr "" ""
attr source computeServiceTime
vector 132 Aerocom.aircraft[6].dataLink[2] tDistribution:vector ETV
attr "" ""
attr source computeTDistribution
vector 133 Aerocom.aircraft[6].dataLink[3] serviceTime:vector ETV
attr "" ""
attr source computeServiceTime
vector 134 Aerocom.aircraft[6].dataLink[3] tDistribution:vector ETV
attr "" ""
attr source computeTDistribution
vector 135 Aerocom.aircraft[6].dataLink[4] serviceTime:vector ETV
attr "" ""
attr source computeServiceTime
vector 136 Aerocom.aircraft[6].dataLink[4] tDistribution:vector ETV
attr "" ""
attr source computeTDistribution
vector 137 Aerocom.aircraft[6].dataLink[5] serviceTime:vector ETV
attr "" ""
attr source computeServiceTime
vector 138 Aerocom.aircraft[6].dataLink[5] tDistribution:vector ETV
attr "" ""
attr source computeTDistribution
vector 139 Aerocom.aircraft[6].dataLink[6] serviceTime:vector ETV
attr "" ""
attr source computeServiceTime
vector 140 Aerocom.aircraft[6].dataLink[6] tDistribution:vector ETV
attr "" ""
attr source computeTDistribution
vector 141 Aerocom.aircraft[6].dataLink[7] serviceTime:vector ETV
attr "" ""
attr source computeServiceTime
vector 142 Aerocom.aircraft[6].dataLink[7] tDistribution:vector ETV
attr "" ""
attr source computeTDistribution
vector 143 Aerocom.aircraft[6].dataLink[8] serviceTime:vector ETV
attr "" ""
attr source computeServiceTime
vector 144 Aerocom.aircraft[6].dataLink[8] tDistribution:vector ETV
attr "" ""
attr source computeTDistribution
vector 145 Aerocom.aircraft[6].dataLink[9] serviceTime:vector ETV
attr "" ""
attr source computeServiceTime
vector 146 Aerocom.aircraft[6].dataLink[9] tDistribution:vector ETV
attr "" ""
attr source computeTDistribution
vector 147 Aerocom.aircraft[7].packetGenerator arrivalTime:vector ETV
attr "" ""
attr source computeArrivalTime
vector 148 Aerocom.aircraft[7].dataLink[0] serviceTime:vector ETV
attr "" ""
attr source computeServiceTime
vector 149 Aerocom.aircraft[7].dataLink[0] tDistribution:vector ETV
attr "" ""
attr source computeTDistribution
vector 150 Aerocom.aircraft[7].dataLink[1] serviceTime:vector ETV
attr "" ""
attr source computeServiceTime
vector 151 Aerocom.aircraft[7].dataLink[1] tDistribution:vector ETV
attr "" ""
attr source computeTDistribution
vector 152 Aerocom.aircraft[7].dataLink[2] serviceTime:vector ETV
attr "" ""
attr source computeServiceTime
vector 153 Aerocom.aircraft[7].dataLink[2] tDistribution:vector ETV
attr "" ""
attr source computeTDistribution
vector 154 Aerocom.aircraft[7].dataLink[3] serviceTime:vector ETV
attr "" ""
attr source computeServiceTime
vector 155 Aerocom.aircraft[7].dataLink[3] tDistribution:vector ETV
attr "" ""
attr source computeTDistribution
vector 156 Aerocom.aircraft[7].dataLink[4] serviceTime:vector ETV
attr "" ""
attr source computeServiceTime
vector 157 Aerocom.aircraft[7].dataLink[4] tDistribution:vector ETV
attr "" ""
attr source computeTDistribution
vector 158 Aerocom.aircraft[7].dataLink[5] serviceTime:vector ETV
attr "" ""
attr source computeServiceTime
vector 159 Aerocom.aircraft[7].dataLink[5] tDistribution:vector ETV
attr "" ""
attr source computeTDistribution
vector 160 Aerocom.aircraft[7].dataLink[6] serviceTime:vector ETV
attr "" ""
attr source computeServiceTime
vector 161 Aerocom.aircraft[7].dataLink[6] tDistribution:vector ETV
attr "" ""
attr source computeTDistribution
vector 162 Aerocom.aircraft[7].dataLink[7] serviceTime:vector ETV
attr "" ""
attr source computeServiceTime
vector 163 Aerocom.aircraft[7].dataLink[7] tDistribution:vector ETV
attr "" ""
attr source computeTDistribution
vector 164 Aerocom.aircraft[7].dataLink[8] serviceTime:vector ETV
attr "" ""
attr source computeServiceTime
vector 165 Aerocom.aircraft[7].dataLink[8] tDistribution:vector ETV
attr "" ""
attr source computeTDistribution
vector 166 Aerocom.aircraft[7].dataLink[9] serviceTime:vector ETV
attr "" ""
attr source computeServiceTime
vector 167 Aerocom.aircraft[7].dataLink[9] tDistribution:vector ETV
attr "" ""
attr source computeTDistribution
vector 168 Aerocom.aircraft[8].packetGenerator arrivalTime:vector ETV
attr "" ""
attr source computeArrivalTime
vector 169 Aerocom.aircraft[8].dataLink[0] serviceTime:vector ETV
attr "" ""
attr source computeServiceTime
vector 170 Aerocom.aircraft[8].dataLink[0] tDistribution:vector ETV
attr "" ""
attr source computeTDistribution
vector 171 Aerocom.aircraft[8].dataLink[1] serviceTime:vector ETV
attr "" ""
attr source computeServiceTime
vector 172 Aerocom.aircraft[8].dataLink[1] tDistribution:vector ETV
attr "" ""
attr source computeTDistribution
vector 173 Aerocom.aircraft[8].dataLink[2] serviceTime:vector ETV
attr "" ""
attr source computeServiceTime
vector 174 Aerocom.aircraft[8].dataLink[2] tDistribution:vector ETV
attr "" ""
attr source computeTDistribution
vector 175 Aerocom.aircraft[8].dataLink[3] serviceTime:vector ETV
attr "" ""
attr source computeServiceTime
vector 176 Aerocom.aircraft[8].dataLink[3] tDistribution:vector ETV
attr "" ""
attr source computeTDistribution
vector 177 Aerocom.aircraft[8].dataLink[4] serviceTime:vector ETV
attr "" ""
attr source computeServiceTime
vector 178 Aerocom.aircraft[8].dataLink[4] tDistribution:vector ETV
attr "" ""
attr source computeTDistribution
vector 179 Aerocom.aircraft[8].dataLink[5] serviceTime:vector ETV
attr "" ""
attr source computeServiceTime
vector 180 Aerocom.aircraft[8].dataLink[5] tDistribution:vector ETV
attr "" ""
attr source computeTDistribution
vector 181 Aerocom.aircraft[8].dataLink[6] serviceTime:vector ETV
attr "" ""
attr source computeServiceTime
vector 182 Aerocom.aircraft[8].dataLink[6] tDistribution:vector ETV
attr "" ""
attr source computeTDistribution
vector 183 Aerocom.aircraft[8].dataLink[7] serviceTime:vector ETV
attr "" ""
attr source computeServiceTime
vector 184 Aerocom.aircraft[8].dataLink[7] tDistribution:vector ETV
attr "" ""
attr source computeTDistribution
vector 185 Aerocom.aircraft[8].dataLink[8] serviceTime:vector ETV
attr "" ""
attr source computeServiceTime
vector 186 Aerocom.aircraft[8].dataLink[8] tDistribution:vector ETV
attr "" ""
attr source computeTDistribution
vector 187 Aerocom.aircraft[8].dataLink[9] serviceTime:vector ETV
attr "" ""
attr source computeServiceTime
vector 188 Aerocom.aircraft[8].dataLink[9] tDistribution:vector ETV
attr "" ""
attr source computeTDistribution
vector 189 Aerocom.aircraft[9].packetGenerator arrivalTime:vector ETV
attr "" ""
attr source computeArrivalTime
vector 190 Aerocom.aircraft[9].dataLink[0] serviceTime:vector ETV
attr "" ""
attr source computeServiceTime
vector 191 Aerocom.aircraft[9].dataLink[0] tDistribution:vector ETV
attr "" ""
attr source computeTDistribution
vector 192 Aerocom.aircraft[9].dataLink[1] serviceTime:vector ETV
attr "" ""
attr source computeServiceTime
vector 193 Aerocom.aircraft[9].dataLink[1] tDistribution:vector ETV
attr "" ""
attr source computeTDistribution
vector 194 Aerocom.aircraft[9].dataLink[2] serviceTime:vector ETV
attr "" ""
attr source computeServiceTime
vector 195 Aerocom.aircraft[9].dataLink[2] tDistribution:vector ETV
attr "" ""
attr source computeTDistribution
vector 196 Aerocom.aircraft[9].dataLink[3] serviceTime:vector ETV
attr "" ""
attr source computeServiceTime
vector 197 Aerocom.aircraft[9].dataLink[3] tDistribution:vector ETV
attr "" ""
attr source computeTDistribution
vector 198 Aerocom.aircraft[9].dataLink[4] serviceTime:vector ETV
attr "" ""
attr source computeServiceTime
vector 199 Aerocom.aircraft[9].dataLink[4] tDistribution:vector ETV
attr "" ""
attr source computeTDistribution
vector 200 Aerocom.aircraft[9].dataLink[5] serviceTime:vector ETV
attr "" ""
attr source computeServiceTime
vector 201 Aerocom.aircraft[9].dataLink[5] tDistribution:vector ETV
attr "" ""
attr source computeTDistribution
vector 202 Aerocom.aircraft[9].dataLink[6] serviceTime:vector ETV
attr "" ""
attr source computeServiceTime
vector 203 Aerocom.aircraft[9].dataLink[6] tDistribution:vector ETV
attr "" ""
attr source computeTDistribution
vector 204 Aerocom.aircraft[9].dataLink[7] serviceTime:vector ETV
attr "" ""
attr source computeServiceTime
vector 205 Aerocom.aircraft[9].dataLink[7] tDistribution:vector ETV
attr "" ""
attr source computeTDistribution
vector 206 Aerocom.aircraft[9].dataLink[8] serviceTime:vector ETV
attr "" ""
attr source computeServiceTime
vector 207 Aerocom.aircraft[9].dataLink[8] tDistribution:vector ETV
attr "" ""
attr source computeTDistribution
vector 208 Aerocom.aircraft[9].dataLink[9] serviceTime:vector ETV
attr "" ""
attr source computeServiceTime
vector 209 Aerocom.aircraft[9].dataLink[9] tDistribution:vector ETV
attr "" ""
attr source computeTDistribution
vector 210 Aerocom.aircraft[1].dataLink[0] queueLength:vector ETV
attr "" ""
attr source computeQueueLength
vector 211 Aerocom.aircraft[1].dataLink[0] waitingTime:vector ETV
attr "" ""
attr source computeWaitingTime
vector 212 Aerocom.aircraft[1].dataLink[0] responseTime:vector ETV
attr "" ""
attr source computeResponseTime
vector 213 Aerocom.aircraft[6].dataLink[0] queueLength:vector ETV
attr "" ""
attr source computeQueueLength
vector 214 Aerocom.aircraft[6].dataLink[0] waitingTime:vector ETV
attr "" ""
attr source computeWaitingTime
vector 215 Aerocom.aircraft[6].dataLink[0] responseTime:vector ETV
attr "" ""
attr source computeResponseTime
vector 216 Aerocom.aircraft[9].dataLink[0] queueLength:vector ETV
attr "" ""
attr source computeQueueLength
vector 217 Aerocom.aircraft[9].dataLink[0] waitingTime:vector ETV
attr "" ""
attr source computeWaitingTime
vector 218 Aerocom.aircraft[9].dataLink[0] responseTime:vector ETV
attr "" ""
attr source computeResponseTime
vector 219 Aerocom.aircraft[5].dataLink[0] queueLength:vector ETV
attr "" ""
attr source computeQueueLength
vector 220 Aerocom.aircraft[5].dataLink[0] waitingTime:vector ETV
attr "" ""
attr source computeWaitingTime
vector 221 Aerocom.aircraft[5].dataLink[0] responseTime:vector ETV
attr "" ""
attr source computeResponseTime
vector 222 Aerocom.aircraft[3].dataLink[0] queueLength:vector ETV
attr "" ""
attr source computeQueueLength
vector 223 Aerocom.aircraft[3].dataLink[0] waitingTime:vector ETV
attr "" ""
attr source computeWaitingTime
vector 224 Aerocom.aircraft[3].dataLink[0] responseTime:vector ETV
attr "" ""
attr source computeResponseTime
vector 225 Aerocom.aircraft[2].dataLink[0] queueLength:vector ETV
attr "" ""
attr source computeQueueLength
vector 226 Aerocom.aircraft[2].dataLink[0] waitingTime:vector ETV
attr "" ""
attr source computeWaitingTime
vector 227 Aerocom.aircraft[2].dataLink[0] responseTime:vector ETV
attr "" ""
attr source computeResponseTime
vector 228 Aerocom.aircraft[0].dataLink[0] queueLength:vector ETV
attr "" ""
attr source computeQueueLength
vector 229 Aerocom.aircraft[0].dataLink[0] waitingTime:vector ETV
attr "" ""
attr source computeWaitingTime
vector 230 Aerocom.aircraft[0].dataLink[0] responseTime:vector ETV
attr "" ""
attr source computeResponseTime
vector 231 Aerocom.aircraft[8].dataLink[0] queueLength:vector ETV
attr "" ""
attr source computeQueueLength
vector 232 Aerocom.aircraft[8].dataLink[0] waitingTime:vector ETV
attr "" ""
attr source computeWaitingTime
vector 233 Aerocom.aircraft[8].dataLink[0] responseTime:vector ETV
attr "" ""
attr source computeResponseTime
vector 234 Aerocom.aircraft[4].dataLink[0] queueLength:vector ETV
attr "" ""
attr source computeQueueLength
vector 235 Aerocom.aircraft[4].dataLink[0] waitingTime:vector ETV
attr "" ""
attr source computeWaitingTime
vector 236 Aerocom.aircraft[4].dataLink[0] responseTime:vector ETV
attr "" ""
attr source computeResponseTime
vector 237 Aerocom.aircraft[7].dataLink[0] queueLength:vector ETV
attr "" ""
attr source computeQueueLength
vector 238 Aerocom.aircraft[7].dataLink[0] waitingTime:vector ETV
attr "" ""
attr source computeWaitingTime
vector 239 Aerocom.aircraft[7].dataLink[0] responseTime:vector ETV
attr "" ""
attr source computeResponseTime
0	27791 2444 0 9056 0 59.807202486002 64 0.010339565575 2.984897137267 60.288009005926 94.144147504448
1	30235 2705 0 9058 0 59.807202486002 64 0.0077777777777778 0.0077777777777778 0.49777777777778 0.0038716049382716
2	32940 2209 0 8926 0 58.984773446472 55 8.9074261046566e-005 7.5118529737007 60.848667779786 172.83853041735
3	35149 26 0 0 0 0 1 0.0077777777777778 0.0077777777777778 0.0077777777777778 6.0493827160494e-005
4	35175 2245 0 8978 0 59.346889154798 56 0.0060424444686025 6.2558875167429 60.651082970177 132.49359241203
5	37420 26 0 0 0 0 1 0.0077777777777778 0.0077777777777778 0.0077777777777778 6.0493827160494e-005
6	37446 1993 0 8954 0 59.235903391751 50 0.01990368061253 4.8521831615217 60.319761783276 142.81106614203
7	39439 26 0 0 0 0 1 0.0077777777777778 0.0077777777777778 0.0077777777777778 6.0493827160494e-005
8	39465 2356 0 9009 0 59.510615577947 59 0.014744401497635 3.586780336366 61.718224734232 116.12996234189
9	41821 26 0 0 0 0 1 0.0077777777777778 0.0077777777777778 0.0077777777777778 6.0493827160494e-005
10	41847 2296 0 9085 0 59.952385173362 56 0.011855045975129 7.9111458728238 61.611667044636 168.23582289655
11	44143 27 0 0 0 0 1 0.0077777777777778 0.0077777777777778 0.0077777777777778 6.0493827160494e-005
12	44170 2384 0 8911 0 58.867908526494 58 0.010343899133548 5.6511224153626 64.519030941855 139.58555316478
13	46554 27 0 0 0 0 1 0.0077777777777778 0.0077777777777778 0.0077777777777778 6.0493827160494e-005
14	46581 2570 0 9031 0 59.645777816295 63 0.05722342076201 4.9979913938397 60.090053791514 111.22626387767
15	49151 27 0 0 0 0 1 0.0077777777777778 0.0077777777777778 0.0077777777777778 6.0493827160494e-005
16	49178 1875 0 8738 0 57.747495557668 46 0.011952792906739 7.279458752205 62.133207740786 205.75529535826
17	51053 27 0 0 0 0 1 0.0077777777777778 0.0077777777777778 0.0077777777777778 6.0493827160494e-005
18	51080 2701 0 9027 0 59.580153074238 66 0.031938589582472 3.4903789907446 60.200694475285 102.71085697523
19	53781 27 0 0 0 0 1 0.0077777777777778 0.0077777777777778 0.0077777777777778 6.0493827160494e-005
20	53808 2958 0 9086 0 59.961655835222 72 0.044813234296953 3.4554962825215 60.467385823291 79.322913194302
21	56766 3102 0 9014 0 59.517810421048 79 0.011077823779 4.446542665245 62.409176868714 90.116826642598
22	59868 3434 0 9016 0 59.517810421048 79 0.0077777777777778 0.0077777777777778 0.61444444444444 0.004779012345679
23	63302 2109 0 9008 0 59.508692539061 52 0.017454581216344 6.0113376277134 60.756806100824 141.32620457135
24	65411 27 0 0 0 0 1 0.0077777777777778 0.0077777777777778 0.0077777777777778 6.0493827160494e-005
25	65438 2632 0 9067 0 59.865949745232 64 0.019434167681146 5.9981957692917 63.797619954861 132.8602763941
26	68070 27 0 0 0 0 1 0.0077777777777778 0.0077777777777778 0.0077777777777778 6.0493827160494e-005
27	68097 2292 0 8972 0 59.323806282048 56 0.039674009474032 7.4451053292652 61.070883337519 155.31360907113
28	70389 27 0 0 0 0 1 0.0077777777777778 0.0077777777777778 0.0077777777777778 6.0493827160494e-005
29	70416 2382 0 8980 0 59.351518322488 58 0.020824218748213 6.4306360623426 61.135918337529 135.91713303668
30	72798 27 0 0 0 0 1 0.0077777777777778 0.0077777777777778 0.0077777777777778 6.0493827160494e-005
31	72825 2242 0 8983 0 59.394079668568 55 0.052459149739394 3.9520481403649 61.233724931197 114.13449643127
32	75067 27 0 0 0 0 1 0.0077777777777778 0.0077777777777778 0.0077777777777778 6.0493827160494e-005
33	75094 2542 0 9068 0 59.867266165323 62 0.031884764546181 3.8419381623194 60.161834753799 114.09930947295
34	77636 27 0 0 0 0 1 0.0077777777777778 0.0077777777777778 0.0077777777777778 6.0493827160494e-005
35	77663 2630 0 9064 0 59.842349159095 64 0.0069405515849414 3.6597678488223 62.85561083166 122.11931983778
36	80293 27 0 0 0 0 1 0.0077777777777778 0.0077777777777778 0.0077777777777778 6.0493827160494e-005
37	80320 2458 0 8876 0 58.697666176376 60 0.0077060126451977 4.1066468352171 60.200710463151 105.45389025477
38	82778 27 0 0 0 0 1 0.0077777777777778 0.0077777777777778 0.0077777777777778 6.0493827160494e-005
39	82805 2285 0 8877 0 58.699097260958 56 0.01292641569874 4.5930907475423 60.51044927291 117.07112455194
40	85090 27 0 0 0 0 1 0.0077777777777778 0.0077777777777778 0.0077777777777778 6.0493827160494e-005
41	85117 2289 0 8789 0 58.1238473215 56 0.010514389856063 6.0320111128159 61.417111459005 144.43367402394
42	87406 1796 0 8907 0 58.860603805722 46 0.0124092159 6.872310854237 60.717466626137 161.13865924724
43	89202 1986 0 8909 0 58.860603805722 46 0.0077777777777778 0.0077777777777778 0.35777777777778 0.0027827160493827
44	91188 2495 0 9019 0 59.523994115258 61 0.064047939548763 7.2372359176212 61.924013696915 137.07166843258
45	93683 27 0 0 0 0 1 0.0077777777777778 0.0077777777777778 0.0077777777777778 6.0493827160494e-005
46	93710 2681 0 8711 0 57.529409805194 65 0.0075494236848586 3.4988803926843 60.43789750079 107.14558289451
47	96391 27 0 0 0 0 1 0.0077777777777778 0.0077777777777778 0.0077777777777778 6.0493827160494e-005
48	96418 2453 0 9037 0 59.675689592343 60 0.0056287752190628 3.7515198896382 62.958495390011 127.0012663352
49	98871 27 0 0 0 0 1 0.0077777777777778 0.0077777777777778 0.0077777777777778 6.0493827160494e-005
50	98898 2161 0 8922 0 58.944783263542 53 0.043481716493443 5.9316789390603 60.724998037925 124.27592883372
51	101059 27 0 0 0 0 1 0.0077777777777778 0.0077777777777778 0.0077777777777778 6.0493827160494e-005
52	101086 1663 0 8948 0 59.155081304924 41 0.041227657866747 7.3117021563235 64.264091150494 195.73441197402
53	102749 27 0 0 0 0 1 0.0077777777777778 0.0077777777777778 0.0077777777777778 6.0493827160494e-005
54	102776 2589 0 8613 0 56.91697946331 63 0.0010470502300427 4.0431193181652 60.960098781472 109.38866216602
55	105365 27 0 0 0 0 1 0.0077777777777778 0.0077777777777778 0.0077777777777778 6.0493827160494e-005
56	105392 2388 0 8882 0 58.740139829056 58 0.00052410312382051 5.5758091835813 60.381849229377 144.04657516354
57	107780 27 0 0 0 0 1 0.0077777777777778 0.0077777777777778 0.0077777777777778 6.0493827160494e-005
58	107807 2494 0 9083 0 59.935779376046 61 0.0073039243153205 7.6663304390119 61.443988946434 149.51589660142
59	110301 27 0 0 0 0 1 0.0077777777777778 0.0077777777777778 0.0077777777777778 6.0493827160494e-005
60	110328 2255 0 9087 0 59.975259443425 55 0.04087163164621 4.1364555770742 61.947328917014 128.80320331901
61	112583 27 0 0 0 0 1 0.0077777777777778 0.0077777777777778 0.0077777777777778 6.0493827160494e-005
62	112610 2418 0 8832 0 58.426709085293 59 0.084833105480891 6.4806228280207 60.333388224946 123.3458241971
63	115028 2121 0 9044 0 59.739430926749 54 0.00364458851 4.499286689272 60.204518870242 133.85798440083
64	117149 2340 0 9046 0 59.739430926749 54 0.0077777777777778 0.0077777777777778 0.42 0.0032666666666667
65	119489 2035 0 8959 0 59.270022148745 50 0.00020321870232721 5.4784555913219 60.92014184671 135.67253082104
66	121524 27 0 0 0 0 1 0.0077777777777778 0.0077777777777778 0.0077777777777778 6.0493827160494e-005
67	121551 2621 0 8890 0 58.771544077895 64 0.013787339938723 3.8843526627439 60.759171200389 99.823778590477
68	124172 27 0 0 0 0 1 0.0077777777777778 0.0077777777777778 0.0077777777777778 6.0493827160494e-005
69	124199 2596 0 9029 0 59.620442720788 63 0.00045441728495568 4.0659924905911 62.217163057411 114.3980598571
70	126795 27 0 0 0 0 1 0.0077777777777778 0.0077777777777778 0.0077777777777778 6.0493827160494e-005
71	126822 3293 0 9039 0 59.691167374206 80 0.0013719131306854 3.9275522168202 61.145682995889 80.733574041401
72	130115 27 0 0 0 0 1 0.0077777777777778 0.0077777777777778 0.0077777777777778 6.0493827160494e-005
73	130142 2423 0 8919 0 58.935131371089 59 0.0032405559489762 4.3845494367097 60.225093699572 125.49943342031
74	132565 27 0 0 0 0 1 0.0077777777777778 0.0077777777777778 0.0077777777777778 6.0493827160494e-005
75	132592 2074 0 8726 0 57.636241910934 51 0.014123564081793 6.037173599006 63.673415509938 152.98900844347
76	134666 27 0 0 0 0 1 0.0077777777777778 0.0077777777777778 0.0077777777777778 6.0493827160494e-005
77	134693 2156 0 8788 0 58.119677598657 53 0.026394300129714 4.4860915905636 60.222653712913 117.70856876865
78	136849 27 0 0 0 0 1 0.0077777777777778 0.0077777777777778 0.0077777777777778 6.0493827160494e-005
79	136876 2169 0 8636 0 57.025507211449 53 0.054858989258879 4.4318287810574 60.288054180274 115.5501237293
80	139045 27 0 0 0 0 1 0.0077777777777778 0.0077777777777778 0.0077777777777778 6.0493827160494e-005
81	139072 2501 0 9024 0 59.556118420755 61 0.0022945746347808 3.8243486670612 60.845538321546 115.52324552806
82	141573 27 0 0 0 0 1 0.0077777777777778 0.0077777777777778 0.0077777777777778 6.0493827160494e-005
83	141600 2321 0 8661 0 57.261387414457 57 0.0075774509115565 7.2877489421253 60.424415818327 158.32450834008
84	143921 2002 0 9010 0 59.515207037962 51 0.044232590827 5.946598964181 60.112785886903 154.72980483579
85	145923 2211 0 9012 0 59.515207037962 51 0.0077777777777778 0.0077777777777778 0.39666666666667 0.0030851851851852
86	148134 2249 0 9069 0 59.867693668037 55 0.029973282984183 3.9558893434644 60.506001039433 113.22736148601
87	150383 27 0 0 0 0 1 0.0077777777777778 0.0077777777777778 0.0077777777777778 6.0493827160494e-005
88	150410 2620 0 8928 0 59.020192055633 64 0.0050480830630577 5.2572155822665 61.139143742881 122.79199945875
89	153030 27 0 0 0 0 1 0.0077777777777778 0.0077777777777778 0.0077777777777778 6.0493827160494e-005
90	153057 3141 0 8786 0 58.101744245007 76 0.0091346092537708 5.6339204367809 60.299813382052 114.61943776878
91	156198 27 0 0 0 0 1 0.0077777777777778 0.0077777777777778 0.0077777777777778 6.0493827160494e-005
92	156225 2753 0 9063 0 59.840177191852 67 0.0053889326116767 4.3516440315912 61.238491468839 106.51919316425
93	158978 27 0 0 0 0 1 0.0077777777777778 0.0077777777777778 0.0077777777777778 6.0493827160494e-005
94	159005 2716 0 9041 0 59.713703026022 66 0.03041670194246 3.3304630265065 60.908815569222 98.989948291734
95	161721 27 0 0 0 0 1 0.0077777777777778 0.0077777777777778 0.0077777777777778 6.0493827160494e-005
96	161748 2923 0 8955 0 59.248689309708 71 0.0039641800248541 3.7174767229071 60.29557597237 94.427133245205
97	164671 27 0 0 0 0 1 0.0077777777777778 0.0077777777777778 0.0077777777777778 6.0493827160494e-005
98	164698 3009 0 8939 0 59.058007454554 73 0.0024567086605857 4.4287726193067 63.486780073862 116.46330798828
99	167707 27 0 0 0 0 1 0.0077777777777778 0.0077777777777778 0.0077777777777778 6.0493827160494e-005
100	167734 2470 0 8913 0 58.869475611191 59 0.021836317046276 5.0976223396483 60.530353127532 133.57006068614
101	170204 28 0 0 0 0 1 0.0077777777777778 0.0077777777777778 0.0077777777777778 6.0493827160494e-005
102	170232 2303 0 8633 0 56.998747750543 55 0.01540326257901 5.4290548089621 60.114245743012 129.1657449814
103	172535 28 0 0 0 0 1 0.0077777777777778 0.0077777777777778 0.0077777777777778 6.0493827160494e-005
104	172563 2248 0 9065 0 59.858803905639 54 0.028334302919681 5.6184621019885 62.460801627715 124.35684821352
105	174811 2701 0 9078 0 59.928149666251 67 0.015469746671 4.414173775193 61.217333513543 101.64251932767
106	177512 2978 0 9080 0 59.928149666251 67 0.0077777777777778 0.0077777777777778 0.52111111111111 0.0040530864197531
107	180490 2734 0 8844 0 58.472069643369 65 0.0046629522721733 5.0767384535735 61.632011628836 116.44923407481
108	183224 28 0 0 0 0 1 0.0077777777777778 0.0077777777777778 0.0077777777777778 6.0493827160494e-005
109	183252 2219 0 8768 0 57.941688376609 53 0.024098729555163 5.6595036555008 63.601192032112 147.04135831128
110	185471 28 0 0 0 0 1 0.0077777777777778 0.0077777777777778 0.0077777777777778 6.0493827160494e-005
111	185499 2768 0 9070 0 59.889452381807 66 0.030755075572627 4.0062026531641 61.152308059769 112.34908757657
112	188267 28 0 0 0 0 1 0.0077777777777778 0.0077777777777778 0.0077777777777778 6.0493827160494e-005
113	188295 2376 0 8792 0 58.165137953962 57 0.029277950551066 4.9326432650245 60.429686420445 119.69337514891
114	190671 28 0 0 0 0 1 0.0077777777777778 0.0077777777777778 0.0077777777777778 6.0493827160494e-005
115	190699 2604 0 9000 0 59.483634706508 62 0.0045525393106483 5.6796001022136 60.748938879946 123.8714348933
116	193303 28 0 0 0 0 1 0.0077777777777778 0.0077777777777778 0.0077777777777778 6.0493827160494e-005
117	193331 3212 0 9061 0 59.817726124149 76 0.0070466498985685 5.7079088415256 60.047901953248 113.68643393437
118	196543 28 0 0 0 0 1 0.0077777777777778 0.0077777777777778 0.0077777777777778 6.0493827160494e-005
119	196571 2305 0 8981 0 59.353964446347 55 0.0021541199350133 5.6842318022927 63.751108006017 154.76092907651
120	198876 28 0 0 0 0 1 0.0077777777777778 0.0077777777777778 0.0077777777777778 6.0493827160494e-005
121	198904 2432 0 9050 0 59.750549479134 58 0.014252512507242 4.4255911063104 61.509272991626 118.388291696
122	201336 28 0 0 0 0 1 0.0077777777777778 0.0077777777777778 0.0077777777777778 6.0493827160494e-005
123	201364 2555 0 9033 0 59.6511720704 61 0.014968000097992 5.3081719610921 60.134082285674 114.52911667638
124	203919 28 0 0 0 0 1 0.0077777777777778 0.0077777777777778 0.0077777777777778 6.0493827160494e-005
125	203947 2520 0 8871 0 58.653120871383 60 0.0099131440553903 3.3613020897143 60.778565461896 110.49122167745
126	206467 2205 0 8984 0 59.417782293724 55 0.011573443975 5.377973777101 60.128633923534 126.2418015665
127	208672 2430 0 8986 0 59.417782293724 55 0.0077777777777778 0.0077777777777778 0.42777777777778 0.0033271604938272
128	211102 2509 0 8829 0 58.388023362846 60 0.042612519799573 5.1338744063017 61.0620856065 126.00828664074
129	213611 28 0 0 0 0 1 0.0077777777777778 0.0077777777777778 0.0077777777777778 6.0493827160494e-005
130	213639 2515 0 8769 0 57.965653128679 60 0.026440054939464 4.4282971607801 60.010752128219 109.01246014199
131	216154 28 0 0 0 0 1 0.0077777777777778 0.0077777777777778 0.0077777777777778 6.0493827160494e-005
132	216182 2741 0 8997 0 59.458833480622 65 0.0066680220555073 4.2771703598579 60.791457939447 102.37128237095
133	218923 28 0 0 0 0 1 0.0077777777777778 0.0077777777777778 0.0077777777777778 6.0493827160494e-005
134	218951 2832 0 9036 0 59.672028238513 67 0.0040780943788001 8.0118143824846 60.004349787447 144.37765318703
135	221783 28 0 0 0 0 1 0.0077777777777778 0.0077777777777778 0.0077777777777778 6.0493827160494e-005
136	221811 2777 0 9025 0 59.560829991636 66 0.0042582986262798 5.7663454005646 60.533671304848 124.98546033705
137	224588 28 0 0 0 0 1 0.0077777777777778 0.0077777777777778 0.0077777777777778 6.0493827160494e-005
138	224616 2652 0 8990 0 59.440084005555 63 0.00087036875465186 5.7455594103696 60.522220362205 131.16307542193
139	227268 28 0 0 0 0 1 0.0077777777777778 0.0077777777777778 0.0077777777777778 6.0493827160494e-005
140	227296 2298 0 8612 0 56.914758635112 55 0.055720056041636 7.0908251763567 61.667160628356 160.98746110124
141	229594 28 0 0 0 0 1 0.0077777777777778 0.0077777777777778 0.0077777777777778 6.0493827160494e-005
142	229622 2527 0 8894 0 58.803758943132 60 0.040775294430516 6.4393973220359 60.32206939161 132.21724257181
143	232149 28 0 0 0 0 1 0.0077777777777778 0.0077777777777778 0.0077777777777778 6.0493827160494e-005
144	232177 2644 0 8951 0 59.187452066905 63 0.010910155037883 4.6690928678887 60.510783090371 99.633239862195
145	234821 28 0 0 0 0 1 0.0077777777777778 0.0077777777777778 0.0077777777777778 6.0493827160494e-005
146	234849 2997 0 9006 0 59.494367619867 71 0.0033114542608157 3.7159904454353 61.718027278565 100.96591225797
147	237846 2334 0 9073 0 59.923152831952 58 0.011717517558 4.405192241908 61.158384966749 129.38139583531
148	240180 2570 0 9075 0 59.923152831952 58 0.0077777777777778 0.0077777777777778 0.45111111111111 0.0035086419753086
149	242750 1928 0 8725 0 57.631516939018 46 0.0079969420446952 6.6825692117958 61.43663222362 160.64090449063
150	244678 28 0 0 0 0 1 0.0077777777777778 0.0077777777777778 0.0077777777777778 6.0493827160494e-005
151	244706 2004 0 8550 0 56.64726469208 48 0.012027046075701 6.7625253320429 60.389101129452 147.08607362519
152	246710 28 0 0 0 0 1 0.0077777777777778 0.0077777777777778 0.0077777777777778 6.0493827160494e-005
153	246738 2221 0 8949 0 59.16097832979 53 0.0023221490162132 3.7270923219316 60.331998469105 115.69094736831
154	248959 28 0 0 0 0 1 0.0077777777777778 0.0077777777777778 0.0077777777777778 6.0493827160494e-005
155	248987 3206 0 8946 0 59.112540590789 76 0.0014483399171776 5.3964031915526 60.062372785769 108.66020494502
156	252193 28 0 0 0 0 1 0.0077777777777778 0.0077777777777778 0.0077777777777778 6.0493827160494e-005
157	252221 2311 0 9035 0 59.660878175181 55 0.0087304547671169 8.4153289809828 60.492668323119 177.54228813552
158	254532 28 0 0 0 0 1 0.0077777777777778 0.0077777777777778 0.0077777777777778 6.0493827160494e-005
159	254560 2640 0 9077 0 59.927851618221 63 0.011596057575524 3.1395720157426 61.228200994845 100.12813791118
160	257200 28 0 0 0 0 1 0.0077777777777778 0.0077777777777778 0.0077777777777778 6.0493827160494e-005
161	257228 2639 0 9054 0 59.802608341559 63 0.030798723820003 3.4857842539075 60.065216670797 96.590432139039
162	259867 28 0 0 0 0 1 0.0077777777777778 0.0077777777777778 0.0077777777777778 6.0493827160494e-005
163	259895 2251 0 9032 0 59.650936972609 54 0.064331325069776 4.6890327849044 61.092091186558 128.96301904935
164	262146 28 0 0 0 0 1 0.0077777777777778 0.0077777777777778 0.0077777777777778 6.0493827160494e-005
165	262174 2426 0 8883 0 58.748225197574 58 0.001497199155679 4.4939093171638 61.855283514318 130.19922496009
166	264600 28 0 0 0 0 1 0.0077777777777778 0.0077777777777778 0.0077777777777778 6.0493827160494e-005
167	264628 2478 0 9062 0 59.82117297262 59 0.010858596039424 4.6416377746199 60.350203149134 122.53833217328
168	267106 3240 0 8900 0 58.852071681672 80 0.007176835845 3.037900771411 60.285136870034 85.260838610914
169	270346 3565 0 8902 0 58.852071681672 80 0.0077777777777778 0.0077777777777778 0.62222222222222 0.0048395061728395
170	273911 2949 0 8915 0 58.902759209942 70 0.0023067808919817 2.907646604792 60.231250909494 88.647072628641
171	276860 28 0 0 0 0 1 0.0077777777777778 0.0077777777777778 0.0077777777777778 6.0493827160494e-005
172	276888 2218 0 8543 0 56.635469433799 53 0.023910046336685 4.7884493623415 60.154707983544 157.03857666431
173	279106 28 0 0 0 0 1 0.0077777777777778 0.0077777777777778 0.0077777777777778 6.0493827160494e-005
174	279134 2683 0 9066 0 59.860913629113 64 0.0088179139822684 3.8983790231163 61.026597170822 96.58698735351
175	281817 28 0 0 0 0 1 0.0077777777777778 0.0077777777777778 0.0077777777777778 6.0493827160494e-005
176	281845 2905 0 8779 0 58.059613895082 69 0.025069060360884 3.5557842567862 60.345341227697 107.57096709694
177	284750 28 0 0 0 0 1 0.0077777777777778 0.0077777777777778 0.0077777777777778 6.0493827160494e-005
178	284778 2774 0 9051 0 59.755082247896 66 0.019881226550424 2.6906925879428 60.301559854885 87.728630005163
179	287552 28 0 0 0 0 1 0.0077777777777778 0.0077777777777778 0.0077777777777778 6.0493827160494e-005
180	287580 2135 0 8999 0 59.474639425361 51 0.0094445160408789 5.7235871564521 60.453810311976 158.34306495249
181	289715 28 0 0 0 0 1 0.0077777777777778 0.0077777777777778 0.0077777777777778 6.0493827160494e-005
182	289743 2465 0 8598 0 56.844477624626 59 0.032325329895199 3.8862117344921 60.73068935912 108.41011316232
183	292208 28 0 0 0 0 1 0.0077777777777778 0.0077777777777778 0.0077777777777778 6.0493827160494e-005
184	292236 2525 0 9053 0 59.767404295274 60 0.016922761344305 3.5929846816578 60.5791535171 103.35454314312
185	294761 28 0 0 0 0 1 0.0077777777777778 0.0077777777777778 0.0077777777777778 6.0493827160494e-005
186	294789 2684 0 8655 0 57.239805636186 64 0.012185005740808 4.8618048814134 62.101610517602 138.52939423598
187	297473 28 0 0 0 0 1 0.0077777777777778 0.0077777777777778 0.0077777777777778 6.0493827160494e-005
188	297501 2465 0 8958 0 59.260521709713 59 0.008728845423685 6.538035445417 65.183532254662 161.98569325824
189	299966 2170 0 8974 0 59.346736795659 54 0.025448325743 5.794970438593 60.166738320912 130.69871652416
190	302136 2393 0 8976 0 59.346736795659 54 0.0077777777777778 0.0077777777777778 0.42 0.0032666666666667
191	304529 2736 0 8956 0 59.25571745526 65 0.011578460539158 4.2263192624265 60.410153405686 112.52975785519
192	307265 28 0 0 0 0 1 0.0077777777777778 0.0077777777777778 0.0077777777777778 6.0493827160494e-005
193	307293 2356 0 8942 0 59.081141126811 56 0.0054206912329512 5.6847184538638 60.260821982237 140.05400234718
194	309649 28 0 0 0 0 1 0.0077777777777778 0.0077777777777778 0.0077777777777778 6.0493827160494e-005
195	309677 2518 0 8553 0 56.658641557002 60 0.038591122340234 3.6049252427793 60.09172477263 113.43486239464
196	312195 28 0 0 0 0 1 0.0077777777777778 0.0077777777777778 0.0077777777777778 6.0493827160494e-005
197	312223 3106 0 9042 0 59.716438476668 74 0.011769370819556 3.981297207401 61.565046550413 92.302395195038
198	315329 28 0 0 0 0 1 0.0077777777777778 0.0077777777777778 0.0077777777777778 6.0493827160494e-005
199	315357 2054 0 8938 0 59.051652102028 49 0.0058132520467667 5.2747462584937 61.375659281084 151.40023115114
200	317411 28 0 0 0 0 1 0.0077777777777778 0.0077777777777778 0.0077777777777778 6.0493827160494e-005
201	317439 2132 0 9071 0 59.910535187967 51 0.003758061680424 6.2913502878019 60.761153661061 138.51195872467
202	319571 28 0 0 0 0 1 0.0077777777777778 0.0077777777777778 0.0077777777777778 6.0493827160494e-005
203	319599 2911 0 9040 0 59.700188350526 69 0.024201129883153 5.1248676643301 60.59018499688 105.75766318055
204	322510 28 0 0 0 0 1 0.0077777777777778 0.0077777777777778 0.0077777777777778 6.0493827160494e-005
205	322538 2482 0 8920 0 58.936109677196 59 0.0044078869337849 9.7710434403186 62.244683017541 211.71269370304
206	325020 28 0 0 0 0 1 0.0077777777777778 0.0077777777777778 0.0077777777777778 6.0493827160494e-005
207	325048 2291 0 9020 0 59.52445248966 55 0.10682797357346 4.7135313326802 62.156968030762 130.18362947574
208	327339 28 0 0 0 0 1 0.0077777777777778 0.0077777777777778 0.0077777777777778 6.0493827160494e-005
209	327367 2294 0 8953 0 59.2347159274 55 0.041276866691417 5.4188954542674 60.948074535977 118.28265168742
210	329661 2159 111 9016 0.079054861163 59.517810421048 78 0 0 0 0
211	331820 2159 111 9016 0.079054861163 59.517810421048 78 0 0 0 0
212	333979 3173 111 9016 0.079054861163 59.517810421048 78 0.007777777778 0.007777777778 0.606666666684 0.0047185185187881
213	337152 1484 122 8986 0.200697633658 59.417782293724 54 0 0 0 0
214	338636 1484 122 8986 0.200697633658 59.417782293724 54 0 0 0 0
215	340120 2186 122 8986 0.200697633658 59.417782293724 54 0.007777777778 0.007777777778 0.420000000012 0.0032666666668533
216	342306 1464 135 8976 0.228121421751 59.346736795659 53 0 0 0 0
217	343770 1464 135 8976 0.228121421751 59.346736795659 53 0 0 0 0
218	345234 2153 135 8976 0.228121421751 59.346736795659 53 0.007777777778 0.007777777778 0.412222222234 0.0032061728396894
219	347387 1828 142 9080 0.280440064825 59.928149666251 66 0 0 0 0
220	349215 1828 142 9080 0.280440064825 59.928149666251 66 0 0 0 0
221	351043 2686 142 9080 0.280440064825 59.928149666251 66 0.007777777778 0.007777777778 0.513333333348 0.0039925925928207
222	353729 1465 178 9046 0.566735679384 59.739430926749 53 0 0 0 0
223	355194 1478 178 9046 0.566735679384 59.739430926749 53 0 0.004133189268 0.004133189268 1.708325352511e-005
224	356672 2154 178 9046 0.566735679384 59.739430926749 53 0.007777777778 0.011910967046 0.416355411502 0.0032875501484963
225	358826 1239 193 8909 0.704113847429 58.860603805722 45 0 0 0 0
226	360065 1239 193 8909 0.704113847429 58.860603805722 45 0 0 0 0
227	361304 1824 193 8909 0.704113847429 58.860603805722 45 0.007777777778 0.007777777778 0.35000000001 0.0027222222223778
228	363128 1734 247 9058 1.05089196372 59.807202486002 63 0 0 0 0
229	364862 1734 247 9058 1.05089196372 59.807202486002 63 0 0 0 0
230	366596 2553 247 9058 1.05089196372 59.807202486002 63 0.007777777778 0.007777777778 0.490000000014 0.0038111111113289
231	369149 2194 362 8902 1.912119027709 58.852071681672 79 0 0 0 0
232	371343 2220 362 8902 1.912119027709 58.852071681672 79 0 0.000600941933 0.000635153077 3.6230160921157e-007
233	373563 3221 362 8902 1.912119027709 58.852071681672 79 0.007777777778 0.008378719711 0.615079597539 0.0047892548065371
234	376784 1384 391 9012 2.108676559281 59.515207037962 50 0 0 0 0
235	378168 1384 391 9012 2.108676559281 59.515207037962 50 0 0 0 0
236	379552 2034 391 9012 2.108676559281 59.515207037962 50 0.007777777778 0.007777777778 0.3888888889 0.0030246913581975
237	381586 1573 432 9075 2.390054606466 59.923152831952 57 0 0 0 0
238	383159 1573 432 9075 2.390054606466 59.923152831952 57 0 0 0 0
239	384732 2314 432 9075 2.390054606466 59.923152831952 57 0.007777777778 0.007777777778 0.443333333346 0.0034481481483452

