file 730199 1612807839                                          
version 2
run Non-monitoring-2-20210208-19:10:39-12908
attr configname Non-monitoring
attr datetime 20210208-19:10:39
attr experiment Non-monitoring
attr inifile aerocom.ini
attr iterationvars ""
attr iterationvarsf ""
attr measurement ""
attr network Aerocom
attr processid 12908
attr repetition 2
attr replication #2
attr resultdir results
attr runnumber 2
attr seedset 2
param **.t 1s
param **.k 15ms
param **.nA 1
param **.nDL 10
param **.s "70 byte"
param **.X 5s
param **.dimPoolMax 10000
param **.dimPoolMin 8000
param **.tDistribution "\"lognormal\""
param **.m 1s
param **.DLMaxCapacity 0
param **.trasmitting false
param **.operationMode 1

vector 0 Aerocom.aircraft[0].packetGenerator arrivalTime:vector ETV
attr "" ""
attr source computeArrivalTime
vector 1 Aerocom.aircraft[0].dataLink[0] serviceTime:vector ETV
attr "" ""
attr source computeServiceTime
vector 2 Aerocom.aircraft[0].dataLink[0] tDistribution:vector ETV
attr "" ""
attr source computeTDistribution
vector 3 Aerocom.aircraft[0].dataLink[1] serviceTime:vector ETV
attr "" ""
attr source computeServiceTime
vector 4 Aerocom.aircraft[0].dataLink[1] tDistribution:vector ETV
attr "" ""
attr source computeTDistribution
vector 5 Aerocom.aircraft[0].dataLink[2] serviceTime:vector ETV
attr "" ""
attr source computeServiceTime
vector 6 Aerocom.aircraft[0].dataLink[2] tDistribution:vector ETV
attr "" ""
attr source computeTDistribution
vector 7 Aerocom.aircraft[0].dataLink[3] serviceTime:vector ETV
attr "" ""
attr source computeServiceTime
vector 8 Aerocom.aircraft[0].dataLink[3] tDistribution:vector ETV
attr "" ""
attr source computeTDistribution
vector 9 Aerocom.aircraft[0].dataLink[4] serviceTime:vector ETV
attr "" ""
attr source computeServiceTime
vector 10 Aerocom.aircraft[0].dataLink[4] tDistribution:vector ETV
attr "" ""
attr source computeTDistribution
vector 11 Aerocom.aircraft[0].dataLink[5] serviceTime:vector ETV
attr "" ""
attr source computeServiceTime
vector 12 Aerocom.aircraft[0].dataLink[5] tDistribution:vector ETV
attr "" ""
attr source computeTDistribution
vector 13 Aerocom.aircraft[0].dataLink[6] serviceTime:vector ETV
attr "" ""
attr source computeServiceTime
vector 14 Aerocom.aircraft[0].dataLink[6] tDistribution:vector ETV
attr "" ""
attr source computeTDistribution
vector 15 Aerocom.aircraft[0].dataLink[7] serviceTime:vector ETV
attr "" ""
attr source computeServiceTime
vector 16 Aerocom.aircraft[0].dataLink[7] tDistribution:vector ETV
attr "" ""
attr source computeTDistribution
vector 17 Aerocom.aircraft[0].dataLink[8] serviceTime:vector ETV
attr "" ""
attr source computeServiceTime
vector 18 Aerocom.aircraft[0].dataLink[8] tDistribution:vector ETV
attr "" ""
attr source computeTDistribution
vector 19 Aerocom.aircraft[0].dataLink[9] serviceTime:vector ETV
attr "" ""
attr source computeServiceTime
vector 20 Aerocom.aircraft[0].dataLink[9] tDistribution:vector ETV
attr "" ""
attr source computeTDistribution
vector 21 Aerocom.aircraft[0].dataLink[7] queueLength:vector ETV
attr "" ""
attr source computeQueueLength
vector 22 Aerocom.aircraft[0].dataLink[7] waitingTime:vector ETV
attr "" ""
attr source computeWaitingTime
vector 23 Aerocom.aircraft[0].dataLink[7] responseTime:vector ETV
attr "" ""
attr source computeResponseTime
0	3357 153501 0 19755 0 59.996464709653 3931 3.145216e-006 0.167081466282 60.015634048576 1.7985002786976
1	156858 26 0 0 0 0 1 0.0083462501490402 0.0083462501490402 0.0083462501490402 6.9659891550353e-005
2	156884 140 0 8281 0 24.835634593647 4 0.24865245266777 50.80368444257 75.639319036216 3067.2904681765
3	157024 25 0 0 0 0 1 0.007891770011274 0.007891770011274 0.007891770011274 6.2280033910843e-005
4	157049 299 0 10320 0 31.05779985954 8 0.85282686615831 53.354354340381 84.412154199922 3069.9761577371
5	157348 26 0 0 0 0 1 0.0074199703201187 0.0074199703201187 0.0074199703201187 5.5055959551443e-005
6	157374 559 0 19470 0 59.266066945858 14 0.047972185504171 27.341620473823 61.051049191082 1028.0145293706
7	157933 26 0 0 0 0 1 0.0080119033993362 0.0080119033993362 0.0080119033993362 6.4190596080294e-005
8	157959 431 0 13505 0 40.813352751126 11 0.016938161304633 162.07307068464 202.88642343576 26725.690585089
9	158390 26 0 0 0 0 1 0.0085034013605442 0.0085034013605442 0.0085034013605442 7.2307834698505e-005
10	158416 269 0 18583 0 56.767677485193 7 0.022503662225682 24.053195859481 63.025587123451 1155.5661060536
11	158685 27 0 0 0 0 1 0.0081967213114754 0.0081967213114754 0.0081967213114754 6.7186240257995e-005
12	158712 698 0 17137 0 52.533377176226 17 0.084151291235451 18.464699659568 70.998076835795 890.23228362672
13	159410 27 0 0 0 0 1 0.0077459333849729 0.0077459333849729 0.0077459333849729 5.9999484004438e-005
14	159437 432 0 15991 0 48.502678793405 11 0.061894205718878 192.16032692987 240.66300572328 37899.606637032
15	159869 172991 0 19753 0 59.994205517029 3930 0.0070893255013166 0.0083462501490402 30.416088793919 0.23581814374702
16	332860 515 0 17036 0 52.272164161475 13 0.016811062831211 17.835154188593 61.194439742155 597.8021981736
17	333375 27 0 0 0 0 1 0.0079890435973522 0.0079890435973522 0.0079890435973522 6.3824817600394e-005
18	333402 480 0 15316 0 46.341305487642 12 0.34626557039518 24.020703483032 67.865274684482 1125.0048171478
19	333882 27 0 0 0 0 1 0.0076965365585487 0.0076965365585487 0.0076965365585487 5.9236674997076e-005
20	333909 64 0 43 0 0.085708201532 2 0.085708201532259 66.994486225127 67.080194426659 4488.2685304645
21	333973 106746 15 19757 0.033504303867 59.996464709653 3930 0 5 916 1520
22	440719 132155 15 19753 0.033504303867 59.994205517029 3929 0 0.04149901272 14.643491520258 0.17683924362123
23	572874 157323 15 19753 0.033504303867 59.994205517029 3929 0.00709076175 0.04936064794 45.05232642808 0.64009936255444

