file 1428040 1612888990                                         
version 2
run Non-monitoring-5-20210209-17:43:10-29880
attr configname Non-monitoring
attr datetime 20210209-17:43:10
attr experiment Non-monitoring
attr inifile aerocom.ini
attr iterationvars ""
attr iterationvarsf ""
attr measurement ""
attr network Aerocom
attr processid 29880
attr repetition 5
attr replication #5
attr resultdir results
attr runnumber 5
attr seedset 5
param **.t 1s
param **.k 50ms
param **.nA 1
param **.nDL 1
param **.s "70 byte"
param **.X 0s
param **.dimPoolMax 9000
param **.dimPoolMin 9000
param **.tDistribution "\"exponential\""
param **.m 1s
param **.DLMaxCapacity 0
param **.trasmitting false
param **.operationMode 1

vector 0 Aerocom.aircraft[0].packetGenerator arrivalTime:vector ETV
attr "" ""
attr source computeArrivalTime
vector 1 Aerocom.aircraft[0].dataLink[0] queueLength:vector ETV
attr "" ""
attr source computeQueueLength
vector 2 Aerocom.aircraft[0].dataLink[0] waitingTime:vector ETV
attr "" ""
attr source computeWaitingTime
vector 3 Aerocom.aircraft[0].dataLink[0] serviceTime:vector ETV
attr "" ""
attr source computeServiceTime
vector 4 Aerocom.aircraft[0].dataLink[0] responseTime:vector ETV
attr "" ""
attr source computeResponseTime
vector 5 Aerocom.aircraft[0].dataLink[0] tDistribution:vector ETV
attr "" ""
attr source computeTDistribution
0	1345 312494 1059 40196 10.044026519452 399.984809462078 7751 2.9413495e-005 0.439984604317 389.97727098636 39.530341802642
1	313839 212593 1061 40198 10.044026519452 399.984809462078 7751 0 2 129 139
2	526432 227774 1061 40198 10.044026519452 399.984809462078 7751 0 0.020561032798 5.535676684619 0.037939065258015
3	754206 344355 1061 40198 10.044026519452 399.984809462078 7751 0.0077777777777778 0.0077777777777778 60.285555555549 0.46888765432103
4	1098561 313217 1061 40198 10.044026519452 399.984809462078 7751 0.007777777778 0.028338810576 65.821232241905 0.59293724581346
5	1411778 16260 1094 40000 10.431928260281 398.263778757678 387 0.00112453117653 7.7197114181423 389.65683619857 790.27184829659

