file 1451274 1612888990                                         
version 2
run Non-monitoring-4-20210209-17:43:10-31100
attr configname Non-monitoring
attr datetime 20210209-17:43:10
attr experiment Non-monitoring
attr inifile aerocom.ini
attr iterationvars ""
attr iterationvarsf ""
attr measurement ""
attr network Aerocom
attr processid 31100
attr repetition 4
attr replication #4
attr resultdir results
attr runnumber 4
attr seedset 4
param **.t 1s
param **.k 50ms
param **.nA 1
param **.nDL 1
param **.s "70 byte"
param **.X 0s
param **.dimPoolMax 9000
param **.dimPoolMin 9000
param **.tDistribution "\"exponential\""
param **.m 1s
param **.DLMaxCapacity 0
param **.trasmitting false
param **.operationMode 1

vector 0 Aerocom.aircraft[0].packetGenerator arrivalTime:vector ETV
attr "" ""
attr source computeArrivalTime
vector 1 Aerocom.aircraft[0].dataLink[0] queueLength:vector ETV
attr "" ""
attr source computeQueueLength
vector 2 Aerocom.aircraft[0].dataLink[0] waitingTime:vector ETV
attr "" ""
attr source computeWaitingTime
vector 3 Aerocom.aircraft[0].dataLink[0] serviceTime:vector ETV
attr "" ""
attr source computeServiceTime
vector 4 Aerocom.aircraft[0].dataLink[0] responseTime:vector ETV
attr "" ""
attr source computeResponseTime
vector 5 Aerocom.aircraft[0].dataLink[0] tDistribution:vector ETV
attr "" ""
attr source computeTDistribution
0	1345 317428 1014 40776 10.009187607679 399.829496651965 7873 8.67337e-007 0.453689045099 390.00577018374 39.141098490483
1	318773 215983 1016 40778 10.009187607679 399.829496651965 7873 0 2 101 115
2	534756 231590 1016 40778 10.009187607679 399.829496651965 7873 0 0.019700447602 5.28948444524 0.0340509947222
3	766346 349811 1016 40778 10.009187607679 399.829496651965 7873 0.0077777777777778 0.0077777777777778 61.234444444438 0.47626790123461
4	1116157 318174 1016 40778 10.009187607679 399.829496651965 7873 0.007777777778 0.02747822538 66.523928891442 0.59259976513453
5	1434331 16941 1309 40660 12.255990568409 398.997488345234 402 0.0058911080972789 6.7292833627546 387.88945358508 813.97989147443

