version 2
run Non-monitoring-7-20210208-19:10:41-6004
attr configname Non-monitoring
attr datetime 20210208-19:10:41
attr experiment Non-monitoring
attr inifile aerocom.ini
attr iterationvars ""
attr iterationvarsf ""
attr measurement ""
attr network Aerocom
attr processid 6004
attr repetition 7
attr replication #7
attr resultdir results
attr runnumber 7
attr seedset 7
param **.t 1s
param **.k 15ms
param **.nA 1
param **.nDL 10
param **.s "70 byte"
param **.X 5s
param **.dimPoolMax 10000
param **.dimPoolMin 8000
param **.tDistribution "\"lognormal\""
param **.m 1s
param **.DLMaxCapacity 0
param **.trasmitting false
param **.operationMode 1

vector 0 Aerocom.aircraft[0].packetGenerator arrivalTime:vector ETV
attr "" ""
attr source computeArrivalTime
vector 1 Aerocom.aircraft[0].dataLink[0] serviceTime:vector ETV
attr "" ""
attr source computeServiceTime
vector 2 Aerocom.aircraft[0].dataLink[0] tDistribution:vector ETV
attr "" ""
attr source computeTDistribution
vector 3 Aerocom.aircraft[0].dataLink[1] serviceTime:vector ETV
attr "" ""
attr source computeServiceTime
vector 4 Aerocom.aircraft[0].dataLink[1] tDistribution:vector ETV
attr "" ""
attr source computeTDistribution
vector 5 Aerocom.aircraft[0].dataLink[2] serviceTime:vector ETV
attr "" ""
attr source computeServiceTime
vector 6 Aerocom.aircraft[0].dataLink[2] tDistribution:vector ETV
attr "" ""
attr source computeTDistribution
vector 7 Aerocom.aircraft[0].dataLink[3] serviceTime:vector ETV
attr "" ""
attr source computeServiceTime
vector 8 Aerocom.aircraft[0].dataLink[3] tDistribution:vector ETV
attr "" ""
attr source computeTDistribution
vector 9 Aerocom.aircraft[0].dataLink[4] serviceTime:vector ETV
attr "" ""
attr source computeServiceTime
vector 10 Aerocom.aircraft[0].dataLink[4] tDistribution:vector ETV
attr "" ""
attr source computeTDistribution
vector 11 Aerocom.aircraft[0].dataLink[5] serviceTime:vector ETV
attr "" ""
attr source computeServiceTime
vector 12 Aerocom.aircraft[0].dataLink[5] tDistribution:vector ETV
attr "" ""
attr source computeTDistribution
vector 13 Aerocom.aircraft[0].dataLink[6] serviceTime:vector ETV
attr "" ""
attr source computeServiceTime
vector 14 Aerocom.aircraft[0].dataLink[6] tDistribution:vector ETV
attr "" ""
attr source computeTDistribution
vector 15 Aerocom.aircraft[0].dataLink[7] serviceTime:vector ETV
attr "" ""
attr source computeServiceTime
vector 16 Aerocom.aircraft[0].dataLink[7] tDistribution:vector ETV
attr "" ""
attr source computeTDistribution
vector 17 Aerocom.aircraft[0].dataLink[8] serviceTime:vector ETV
attr "" ""
attr source computeServiceTime
vector 18 Aerocom.aircraft[0].dataLink[8] tDistribution:vector ETV
attr "" ""
attr source computeTDistribution
vector 19 Aerocom.aircraft[0].dataLink[9] serviceTime:vector ETV
attr "" ""
attr source computeServiceTime
vector 20 Aerocom.aircraft[0].dataLink[9] tDistribution:vector ETV
attr "" ""
attr source computeTDistribution
vector 21 Aerocom.aircraft[0].dataLink[6] queueLength:vector ETV
attr "" ""
attr source computeQueueLength
vector 22 Aerocom.aircraft[0].dataLink[6] waitingTime:vector ETV
attr "" ""
attr source computeWaitingTime
vector 23 Aerocom.aircraft[0].dataLink[6] responseTime:vector ETV
attr "" ""
attr source computeResponseTime
0	0	0	0.000749279394
0	12	0.000749279394	0.009323407715
0	17	0.010072687109	0.030306780868
0	22	0.040379467977	0.001556505049
0	26	0.041935973026	0.0021449063
0	29	0.044080879326	0.022143932617
0	37	0.066224811943	0.002942498252
0	41	0.069167310195	0.00705689145
0	46	0.076224201645	0.010275588672
0	51	0.086499790317	0.00831981922
0	56	0.094819609537	0.029893414784
0	63	0.124713024321	0.004970157016
0	67	0.129683181337	0.052842912146
0	73	0.182526093483	0.013089820107
0	78	0.19561591359	0.021363217939
0	83	0.216979131529	0.010381525112
0	88	0.227360656641	0.007273714393
0	92	0.234634371034	0.005159856166
0	97	0.2397942272	0.007881941662
0	102	0.247676168862	0.012655829279
0	108	0.260331998141	0.018742945164
0	113	0.279074943305	0.031283414569
0	118	0.310358357874	0.004734429901
0	122	0.315092787775	0.039149804781
0	128	0.354242592556	0.028872802275
0	134	0.383115394831	0.005195727153
0	138	0.388311121984	0.021454074519
0	144	0.409765196503	0.003971073018
0	148	0.413736269521	0.010905788997
0	154	0.424642058518	0.004658526938
0	158	0.429300585456	0.002755881957
0	163	0.432056467413	0.00133529037
0	166	0.433391757783	0.005322127934
0	169	0.438713885717	0.020845828474
0	178	0.459559714191	0.005009933574
0	183	0.464569647765	0.007302080744
0	188	0.471871728509	0.005944887996
0	193	0.477816616505	0.013996128681
0	199	0.491812745186	0.009246690829
0	204	0.501059436015	0.002666367558
0	208	0.503725803573	0.011791058928
0	213	0.515516862501	0.007699716638
0	219	0.523216579139	0.003677020116
0	223	0.526893599255	0.024473243436
0	229	0.551366842691	0.024131696591
0	234	0.575498539282	0.0116776557
0	239	0.587176194982	0.019456924047
0	244	0.606633119029	0.021252057131
0	249	0.62788517616	0.028386237324
0	254	0.656271413484	0.00762055069
0	259	0.663891964174	0.004669825609
0	263	0.668561789783	0.024251903811
0	269	0.692813693594	0.014310851097
0	274	0.707124544691	0.028317366986
0	279	0.735441911677	0.015865916777
0	284	0.751307828454	0.001288253648
0	288	0.752596082102	0.007336363971
0	293	0.759932446073	0.042856643708
0	299	0.802789089781	0.007923498276
0	304	0.810712588057	0.011114592983
0	309	0.82182718104	0.024923411588
0	314	0.846750592628	0.014315704818
0	319	0.861066297446	0.013758214744
0	324	0.87482451219	0.021445495698
0	329	0.896270007888	0.034291871257
0	334	0.930561879145	0.003642321064
0	338	0.934204200209	0.0101011161
0	343	0.944305316309	0.03350482742
0	349	0.977810143729	0.026431681332
0	354	1.004241825061	0.02186833464
0	359	1.026110159701	0.029373177357
0	364	1.055483337058	0.00825708246
0	369	1.063740419518	0.023299063866
0	374	1.087039483384	0.026769477742
0	379	1.113808961126	0.032792770869
0	385	1.146601731995	0.004958644648
0	389	1.151560376643	0.009087770974
0	394	1.160648147617	0.018710300567
0	400	1.179358448184	0.005477416355
0	404	1.184835864539	0.007139258067
0	409	1.191975122606	0.025729011735
0	415	1.217704134341	0.013646800773
0	420	1.231350935114	0.002256495378
0	424	1.233607430492	0.019802816095
0	430	1.253410246587	0.007694831941
0	435	1.261105078528	0.004936594663
0	439	1.266041673191	0.003944106606
0	444	1.269985779797	0.013629017734
0	450	1.283614797531	0.013390728455
0	455	1.297005525986	0.01047995191
0	460	1.307485477896	0.032608664701
0	465	1.340094142597	0.002175866218
0	469	1.342270008815	0.005956687009
0	474	1.348226695824	0.015170377811
0	480	1.363397073635	0.024491339294
0	485	1.387888412929	0.008195438633
0	490	1.396083851562	0.023951738031
0	496	1.420035589593	0.044430023318
0	501	1.464465612911	0.004197940689
0	505	1.4686635536	0.017401162173
0	511	1.486064715773	0.025668425506
0	516	1.511733141279	0.019517567171
0	521	1.53125070845	0.009455436345
0	526	1.540706144795	0.007464727184
0	531	1.548170871979	0.020154773046
0	536	1.568325645025	0.001263394229
0	540	1.569589039254	0.009260760286
0	546	1.57884979954	0.00166165364
0	549	1.58051145318	0.018168198893
0	557	1.598679652073	0.046690952113
0	562	1.645370604186	0.00275839309
0	566	1.648128997276	0.018924274455
0	572	1.667053271731	0.002962986395
0	576	1.670016258126	0.007047011519
0	581	1.677063269645	0.028447305323
0	587	1.705510574968	0.044280996318
0	592	1.749791571286	0.006814605955
0	596	1.756606177241	0.004039902635
0	601	1.760646079876	0.007195601586
0	606	1.767841681462	0.018054150436
0	612	1.785895831898	0.000631208821
0	616	1.786527040719	0.01910003321
0	622	1.805627073929	0.015083514089
0	627	1.820710588018	0.006811624456
0	631	1.827522212474	0.024458264541
0	637	1.851980477015	0.000453662442
0	641	1.852434139457	0.034141031447
0	648	1.886575170904	0.001958079626
0	652	1.88853325053	0.029209614562
0	658	1.917742865092	0.019726835697
0	663	1.937469700789	0.002917057955
0	667	1.940386758744	0.007174200677
0	672	1.947560959421	0.007014602727
0	677	1.954575562148	0.003744495895
0	680	1.958320058043	0.007225769913
0	685	1.965545827956	0.022158551474
0	693	1.98770437943	0.012682068633
0	698	2.000386448063	0.006448676156
0	702	2.006835124219	0.010735086014
0	708	2.017570210233	0.023519947011
0	713	2.041090157244	0.011295920082
0	718	2.052386077326	0.005692848345
0	722	2.058078925671	0.011109957444
0	728	2.069188883115	0.011802655339
0	733	2.080991538454	0.040296728913
0	738	2.121288267367	0.012122395546
0	743	2.133410662913	0.004246905534
0	747	2.137657568447	0.015403718321
0	753	2.153061286768	0.003503649014
0	757	2.156564935782	0.004138118113
0	762	2.160703053895	0.025394770441
0	768	2.186097824336	0.041443971761
0	773	2.227541796097	0.005433217967
0	777	2.232975014064	0.01552961641
0	783	2.248504630474	0.016877072667
0	788	2.265381703141	0.003665763859
0	792	2.269047467	0.038587990351
0	798	2.307635457351	0.017292095393
0	803	2.324927552744	0.001088067109
0	807	2.326015619853	0.011684190631
0	812	2.337699810484	0.022833047393
0	818	2.360532857877	0.0078114634
0	823	2.368344321277	0.000536008645
0	827	2.368880329922	0.008490001873
0	832	2.377370331795	0.010672101164
0	837	2.388042432959	0.017590744836
0	843	2.405633177795	0.008664946443
0	848	2.414298124238	0.009590362661
0	853	2.423888486899	0.017593013286
0	858	2.441481500185	0.027229067507
0	863	2.468710567692	0.022660637596
0	868	2.491371205288	0.00208389685
0	872	2.493455102138	0.000725712543
0	875	2.494180814681	0.011159400409
0	880	2.50534021509	0.001162309162
0	885	2.506502524252	0.000273186559
0	888	2.506775710811	0.013927140165
0	895	2.520702850976	0.02449866265
0	903	2.545201513626	0.018690162377
0	908	2.563891676003	0.034478015178
0	914	2.598369691181	0.014308470821
0	919	2.612678162002	0.003855435804
0	923	2.616533597806	0.002452808834
0	926	2.61898640664	0.031564306278
0	934	2.650550712918	0.009290986568
0	939	2.659841699486	0.007968788582
0	944	2.667810488068	0.058879117863
0	949	2.726689605931	0.002066698798
0	953	2.728756304729	0.027822325419
0	959	2.756578630148	0.03248193309
0	964	2.789060563238	0.017660682953
0	969	2.806721246191	0.003690124531
0	973	2.810411370722	0.009320742267
0	978	2.819732112989	0.014273613159
0	984	2.834005726148	0.037292863807
0	989	2.871298589955	0.008769892384
0	994	2.880068482339	0.019783320266
0	999	2.899851802605	0.020986783295
0	1004	2.9208385859	3.154069e-005
0	1008	2.92087012659	0.009173480467
0	1013	2.930043607057	0.016763681599
0	1019	2.946807288656	0.000559546505
0	1023	2.947366835161	0.012967790806
0	1028	2.960334625967	0.016214989817
0	1034	2.976549615784	0.009780237719
0	1039	2.986329853503	0.006346960722
0	1043	2.992676814225	0.008593684231
0	1049	3.001270498456	0.022291092275
0	1054	3.023561590731	0.006772073117
0	1058	3.030333663848	0.016434329086
0	1064	3.046767992934	0.005014128442
0	1068	3.051782121376	0.008137039638
0	1073	3.059919161014	0.022177822274
0	1079	3.082096983288	0.015293194873
0	1084	3.097390178161	0.018872144937
0	1089	3.116262323098	0.006578187412
0	1093	3.12284051051	0.002665938183
0	1098	3.125506448693	0.00831279323
0	1103	3.133819241923	0.021451046213
0	1109	3.155270288136	0.049541092308
0	1114	3.204811380444	0.023114649757
0	1119	3.227926030201	0.007487818293
0	1124	3.235413848494	0.02012593064
0	1129	3.255539779134	0.005730838548
0	1133	3.261270617682	0.003897142868
0	1138	3.26516776055	0.007339817098
0	1143	3.272507577648	0.006011898882
0	1148	3.27851947653	0.023117312667
0	1154	3.301636789197	0.004847197946
0	1158	3.306483987143	0.005583030122
0	1163	3.312067017265	0.034182794738
0	1169	3.346249812003	0.055227264123
0	1174	3.401477076126	0.038878546388
0	1179	3.440355622514	0.010493910205
0	1184	3.450849532719	0.014457637684
0	1189	3.465307170403	0.048801826136
0	1195	3.514108996539	0.002219307728
0	1199	3.516328304267	0.000555469801
0	1202	3.516883774068	0.006832471968
0	1207	3.523716246036	0.011988433653
0	1212	3.535704679689	0.001840474939
0	1217	3.537545154628	0.000127825849
0	1220	3.537672980477	0.010756455977
0	1225	3.548429436454	0.005270458691
0	1230	3.553699895145	0.004503531249
0	1235	3.558203426394	0.020124041215
0	1242	3.578327467609	0.00175606379
0	1247	3.580083531399	0.017467028539
0	1254	3.597550559938	0.003125931041
0	1257	3.600676490979	0.024764192811
0	1265	3.62544068379	0.005872526959
0	1269	3.631313210749	0.004385279258
0	1274	3.635698490007	0.016428531256
0	1280	3.652127021263	0.018341202613
0	1285	3.670468223876	0.005608606484
0	1289	3.67607683036	0.005237118145
0	1294	3.681313948505	0.011133446628
0	1300	3.692447395133	0.00850647792
0	1305	3.700953873053	0.006091769098
0	1309	3.707045642151	0.015670510354
0	1315	3.722716152505	0.001387237889
0	1319	3.724103390394	0.027613984854
0	1325	3.751717375248	0.001386430017
0	1330	3.753103805265	0.009940118003
0	1335	3.763043923268	0.003693475813
0	1340	3.766737399081	0.019712993669
0	1346	3.78645039275	0.000971105141
0	1350	3.787421497891	0.012715705221
0	1355	3.800137203112	0.02256111311
0	1361	3.822698316222	0.00502099651
0	1365	3.827719312732	0.010281618142
0	1371	3.838000930874	0.009534897621
0	1376	3.847535828495	0.00480825799
0	1380	3.852344086485	0.004067850115
0	1385	3.8564119366	0.024897813755
0	1391	3.881309750355	0.004078032062
0	1395	3.885387782417	0.006180008864
0	1400	3.891567791281	0.013998308733
0	1406	3.905566100014	0.003265073061
0	1410	3.908831173075	0.006178905547
0	1415	3.915010078622	0.006277570293
0	1420	3.921287648915	0.002877326438
0	1423	3.924164975353	0.016756373011
0	1430	3.940921348364	0.002024474837
0	1435	3.942945823201	0.004992586041
0	1438	3.947938409242	0.007110941223
0	1443	3.955049350465	0.004631658491
0	1448	3.959681008956	0.002503720822
0	1451	3.962184729778	0.031947282056
0	1461	3.994132011834	0.006550125736
0	1465	4.00068213757	0.011619586902
0	1471	4.012301724472	0.00337351302
0	1475	4.015675237492	0.020424912236
0	1481	4.036100149728	0.013170982814
0	1486	4.049271132542	0.03421360304
0	1491	4.083484735582	0.000828771381
0	1495	4.084313506963	0.004802275121
0	1498	4.089115782084	0.006246296521
0	1503	4.095362078605	0.011435385765
0	1510	4.10679746437	0.012094823467
0	1515	4.118892287837	0.002144091636
0	1520	4.121036379473	0.002642298663
0	1523	4.123678678136	0.048995483812
0	1531	4.172674161948	0.00694854842
0	1535	4.179622710368	0.025106120726
0	1541	4.204728831094	0.018013955283
0	1546	4.222742786377	0.015807839273
0	1551	4.23855062565	0.020716801306
0	1556	4.259267426956	0.003389540241
0	1560	4.262656967197	0.010027752049
0	1565	4.272684719246	0.053015515065
0	1571	4.325700234311	0.034086402769
0	1576	4.35978663708	0.000542742191
0	1580	4.360329379271	0.005805077471
0	1583	4.366134456742	0.008254785462
0	1590	4.374389242204	0.004596428121
0	1594	4.378985670325	0.005767515118
0	1599	4.384753185443	0.027878656859
0	1607	4.412631842302	0.022502988813
0	1612	4.435134831115	0.024492843275
0	1617	4.45962767439	0.055388256025
0	1622	4.515015930415	0.002353482347
0	1626	4.517369412762	0.018156634729
0	1632	4.535526047491	0.043873923153
0	1638	4.579399970644	0.051944771014
0	1643	4.631344741658	0.009939455443
0	1648	4.641284197101	0.007555595172
0	1653	4.648839792273	0.018120684007
0	1659	4.66696047628	0.002078693731
0	1663	4.669039170011	0.006884634207
0	1668	4.675923804218	0.041484594236
0	1674	4.717408398454	0.048970118638
0	1679	4.766378517092	0.02122707766
0	1684	4.787605594752	0.020220513991
0	1689	4.807826108743	0.000708249726
0	1693	4.808534358469	0.003232993781
0	1696	4.81176735225	0.016309395493
0	1703	4.828076747743	0.004025366492
0	1708	4.832102114235	0.003853825417
0	1711	4.835955939652	0.013979986873
0	1718	4.849935926525	0.010992379938
0	1724	4.860928306463	0.001821431592
0	1728	4.862749738055	0.010720935073
0	1733	4.873470673128	0.00064705697
0	1736	4.874117730098	0.001706636221
0	1741	4.875824366319	0.003196646114
0	1744	4.879021012433	0.025316135436
0	1753	4.904337147869	0.001637738081
0	1758	4.90597488595	0.049232435618
0	1764	4.955207321568	0.004507122244
0	1768	4.959714443812	0.013333139371
0	1774	4.973047583183	0.028219357134
0	1789	5.001266940317	0.007769063984
0	1794	5.009036004301	0.022681966621
0	1799	5.031717970922	0.016001341503
0	1804	5.047719312425	0.021715280938
0	1809	5.069434593363	0.007556298325
0	1814	5.076990891688	0.003707645755
0	1818	5.080698537443	0.013566139141
0	1824	5.094264676584	0.001988350618
0	1828	5.096253027202	0.008502295405
0	1833	5.104755322607	0.058033231455
0	1839	5.162788554062	0.002488511551
0	1843	5.165277065613	0.003329424151
0	1846	5.168606489764	0.028913240703
0	1854	5.197519730467	0.015372265609
0	1859	5.212891996076	0.006678706963
0	1863	5.219570703039	0.010989163327
0	1869	5.230559866366	0.001618966036
0	1873	5.232178832402	0.028433066281
0	1879	5.260611898683	0.00056941965
0	1883	5.261181318333	0.03679532429
0	1889	5.297976642623	0.009130225156
0	1894	5.307106867779	0.014264653003
0	1899	5.321371520782	0.002057040595
0	1903	5.323428561377	0.068177889072
0	1909	5.391606450449	0.018247516162
0	1914	5.409853966611	0.001935994321
0	1918	5.411789960932	0.000982425655
0	1921	5.412772386587	0.033674465517
0	1929	5.446446852104	4.5532907e-005
0	1933	5.446492385011	0.029788548394
0	1939	5.476280933405	0.001400646473
0	1943	5.477681579878	0.003966866347
0	1946	5.481648446225	0.024587812021
0	1954	5.506236258246	0.005271218059
0	1958	5.511507476305	0.018119232847
0	1964	5.529626709152	0.006389831403
0	1968	5.536016540555	0.029497073132
0	1974	5.565513613687	2.8361872e-005
0	1978	5.565541975559	0.024265593139
0	1984	5.589807568698	0.019596530332
0	1989	5.60940409903	0.003894011573
0	1993	5.613298110603	0.004201691865
0	1998	5.617499802468	0.010660332505
0	2003	5.628160134973	0.041123808871
0	2009	5.669283943844	0.011666524013
0	2014	5.680950467857	0.008557970355
0	2019	5.689508438212	0.005215868554
0	2023	5.694724306766	0.010853692123
0	2029	5.705577998889	0.006911856612
0	2033	5.712489855501	0.001407208265
0	2038	5.713897063766	0.004726086633
0	2041	5.718623150399	0.00613215317
0	2046	5.724755303569	0.001469376272
0	2049	5.726224679841	0.0031905489
0	2054	5.729415228741	0.020983525152
0	2063	5.750398753893	0.019785095732
0	2069	5.770183849625	0.019669511872
0	2074	5.789853361497	0.010637396231
0	2079	5.800490757728	5.4480234e-005
0	2083	5.800545237962	0.006995156131
0	2086	5.807540394093	0.004109240375
0	2091	5.811649634468	0.029042159679
0	2099	5.840691794147	0.004714854275
0	2103	5.845406648422	0.010145540812
0	2109	5.855552189234	0.023528452505
0	2114	5.879080641739	0.007192051891
0	2118	5.88627269363	0.010621911086
0	2124	5.896894604716	0.004316799577
0	2128	5.901211404293	0.009401589601
0	2133	5.910612993894	0.020336331161
0	2139	5.930949325055	0.004575173401
0	2143	5.935524498456	0.006109790338
0	2148	5.941634288794	0.01386301559
0	2154	5.955497304384	0.053016803433
0	2159	6.008514107817	0.031321133093
0	2164	6.03983524091	0.001101137175
0	2168	6.040936378085	0.07506866628
0	2174	6.116005044365	0.007451805772
0	2179	6.123456850137	0.000409118709
0	2183	6.123865968846	0.014750764739
0	2189	6.138616733585	0.011155541107
0	2194	6.149772274692	0.012926050056
0	2199	6.162698324748	0.000668200282
0	2203	6.16336652503	0.033044374685
0	2209	6.196410899715	0.027836187693
0	2214	6.224247087408	0.041335079581
0	2219	6.265582166989	0.015254541961
0	2224	6.28083670895	0.02090623506
0	2229	6.30174294401	0.007561574993
0	2234	6.309304519003	0.012585943931
0	2239	6.321890462934	0.005499878407
0	2243	6.327390341341	0.00669418077
0	2248	6.334084522111	0.000949598398
0	2251	6.335034120509	0.016164734739
0	2259	6.351198855248	0.03402935801
0	2264	6.385228213258	0.017535770576
0	2270	6.402763983834	0.045222138094
0	2275	6.447986121928	0.035419273298
0	2281	6.483405395226	0.000484801665
0	2285	6.483890196891	0.008099169745
0	2290	6.491989366636	0.031329474226
0	2296	6.523318840862	0.037008200203
0	2302	6.560327041065	0.059159847444
0	2307	6.619486888509	0.013477808771
0	2312	6.63296469728	0.021334952187
0	2317	6.654299649467	0.021003955426
0	2322	6.675303604893	0.033755980251
0	2327	6.709059585144	0.008784741938
0	2332	6.717844327082	0.020893310536
0	2337	6.738737637618	0.011532522968
0	2342	6.750270160586	0.035491699417
0	2347	6.785761860003	0.008202784731
0	2352	6.793964644734	0.020256132603
0	2357	6.814220777337	0.003579488398
0	2361	6.817800265735	0.035320330675
0	2367	6.85312059641	0.022683751347
0	2372	6.875804347757	0.000423677301
0	2376	6.876228025058	0.000372955242
0	2379	6.8766009803	0.017096757048
0	2386	6.893697737348	0.010860203479
0	2391	6.904557940827	0.028094724664
0	2397	6.932652665491	0.01179981532
0	2402	6.944452480811	0.032769827475
0	2407	6.977222308286	0.035511674879
0	2412	7.012733983165	0.000640565557
0	2416	7.013374548722	0.060796726627
0	2422	7.074171275349	0.009759110437
0	2427	7.083930385786	0.000614814904
0	2431	7.08454520069	0.013113938621
0	2436	7.097659139311	0.003997133045
0	2441	7.101656272356	0.003771841006
0	2444	7.105428113362	0.001265422746
0	2449	7.106693536108	0.008475855477
0	2454	7.115169391585	0.017081075958
0	2461	7.132250467543	0.027211744981
0	2467	7.159462212524	0.009840082637
0	2472	7.169302295161	0.057818791432
0	2477	7.227121086593	0.010744386031
0	2482	7.237865472624	0.016574097936
0	2487	7.25443957056	0.01179446546
0	2492	7.26623403602	0.037552430325
0	2497	7.303786466345	0.013403339125
0	2502	7.31718980547	0.002359377864
0	2506	7.319549183334	0.034698207423
0	2512	7.354247390757	0.009006123932
0	2517	7.363253514689	0.018242072701
0	2522	7.38149558739	0.00137595616
0	2526	7.38287154355	0.008034281466
0	2531	7.390905825016	0.003029800391
0	2534	7.393935625407	0.003470038838
0	2539	7.397405664245	0.011583690122
0	2544	7.408989354367	0.008898993622
0	2549	7.417888347989	0.017016385584
0	2558	7.434904733573	0.012998402788
0	2563	7.447903136361	0.015341782043
0	2568	7.463244918404	0.013936378876
0	2573	7.47718129728	0.031782093536
0	2578	7.508963390816	0.131565560965
0	2583	7.640528951781	0.021008433187
0	2588	7.661537384968	0.011369531415
0	2593	7.672906916383	0.012672298622
0	2598	7.685579215005	0.002307006536
0	2602	7.687886221541	0.018374859698
0	2608	7.706261081239	0.013143186438
0	2613	7.719404267677	0.00602884463
0	2617	7.725433112307	0.006033785809
0	2622	7.731466898116	0.014370665575
0	2628	7.745837563691	0.007979126761
0	2633	7.753816690452	0.017681458651
0	2638	7.771498149103	0.020080279281
0	2643	7.791578428384	0.000695861216
0	2647	7.7922742896	0.000786327557
0	2650	7.793060617157	0.000559905266
0	2653	7.793620522423	0.012701095887
0	2660	7.80632161831	0.006332814885
0	2663	7.812654433195	0.037762859287
0	2673	7.850417292482	0.024939866325
0	2678	7.875357158807	0.013527076169
0	2683	7.888884234976	0.00831053392
0	2688	7.897194768896	0.006397849693
0	2692	7.903592618589	0.029717636514
0	2698	7.933310255103	0.016912475544
0	2703	7.950222730647	0.005205190076
0	2707	7.955427920723	0.010480692499
0	2713	7.965908613222	0.005449338217
0	2717	7.971357951439	0.002493845382
0	2722	7.973851796821	0.032126384759
0	2728	8.00597818158	0.005580844623
0	2732	8.011559026203	0.007149346571
0	2737	8.018708372774	0.013227375314
0	2743	8.031935748088	0.010614281344
0	2748	8.042550029432	0.056305644503
0	2753	8.098855673935	0.023815650509
0	2758	8.122671324444	0.021525819709
0	2763	8.144197144153	0.006142573048
0	2767	8.150339717201	0.019327254099
0	2773	8.1696669713	7.4700948e-005
0	2777	8.169741672248	0.006878963803
0	2780	8.176620636051	0.013199427854
0	2787	8.189820063905	0.049194390894
0	2793	8.239014454799	0.006453606043
0	2797	8.245468060842	0.002586848972
0	2802	8.248054909814	0.009074265292
0	2807	8.257129175106	0.007682105664
0	2812	8.26481128077	0.005190932594
0	2817	8.270002213364	0.003200190651
0	2820	8.273202404015	0.015987336614
0	2827	8.289189740629	0.055112697481
0	2833	8.34430243811	0.010149533222
0	2839	8.354451971332	0.002020672862
0	2843	8.356472644194	0.006777562812
0	2848	8.363250207006	0.030725249999
0	2854	8.393975457005	0.004174740616
0	2858	8.398150197621	0.008483291066
0	2863	8.406633488687	0.011371844797
0	2869	8.418005333484	0.000877831402
0	2873	8.418883164886	0.021905056306
0	2879	8.440788221192	0.01505738757
0	2884	8.455845608762	0.041100522993
0	2889	8.496946131755	0.024438458198
0	2894	8.521384589953	0.00456683199
0	2898	8.525951421943	0.013588070468
0	2904	8.539539492411	0.001064593177
0	2908	8.540604085588	0.00368430351
0	2911	8.544288389098	0.007257776238
0	2916	8.551546165336	0.006067893835
0	2921	8.557614059171	0.020433554306
0	2929	8.578047613477	0.000683721931
0	2933	8.578731335408	0.013870162797
0	2938	8.592601498205	0.012689972171
0	2944	8.605291470376	0.021786862067
0	2949	8.627078332443	0.017312769315
0	2954	8.644391101758	0.010836224455
0	2959	8.655227326213	0.005787629217
0	2963	8.66101495543	0.00608119387
0	2968	8.6670961493	0.028270416628
0	2974	8.695366565928	0.014581860823
0	2979	8.709948426751	0.002184420983
0	2983	8.712132847734	0.020811000257
0	2989	8.732943847991	0.005195271879
0	2993	8.73813911987	0.014971917142
0	2999	8.753111037012	0.001197914653
0	3003	8.754308951665	0.000326595615
0	3006	8.75463554728	0.001215298547
0	3009	8.755850845827	0.005988702537
0	3014	8.761839548364	0.008925107853
0	3019	8.770764656217	0.009105524231
0	3024	8.779870180448	0.008408275462
0	3029	8.78827845591	0.00622802285
0	3034	8.79450647876	0.021321919056
0	3043	8.815828397816	0.002501424341
0	3046	8.818329822157	0.011581669365
0	3053	8.829911491522	0.016888000063
0	3059	8.846799491585	0.007636161123
0	3064	8.854435652708	0.000238974317
0	3068	8.854674627025	0.018634174983
0	3074	8.873308802008	0.009882345287
0	3079	8.883191147295	0.003105193988
0	3083	8.886296341283	0.000471037337
0	3086	8.88676737862	0.008656679755
0	3091	8.895424058375	0.005480815233
0	3096	8.900904873608	0.025006791545
0	3104	8.925911665153	0.04897039541
0	3109	8.974882060563	0.026850640049
0	3114	9.001732700612	0.040826507877
0	3119	9.042559208489	0.007794031123
0	3124	9.050353239612	0.008188326531
0	3129	9.058541566143	0.017147253379
0	3134	9.075688819522	0.00194476511
0	3138	9.077633584632	5.2601183e-005
0	3141	9.077686185815	0.044645183462
0	3149	9.122331369277	0.00643021113
0	3153	9.128761580407	0.043884715234
0	3159	9.172646295641	0.000966525263
0	3163	9.173612820904	0.006877758099
0	3168	9.180490579003	0.01094351108
0	3173	9.191434090083	0.000819053364
0	3176	9.192253143447	0.038255447504
0	3184	9.230508590951	0.001986522591
0	3188	9.232495113542	0.025979113268
0	3194	9.25847422681	0.034150241479
0	3199	9.292624468289	0.00872650163
0	3204	9.301350969919	0.001293185359
0	3208	9.302644155278	0.000700925886
0	3211	9.303345081164	0.008306469909
0	3216	9.311651551073	0.038964554054
0	3224	9.350616105127	0.004921381677
0	3228	9.355537486804	0.002256173112
0	3231	9.357793659916	0.003830858129
0	3236	9.361624518045	0.011253828986
0	3243	9.372878347031	0.001433825841
0	3246	9.374312172872	0.066345157346
0	3254	9.440657330218	1.5627105e-005
0	3258	9.440672957323	0.017077219294
0	3264	9.457750176617	0.002752748588
0	3268	9.460502925205	0.016402187507
0	3274	9.476905112712	0.013937558371
0	3279	9.490842671083	0.002690860022
0	3283	9.493533531105	0.005993134988
0	3288	9.499526666093	0.003927582684
0	3291	9.503454248777	0.01822006319
0	3299	9.521674311967	0.003421357401
0	3303	9.525095669368	0.009098588869
0	3308	9.534194258237	0.001902166524
0	3311	9.536096424761	0.018948404392
0	3319	9.555044829153	0.016041736508
0	3324	9.571086565661	0.003197739129
0	3328	9.57428430479	0.00276524333
0	3331	9.57704954812	0.003857927009
0	3336	9.580907475129	0.004104202262
0	3339	9.585011677391	0.04326699614
0	3349	9.628278673531	0.055336172908
0	3354	9.683614846439	0.036375872121
0	3359	9.71999071856	0.005721745884
0	3363	9.725712464444	0.012747888098
0	3369	9.738460352542	0.005794225543
0	3373	9.744254578085	0.057892174334
0	3379	9.802146752419	0.009062792943
0	3384	9.811209545362	0.030146531124
0	3389	9.841356076486	0.038357913479
0	3395	9.879713989965	0.011235190943
0	3400	9.890949180908	0.039811048444
0	3405	9.930760229352	0.001858732186
0	3409	9.932618961538	0.034191882587
0	3415	9.966810844125	0.014832706221
0	3420	9.981643550346	0.007836749153
0	3425	9.989480299499	0.049716122827
0	3430	10.039196422326	0.0050522778
0	3434	10.044248700126	0.008704566876
0	3439	10.052953267002	0.006822418972
0	3444	10.059775685974	0.011267284575
0	3450	10.071042970549	0.00564931615
0	3454	10.076692286699	0.00163903533
0	3457	10.078331322029	0.015312970873
0	3465	10.093644292902	0.006028814343
0	3469	10.099673107245	0.040931917719
0	3476	10.140605024964	0.035399694246
0	3481	10.17600471921	0.002826808777
0	3485	10.178831527987	0.080454656014
0	3491	10.259286184001	0.037788881744
0	3496	10.297075065745	0.033651491033
0	3501	10.330726556778	0.007376318571
0	3506	10.338102875349	0.017914237692
0	3511	10.356017113041	0.020552155002
0	3516	10.376569268043	0.011689931749
0	3521	10.388259199792	0.012686199358
0	3526	10.40094539915	0.006976288002
0	3530	10.407921687152	0.015831152808
0	3536	10.42375283996	0.005206952374
0	3540	10.428959792334	0.037333402744
0	3547	10.466293195078	0.000529213057
0	3551	10.466822408135	0.000235941338
0	3554	10.467058349473	0.031892345089
0	3562	10.498950694562	0.003410718571
0	3566	10.502361413133	0.007160641401
0	3571	10.509522054534	0.034250381094
0	3577	10.543772435628	0.005343001543
0	3581	10.549115437171	0.011277539943
0	3587	10.560392977114	0.022081540477
0	3593	10.582474517591	0.004134606102
0	3597	10.586609123693	0.037528629845
0	3603	10.624137753538	0.00849659706
0	3608	10.632634350598	0.01128426735
0	3613	10.643918617948	0.00348959412
0	3617	10.647408212068	0.032488281594
0	3623	10.679896493662	0.000354423987
0	3627	10.680250917649	0.010931496929
0	3632	10.691182414578	0.011881627419
0	3638	10.703064041997	0.049564601431
0	3643	10.752628643428	0.053458514286
0	3648	10.806087157714	0.004464265869
0	3652	10.810551423583	0.016093939979
0	3658	10.826645363562	0.004768849403
0	3662	10.831414212965	0.042920216743
0	3669	10.874334429708	0.027638557952
0	3674	10.90197298766	0.043249902552
0	3679	10.945222890212	0.002606089894
0	3683	10.947828980106	0.01199942033
0	3688	10.959828400436	0.020049413379
0	3694	10.979877813815	0.004595585595
0	3698	10.98447339941	0.008127396031
0	3703	10.992600795441	0.004023808168
0	3708	10.996624603609	0.001943603426
0	3711	10.998568207035	0.007019524969
0	3716	11.005587732004	0.020060629243
0	3724	11.025648361247	0.001717963019
0	3728	11.027366324266	0.071358937958
0	3735	11.098725262224	0.010429571619
0	3740	11.109154833843	0.02077118884
0	3745	11.129926022683	0.006329112156
0	3749	11.136255134839	0.007826365864
0	3754	11.144081500703	0.055684524658
0	3760	11.199766025361	0.001076590338
0	3764	11.200842615699	0.002639901677
0	3767	11.203482517376	0.003115748401
0	3770	11.206598265777	0.006365574206
0	3775	11.212963839983	0.022403238493
0	3784	11.235367078476	0.000346362704
0	3787	11.23571344118	0.0124941644
0	3794	11.24820760558	0.097985395643
0	3801	11.346193001223	0.053925749768
0	3807	11.400118750991	0.006018579268
0	3811	11.406137330259	0.017584178407
0	3817	11.423721508666	0.003827369028
0	3821	11.427548877694	0.003405575375
0	3824	11.430954453069	0.010084146557
0	3831	11.441038599626	0.021284062156
0	3837	11.462322661782	0.00091990758
0	3841	11.463242569362	0.009067251081
0	3846	11.472309820443	0.011722203331
0	3851	11.484032023774	0.022370581121
0	3857	11.506402604895	0.009765693007
0	3862	11.516168297902	0.009611804576
0	3867	11.525780102478	0.000148789166
0	3871	11.525928891644	0.011363822437
0	3876	11.537292714081	0.022718274711
0	3882	11.560010988792	0.014437381867
0	3887	11.574448370659	0.014231124463
0	3892	11.588679495122	0.00459852682
0	3896	11.593278021942	0.055033631202
0	3903	11.648311653144	0.036048825565
0	3908	11.684360478709	0.021410369724
0	3913	11.705770848433	0.012793755904
0	3918	11.718564604337	0.004746626144
0	3922	11.723311230481	0.012384314547
0	3928	11.735695545028	0.00084634821
0	3932	11.736541893238	0.013727403398
0	3937	11.750269296636	0.006046948396
0	3942	11.756316245032	0.020250099238
0	3948	11.77656634427	0.025371189234
0	3953	11.801937533504	0.006695966785
0	3957	11.808633500289	0.000956593323
0	3962	11.809590093612	0.002278292011
0	3965	11.811868385623	0.007250162087
0	3970	11.81911854771	0.001664201819
0	3973	11.820782749529	0.021640560113
0	3982	11.842423309642	0.016970361739
0	3988	11.859393671381	0.04050861761
0	3993	11.899902288991	0.008617721145
0	3998	11.908520010136	0.027003191598
0	4003	11.935523201734	0.014738520272
0	4008	11.950261722006	0.00312130268
0	4012	11.953383024686	0.023258594245
0	4018	11.976641618931	0.016489312777
0	4023	11.993130931708	0.015970896247
0	4028	12.009101827955	0.005816742287
0	4032	12.014918570242	0.003829493456
0	4037	12.018748063698	0.05324751538
0	4043	12.071995579078	0.030429642071
0	4048	12.102425221149	0.069005371692
0	4053	12.171430592841	0.034786815081
0	4058	12.206217407922	0.006532280529
0	4062	12.212749688451	0.003408844304
0	4067	12.216158532755	0.025885177071
0	4073	12.242043709826	0.004034752054
0	4077	12.24607846188	0.027470919373
0	4083	12.273549381253	0.004063676655
0	4087	12.277613057908	0.003522067985
0	4092	12.281135125893	0.00993918009
0	4097	12.291074305983	0.012184877988
0	4103	12.303259183971	0.051845479298
0	4108	12.355104663269	0.004518105898
0	4112	12.359622769167	0.014131405825
0	4118	12.373754174992	0.003146168486
0	4122	12.376900343478	0.005153471956
0	4127	12.382053815434	0.002913162644
0	4130	12.384966978078	0.025047651424
0	4138	12.410014629502	0.000199845799
0	4142	12.410214475301	0.022813270837
0	4148	12.433027746138	0.035613441941
0	4153	12.468641188079	0.007643367724
0	4158	12.476284555803	0.001639390985
0	4162	12.477923946788	0.00682330952
0	4167	12.484747256308	0.006530763624
0	4172	12.491278019932	0.013748726161
0	4177	12.505026746093	0.004646726199
0	4182	12.509673472292	0.025201656242
0	4188	12.534875128534	0.068675187283
0	4193	12.603550315817	0.016849644667
0	4198	12.620399960484	0.006043001263
0	4202	12.626442961747	0.001418727284
0	4207	12.627861689031	0.018497815514
0	4213	12.646359504545	0.000860275325
0	4217	12.64721977987	0.003240255802
0	4220	12.650460035672	0.022970439888
0	4228	12.67343047556	0.002077417473
0	4232	12.675507893033	0.005358485118
0	4237	12.680866378151	0.025516696021
0	4243	12.706383074172	0.001621751526
0	4247	12.708004825698	0.001663052296
0	4250	12.709667877994	0.004127332046
0	4255	12.71379521004	0.019389470918
0	4262	12.733184680958	0.02372270289
0	4268	12.756907383848	0.011738776993
0	4273	12.768646160841	0.078922539354
0	4278	12.847568700195	0.00692714722
0	4282	12.854495847415	0.037538233759
0	4288	12.892034081174	2.5178012e-005
0	4292	12.892059259186	0.001382701211
0	4295	12.893441960397	0.00710044713
0	4300	12.900542407527	0.016259897879
0	4307	12.916802305406	0.044645497301
0	4313	12.961447802707	0.006529846755
0	4317	12.967977649462	0.019228339133
0	4323	12.987205988595	0.009676844178
0	4328	12.996882832773	0.008471013228
0	4333	13.005353846001	0.010174124005
0	4338	13.015527970006	0.0257130159
0	4343	13.041240985906	0.007245181586
0	4347	13.048486167492	0.003542675133
0	4352	13.052028842625	0.005066288928
0	4357	13.057095131553	0.043472221157
0	4363	13.10056735271	0.014974616007
0	4368	13.115541968717	0.004446329253
0	4372	13.11998829797	0.006765521786
0	4377	13.126753819756	0.022227457126
0	4383	13.148981276882	0.006099405741
0	4387	13.155080682623	0.019581446754
0	4393	13.174662129377	0.003411226637
0	4397	13.178073356014	0.007658341312
0	4402	13.185731697326	0.049377107304
0	4408	13.23510880463	0.002772083495
0	4412	13.237880888125	0.008441466934
0	4417	13.246322355059	0.007684141863
0	4422	13.254006496922	0.008079402406
0	4427	13.262085899328	0.007990416921
0	4432	13.270076316249	0.008525793617
0	4437	13.278602109866	0.024222422827
0	4443	13.302824532693	0.014541230019
0	4448	13.317365762712	0.019097604326
0	4453	13.336463367038	0.002830846587
0	4457	13.339294213625	0.009921500047
0	4462	13.349215713672	0.001539027941
0	4465	13.350754741613	0.026497147157
0	4473	13.37725188877	0.025643991594
0	4478	13.402895880364	0.021257507669
0	4483	13.424153388033	0.026258694562
0	4488	13.450412082595	0.044109209079
0	4493	13.494521291674	0.003114665346
0	4497	13.49763595702	0.00367035235
0	4500	13.50130630937	0.019799362662
0	4508	13.521105672032	0.001446148327
0	4512	13.522551820359	0.004365461686
0	4515	13.526917282045	0.020343544906
0	4523	13.547260826951	0.006510928222
0	4527	13.553771755173	0.039086795669
0	4533	13.592858550842	0.054527801137
0	4538	13.647386351979	0.010340718976
0	4543	13.657727070955	0.020157187509
0	4548	13.677884258464	0.023926806662
0	4553	13.701811065126	0.035492192081
0	4558	13.737303257207	0.000438714347
0	4562	13.737741971554	0.003994587191
0	4565	13.741736558745	0.009388190972
0	4570	13.751124749717	0.011230705499
0	4577	13.762355455216	0.061320872373
0	4583	13.823676327589	0.003192774953
0	4587	13.826869102542	0.009035388196
0	4592	13.835904490738	0.031672061105
0	4598	13.867576551843	0.026960043289
0	4603	13.894536595132	0.000733414427
0	4607	13.895270009559	0.002350090762
0	4610	13.897620100321	0.02709821461
0	4618	13.924718314931	0.037737880233
0	4623	13.962456195164	0.018968747881
0	4628	13.981424943045	0.000806148766
0	4632	13.982231091811	0.038303610358
0	4638	14.020534702169	0.003885513877
0	4642	14.024420216046	0.025690356026
0	4648	14.050110572072	0.00777708191
0	4653	14.057887653982	0.002913531465
0	4657	14.060801185447	0.007054857619
0	4662	14.067856043066	0.01329107908
0	4668	14.081147122146	0.042760547287
0	4673	14.123907669433	0.020527931266
0	4678	14.144435600699	0.009189879733
0	4683	14.153625480432	0.055582772677
0	4688	14.209208253109	0.001498566381
0	4692	14.21070681949	0.015524640872
0	4698	14.226231460362	0.008012323895
0	4703	14.234243784257	0.005782437833
0	4707	14.24002622209	0.006339070187
0	4712	14.246365292277	0.023434208675
0	4718	14.269799500952	0.01107119502
0	4723	14.280870695972	0.000266162336
0	4727	14.281136858308	0.001440950673
0	4730	14.282577808981	0.01204003159
0	4735	14.294617840571	0.020949976747
0	4743	14.315567817318	0.014567977935
0	4748	14.330135795253	0.006797549982
0	4752	14.336933345235	0.004825034562
0	4757	14.341758379797	0.004330650885
0	4762	14.346089030682	0.007363699074
0	4767	14.353452729756	0.011365785036
0	4772	14.364818514792	0.031407262452
0	4778	14.396225777244	0.003168677357
0	4782	14.399394454601	0.064024089411
0	4788	14.463418544012	0.024340727229
0	4793	14.487759271241	0.002254302507
0	4797	14.490013573748	0.008048772236
0	4802	14.498062345984	0.042475327166
0	4808	14.54053767315	0.009684927403
0	4813	14.550222600553	0.008050174925
0	4818	14.558272775478	0.003802286329
0	4822	14.562075061807	0.010264610522
0	4827	14.572339672329	0.0034898921
0	4832	14.575829564429	0.019207716226
0	4838	14.595037280655	0.02175474112
0	4843	14.616792021775	0.012506682379
0	4848	14.629298704154	0.015717228311
0	4853	14.645015932465	0.013429215228
0	4858	14.658445147693	0.000598672199
0	4862	14.659043819892	0.010171626385
0	4867	14.669215446277	0.025503443356
0	4873	14.694718889633	0.004884284089
0	4877	14.699603173722	0.034388086477
0	4883	14.733991260199	0.006309170292
0	4887	14.740300430491	0.018660486394
0	4893	14.758960916885	0.040210477336
0	4898	14.799171394221	0.00286141255
0	4902	14.802032806771	0.014666697131
0	4908	14.816699503902	0.008026717274
0	4913	14.824726221176	0.026764868459
0	4918	14.851491089635	0.002858532699
0	4922	14.854349622334	0.006870323265
0	4927	14.861219945599	0.017591199661
0	4933	14.87881114526	0.041327990112
0	4938	14.920139135372	0.01626230287
0	4943	14.936401438242	0.012057178958
0	4948	14.9484586172	0.010239692735
0	4953	14.958698309935	0.004826680397
0	4957	14.963524990332	0.039652774388
0	4963	15.00317776472	0.018255517705
0	4968	15.021433282425	0.000432152478
0	4972	15.021865434903	0.004342771497
0	4975	15.0262082064	0.009397765762
0	4980	15.035605972162	0.012298753334
0	4987	15.047904725496	0.025398803447
0	4993	15.073303528943	0.010558101265
0	4998	15.083861630208	0.027592436947
0	5003	15.111454067155	0.000833059274
0	5007	15.112287126429	0.013587734282
0	5012	15.125874860711	0.023430060389
0	5018	15.1493049211	0.018476774197
0	5023	15.167781695297	0.003601106952
0	5027	15.171382802249	5.1558843e-005
0	5030	15.171434361092	0.000839217597
0	5033	15.172273578689	0.012355670915
0	5040	15.184629249604	0.005003684159
0	5043	15.189632933763	0.015133337323
0	5052	15.204766271086	0.011986963364
0	5057	15.21675323445	0.037720226394
0	5063	15.254473460844	0.01130511174
0	5068	15.265778572584	0.001608023873
0	5072	15.267386596457	0.014592431193
0	5078	15.28197902765	0.033005803309
0	5083	15.314984830959	0.002307918562
0	5087	15.317292749521	0.014503289882
0	5093	15.331796039403	0.065931444189
0	5098	15.397727483592	0.035709409916
0	5103	15.433436893508	0.015958707973
0	5108	15.449395601481	0.016394034016
0	5113	15.465789635497	0.014898284698
0	5118	15.480687920195	0.031641536254
0	5123	15.512329456449	0.00187758197
0	5127	15.514207038419	0.00439715899
0	5130	15.518604197409	0.000543648358
0	5133	15.519147845767	0.022581158953
0	5142	15.54172900472	0.062942993868
0	5148	15.604671998588	0.007742610122
0	5153	15.61241460871	0.003318372589
0	5157	15.615732981299	0.006808850562
0	5162	15.622541831861	0.004463831017
0	5165	15.627005662878	0.019896920484
0	5173	15.646902583362	0.00486710664
0	5177	15.651769690002	0.005493300787
0	5182	15.657262990789	0.004396585742
0	5187	15.661659576531	0.004100933704
0	5190	15.665760510235	0.018468317366
0	5198	15.684228827601	0.026260853438
0	5203	15.710489681039	0.019441480847
0	5208	15.729931161886	0.001889754526
0	5212	15.731820916412	0.055228245983
0	5218	15.787049162395	0.012512014191
0	5223	15.799561176586	0.001349622499
0	5227	15.800910799085	0.029596059446
0	5233	15.830506858531	0.023313568105
0	5238	15.853820426636	0.019381107003
0	5243	15.873201533639	0.008442419372
0	5248	15.881643953011	0.004781420252
0	5252	15.886425373263	0.005510620658
0	5257	15.891935993921	0.001537071743
0	5260	15.893473065664	0.039581431949
0	5268	15.933054497613	0.020333490363
0	5273	15.953387987976	0.00741153361
0	5278	15.960799521586	0.015283819027
0	5283	15.976083340613	0.00238842355
0	5287	15.978471764163	0.000355123709
0	5290	15.978826887872	0.004579140856
0	5293	15.983406028728	0.019981395451
0	5302	16.003387424179	0.035279377744
0	5308	16.038666801923	0.005367667775
0	5312	16.044034469698	0.029529230293
0	5318	16.073563699991	0.008877212556
0	5323	16.082440912547	0.015799894194
0	5328	16.098240806741	0.013966741552
0	5333	16.112207548293	0.045050522006
0	5338	16.157258070299	0.00475597011
0	5342	16.162014040409	0.004373602742
0	5347	16.166387643151	0.011039627401
0	5352	16.177427270552	0.016121772581
0	5358	16.193549043133	0.024294715449
0	5363	16.217843758582	0.044893341408
0	5368	16.26273709999	0.032541965338
0	5373	16.295279065328	0.004222038987
0	5377	16.299501104315	0.008952703543
0	5382	16.308453807858	0.002389548999
0	5387	16.310843356857	0.00178280953
0	5390	16.312626166387	0.054504133882
0	5398	16.367130300269	0.016068127329
0	5403	16.383198427598	0.057589257819
0	5408	16.440787685417	0.012259864759
0	5413	16.453047550176	0.003969923974
0	5417	16.45701747415	0.008664401757
0	5422	16.465681875907	0.008690690679
0	5427	16.474372566586	0.001340912746
0	5432	16.475713479332	0.014140408733
0	5438	16.489853888065	0.013270687456
0	5443	16.503124575521	0.017665588
0	5448	16.520790163521	0.000428817416
0	5452	16.521218980937	0.019214090715
0	5458	16.540433071652	0.007939251902
0	5463	16.548372323554	0.009560583702
0	5468	16.557932907256	0.014995414744
0	5473	16.572928322	0.001001448707
0	5477	16.573929770707	0.003606935979
0	5480	16.577536706686	0.061653877208
0	5488	16.639190583894	0.002193703514
0	5492	16.641384287408	0.015014308344
0	5498	16.656398595752	0.002606727837
0	5502	16.659005323589	0.027585001186
0	5508	16.686590324775	0.009956819055
0	5513	16.69654714383	0.004434622234
0	5517	16.700981766064	0.00639342015
0	5522	16.707375186214	0.010857034553
0	5527	16.718232220767	0.015637425192
0	5533	16.733869645959	0.033499505772
0	5538	16.767369151731	0.022877864474
0	5543	16.790247016205	0.001583816718
0	5547	16.791830832923	0.011260850322
0	5552	16.803091683245	0.002655673615
0	5557	16.80574735686	0.004402757449
0	5560	16.810150114309	0.004047323895
0	5565	16.814197438204	0.017410237961
0	5572	16.831607676165	0.00016937606
0	5575	16.831777052225	0.006329491187
0	5580	16.838106543412	0.001408341454
0	5583	16.839514884866	0.005309411072
0	5588	16.844824295938	0.016534551265
0	5595	16.861358847203	0.007765391215
0	5600	16.869124238418	0.054524795136
0	5608	16.923649033554	0.00894508039
0	5613	16.932594113944	0.019395143478
0	5618	16.951989257422	0.018108963881
0	5623	16.970098221303	0.02875184819
0	5628	16.998850069493	0.002227098441
0	5632	17.001077167934	0.000180862281
0	5635	17.001258030215	0.004125274583
0	5638	17.005383304798	0.021311152761
0	5647	17.026694457559	0.00527425972
0	5652	17.031968717279	0.022685980022
0	5658	17.054654697301	0.012546375533
0	5663	17.067201072834	0.001668268076
0	5667	17.06886934091	0.004112560242
0	5670	17.072981901152	0.008387427182
0	5675	17.081369328334	0.015096212738
0	5682	17.096465541072	0.005484961697
0	5687	17.101950502769	0.004549329501
0	5692	17.10649983227	0.020345577698
0	5698	17.126845409968	0.021471059654
0	5703	17.148316469622	0.002455554701
0	5707	17.150772024323	0.010632002357
0	5712	17.16140402668	0.004712359306
0	5717	17.166116385986	0.00821216694
0	5722	17.174328552926	0.010691624359
0	5727	17.185020177285	0.016820716815
0	5733	17.2018408941	0.064073750348
0	5738	17.265914644448	0.009922964119
0	5743	17.275837608567	0.007453868482
0	5748	17.283291477049	0.002543015236
0	5752	17.285834492285	0.003240457365
0	5755	17.28907494965	0.001884139717
0	5760	17.290959089367	0.025759159836
0	5768	17.316718249203	0.035539822877
0	5773	17.35225807208	0.005719812922
0	5777	17.357977885002	0.005521876645
0	5782	17.363499761647	0.01140124729
0	5788	17.374901008937	0.007928448399
0	5793	17.382829457336	0.011802137148
0	5798	17.394631594484	0.004983947438
0	5802	17.399615541922	0.012946442692
0	5808	17.412561984614	0.038309919543
0	5813	17.450871904157	0.013194329806
0	5819	17.464066233963	0.00757640712
0	5824	17.471642641083	0.001839779413
0	5828	17.473482420496	0.030138927539
0	5834	17.503621348035	0.006149783225
0	5838	17.50977113126	0.010143102909
0	5844	17.519914234169	0.055040648357
0	5849	17.574954882526	0.003357129308
0	5853	17.578312011834	0.017863354873
0	5859	17.596175366707	0.005064670906
0	5863	17.601240037613	0.005546995657
0	5868	17.60678703327	0.006695137465
0	5873	17.613482170735	0.00339084746
0	5876	17.616873018195	0.010849510804
0	5883	17.627722528999	0.00018924077
0	5886	17.627911769769	0.017694791904
0	5893	17.645606561673	0.001909651246
0	5896	17.647516212919	0.013987100431
0	5903	17.66150331335	0.016135503629
0	5909	17.677638816979	0.025311376357
0	5914	17.702950193336	0.01194683315
0	5919	17.714897026486	0.028822825889
0	5924	17.743719852375	0.045531970519
0	5929	17.789251822894	0.016160244721
0	5934	17.805412067615	0.009191967382
0	5939	17.814604034997	0.024571139086
0	5944	17.839175174083	0.03126642983
0	5949	17.870441603913	0.004084220433
0	5953	17.874525824346	0.013506062771
0	5959	17.888031887117	0.028874986377
0	5964	17.916906873494	0.000625099459
0	5968	17.917531972953	0.03168133773
0	5974	17.949213310683	0.001071077708
0	5978	17.950284388391	0.000811206814
0	5981	17.951095595205	0.003628310769
0	5984	17.954723905974	0.033478185845
0	5994	17.988202091819	0.033856087277
0	5999	18.022058179096	0.006362777523
0	6003	18.028420956619	0.010488309966
0	6009	18.038909266585	0.006940140723
0	6013	18.045849407308	0.001445810266
0	6018	18.047295217574	0.000353414956
0	6021	18.04764863253	0.004265465079
0	6024	18.051914097609	0.048424724677
0	6034	18.100338822286	0.002427785227
0	6038	18.102766607513	0.002678216235
0	6041	18.105444823748	0.012563108398
0	6048	18.118007932146	0.028419422078
0	6054	18.146427354224	0.029092486437
0	6059	18.175519840661	0.044330184931
0	6064	18.219850025592	0.005367596351
0	6068	18.225217621943	0.008797084556
0	6073	18.234014706499	0.020408725553
0	6079	18.254423432052	0.005770184525
0	6083	18.260193616577	0.005577170933
0	6088	18.26577078751	0.005100778278
0	6093	18.270871565788	0.018666535143
0	6099	18.289538100931	0.0144754231
0	6104	18.304013524031	0.105087301438
0	6109	18.409100825469	0.006562495211
0	6113	18.41566332068	0.006257773831
0	6118	18.421921094511	0.045849262464
0	6124	18.467770356975	0.001083766711
0	6128	18.468854123686	0.008975244551
0	6133	18.477829368237	0.002703503247
0	6136	18.480532871484	0.001832201273
0	6139	18.482365072757	0.001284645516
0	6144	18.483649718273	0.007880188889
0	6149	18.491529907162	0.014445655952
0	6156	18.505975563114	0.013997034413
0	6163	18.519972597527	0.043864312435
0	6169	18.563836909962	0.021622676944
0	6174	18.585459586906	0.003731393065
0	6178	18.589190979971	0.003606398921
0	6181	18.592797378892	0.000538939769
0	6186	18.593336318661	0.010481300697
0	6191	18.603817619358	0.006538956345
0	6196	18.610356575703	0.099031392873
0	6204	18.709387968576	0.007329583548
0	6208	18.716717552124	0.047524375914
0	6214	18.764241928038	0.001893039598
0	6218	18.766134967636	0.003292925187
0	6221	18.769427892823	0.013421053738
0	6228	18.782848946561	0.027532378445
0	6234	18.810381325006	0.000304472494
0	6238	18.8106857975	0.017233753149
0	6244	18.827919550649	0.048206983996
0	6249	18.876126534645	0.012615277467
0	6254	18.888741812112	0.033838585807
0	6259	18.922580397919	0.014602825745
0	6264	18.937183223664	0.005240253614
0	6268	18.942423477278	0.010805014262
0	6274	18.95322849154	0.001176039019
0	6278	18.954404530559	0.031331633756
0	6284	18.985736164315	0.006039905286
0	6288	18.991776069601	0.003244906419
0	6293	18.99502097602	0.011519950015
0	6298	19.006540926035	0.011962005647
0	6304	19.018502931682	0.002227766794
0	6308	19.020730698476	0.052455217099
0	6314	19.073185915575	0.000268027293
0	6318	19.073453942868	0.003431639212
0	6321	19.07688558208	0.003262908932
0	6324	19.080148491012	0.018423300297
0	6333	19.098571791309	0.009253985835
0	6338	19.107825777144	0.001946801514
0	6341	19.109772578658	0.013653176245
0	6348	19.123425754903	0.035124447712
0	6354	19.158550202615	0.008278714993
0	6359	19.166828917608	0.014458156959
0	6364	19.181287074567	0.003832036036
0	6368	19.185119110603	0.02648514733
0	6374	19.211604257933	0.059730055031
0	6379	19.271334312964	0.019997004059
0	6384	19.291331317023	0.017057169423
0	6389	19.308388486446	0.008561305445
0	6394	19.316949791891	0.039577875862
0	6399	19.356527667753	0.013894528723
0	6404	19.370422196476	0.076572245041
0	6409	19.446994441517	0.002743231342
0	6413	19.449737672859	0.008162857232
0	6418	19.457900530091	0.015049951361
0	6424	19.472950481452	0.026861874394
0	6429	19.499812355846	0.001715487207
0	6433	19.501527843053	0.004134459795
0	6436	19.505662302848	0.016852254785
0	6444	19.522514557633	0.001177360841
0	6448	19.523691918474	0.053482998771
0	6454	19.577174917245	0.00170037335
0	6458	19.578875290595	0.023514243051
0	6464	19.602389533646	0.012552222118
0	6469	19.614941755764	0.022768496818
0	6474	19.637710252582	0.010112941956
0	6479	19.647823194538	0.012268038349
0	6484	19.660091232887	0.002677784654
0	6488	19.662769017541	0.007990497477
0	6493	19.670759515018	0.008411384148
0	6498	19.679170899166	0.050355477129
0	6504	19.729526376295	0.01296505892
0	6509	19.742491435215	0.004238868464
0	6513	19.746730303679	0.002471793544
0	6516	19.749202097223	0.001095248724
0	6521	19.750297345947	0.002727222784
0	6524	19.753024568731	0.010079125971
0	6529	19.763103694702	0.015113307724
0	6536	19.778217002426	0.014021112234
0	6543	19.79223811466	0.00069993977
0	6546	19.79293805443	0.033711481179
0	6554	19.826649535609	0.02359550275
0	6559	19.850245038359	0.002485207901
0	6563	19.85273024626	0.00447395575
0	6566	19.85720420201	0.003571240348
0	6571	19.860775442358	0.00345660892
0	6574	19.864232051278	0.015204797629
0	6581	19.879436848907	0.000164088492
0	6584	19.879600937399	0.002783345099
0	6589	19.882384282498	0.003990112807
0	6592	19.886374395305	0.008838012914
0	6599	19.895212408219	4.7081095e-005
0	6602	19.895259489314	0.034258793861
0	6613	19.929518283175	0.004863983128
0	6618	19.934382266303	0.000170634353
0	6621	19.934552900656	0.007011272305
0	6626	19.941564172961	0.008679500687
0	6631	19.950243673648	0.039855885459
0	6639	19.990099559107	0.015623391032
0	6644	20.005722950139	0.006514261174
0	6648	20.012237211313	0.001450852156
0	6653	20.013688063469	0.000561187168
0	6656	20.014249250637	0.057233471511
0	6664	20.071482722148	0.07814040678
0	6669	20.149623128928	0.024447565527
0	6674	20.174070694455	0.010269997501
0	6679	20.184340691956	0.043052668809
0	6684	20.227393360765	0.012447814336
0	6689	20.239841175101	0.00656599152
0	6693	20.246407166621	0.007835217501
0	6698	20.254242384122	0.004601218218
0	6703	20.25884360234	0.013793636528
0	6709	20.272637238868	0.010099802061
0	6714	20.282737040929	0.018222728958
0	6719	20.300959769887	0.006770902
0	6723	20.307730671887	0.01491709333
0	6729	20.322647765217	0.004138776529
0	6733	20.326786541746	0.034724024186
0	6740	20.361510565932	0.088222655921
0	6745	20.449733221853	0.001571459992
0	6749	20.451304681845	0.01826368289
0	6755	20.469568364735	0.004621871498
0	6759	20.474190236233	0.003938692735
0	6764	20.478128928968	0.039362131078
0	6770	20.517491060046	0.01068671866
0	6775	20.528177778706	0.007866140692
0	6780	20.536043919398	0.006788791061
0	6784	20.542832710459	0.002058637495
0	6789	20.544891347954	0.010072161802
0	6794	20.554963509756	0.033945899289
0	6800	20.588909409045	0.010891551871
0	6805	20.599800960916	0.013032725492
0	6810	20.612833686408	0.02291237733
0	6815	20.635746063738	0.007604976983
0	6820	20.643351040721	0.007902173393
0	6825	20.651253214114	0.001082146522
0	6829	20.652335360636	0.04384088247
0	6835	20.696176243106	0.006253379243
0	6839	20.702429622349	0.001489684045
0	6844	20.703919306394	0.012712369743
0	6849	20.716631676137	0.001895776696
0	6854	20.718527452833	0.027477486172
0	6860	20.746004939005	0.004794460196
0	6864	20.750799399201	0.03540060332
0	6870	20.786200002521	0.008073013552
0	6875	20.794273016073	0.028934005229
0	6880	20.823207021302	0.01180773325
0	6885	20.835014754552	0.009640748792
0	6890	20.844655503344	0.001695672513
0	6894	20.846351175857	0.012393614051
0	6899	20.858744789908	0.029603394186
0	6905	20.888348184094	0.000935243253
0	6909	20.889283427347	0.005284736866
0	6912	20.894568164213	0.005895468369
0	6917	20.900463632582	0.000909041869
0	6920	20.901372674451	0.006987006319
0	6925	20.90835968077	0.000142746299
0	6928	20.908502427069	0.020163258779
0	6938	20.928665685848	0.029583904934
0	6946	20.958249590782	0.009501763292
0	6951	20.967751354074	0.008012507842
0	6956	20.975763861916	0.010456225101
0	6961	20.986220087017	0.027527889762
0	6966	21.013747976779	0.003855953342
0	6970	21.017603930121	0.010324088064
0	6975	21.027928018185	0.020347542628
0	6981	21.048275560813	0.028432015703
0	6986	21.076707576516	0.00599507922
0	6990	21.082702655736	0.003417634044
0	6995	21.08612028978	0.040772621795
0	7001	21.126892911575	0.017120678795
0	7006	21.14401359037	0.003608207265
0	7010	21.147621797635	0.001247512961
0	7013	21.148869310596	0.009539297543
0	7019	21.158408608139	0.008500861023
0	7026	21.166909469162	0.009015290896
0	7031	21.175924760058	0.000138121871
0	7034	21.176062881929	0.003811496786
0	7037	21.179874378715	0.061283957475
0	7047	21.24115833619	0.004967469794
0	7051	21.246125805984	0.038020114986
0	7057	21.28414592097	0.003125921293
0	7061	21.287271842263	0.023839122304
0	7067	21.311110964567	0.01218810147
0	7072	21.323299066037	0.018706466652
0	7077	21.342005532689	0.006624054516
0	7081	21.348629587205	0.004193129614
0	7086	21.352822716819	0.000695132169
0	7089	21.353517848988	0.014711425709
0	7096	21.368229274697	0.083481940049
0	7102	21.451711214746	0.045352748948
0	7107	21.497063963694	0.004652625584
0	7111	21.501716589278	0.016570792065
0	7117	21.518287381343	0.003328938809
0	7121	21.521616320152	0.012039748202
0	7127	21.533656068354	0.003981787787
0	7131	21.537637856141	0.028419066065
0	7137	21.566056922206	0.003554941433
0	7141	21.569611863639	0.003705507792
0	7144	21.573317371431	0.017665479718
0	7152	21.590982851149	0.013980809469
0	7157	21.604963660618	0.019398375646
0	7162	21.624362036264	0.003398331639
0	7166	21.627760367903	0.002478022713
0	7169	21.630238390616	0.010259043464
0	7176	21.64049743408	0.010824814399
0	7181	21.651322248479	0.001044599986
0	7184	21.652366848465	0.000678246581
0	7187	21.653045095046	0.011369860828
0	7194	21.664414955874	0.010391211048
0	7199	21.674806166922	0.026035317978
0	7207	21.7008414849	0.009553371049
0	7212	21.710394855949	0.000200042363
0	7216	21.710594898312	0.008013889506
0	7221	21.718608787818	0.009661102993
0	7226	21.728269890811	0.040668567806
0	7232	21.768938458617	0.032708579198
0	7237	21.801647037815	0.001873126583
0	7241	21.803520164398	0.025692983231
0	7247	21.829213147629	0.001460706649
0	7251	21.830673854278	0.035081998652
0	7257	21.86575585293	0.010177431387
0	7262	21.875933284317	0.004128234672
0	7266	21.880061518989	0.026583951698
0	7272	21.906645470687	0.028148111744
0	7277	21.934793582431	0.004804135175
0	7281	21.939597717606	0.001479501584
0	7284	21.94107721919	0.006849928597
0	7289	21.947927147787	0.023650431803
0	7297	21.97157757959	0.012222610293
0	7302	21.983800189883	0.004507561896
0	7306	21.988307751779	0.004812612418
0	7311	21.993120364197	0.003824081353
0	7314	21.99694444555	0.052515503756
0	7322	22.049459949306	0.016420490354
0	7327	22.06588043966	0.009709262008
0	7332	22.075589701668	0.001460545441
0	7336	22.077050247109	0.074304938103
0	7343	22.151355185212	0.018721159904
0	7348	22.170076345116	0.015638938013
0	7353	22.185715283129	0.045328421821
0	7358	22.23104370495	0.032371016189
0	7363	22.263414721139	0.080227818708
0	7368	22.343642539847	0.032069694772
0	7373	22.375712234619	0.009301353071
0	7378	22.38501358769	0.006811077086
0	7382	22.391824664776	0.015626885572
0	7388	22.407451550348	0.010530634084
0	7393	22.417982184432	0.000494576784
0	7397	22.418476761216	0.025551211281
0	7403	22.444027972497	0.003069895571
0	7407	22.447097868068	0.003493984749
0	7410	22.450591852817	0.005465979986
0	7415	22.456057832803	0.007358078249
0	7420	22.463415911052	0.026523708366
0	7428	22.489939619418	0.004585171832
0	7432	22.49452479125	0.004651759908
0	7437	22.499176551158	0.010572365326
0	7442	22.509748916484	0.029531520009
0	7448	22.539280436493	0.001510538527
0	7452	22.54079097502	0.012972521903
0	7457	22.553763496923	0.005367809046
0	7462	22.559131305969	0.007915363245
0	7467	22.567046669214	0.024122539108
0	7473	22.591169208322	0.015305005138
0	7478	22.60647421346	0.008408029086
0	7483	22.614882242546	0.027172250137
0	7488	22.642054492683	0.016979273564
0	7493	22.659033766247	0.00076586489
0	7497	22.659799631137	0.018528564371
0	7503	22.678328195508	0.055414737982
0	7508	22.73374293349	0.030956333222
0	7513	22.764699266712	0.00217258178
0	7517	22.766871848492	0.006473851802
0	7522	22.773345700294	0.011382352344
0	7527	22.784728052638	0.005734375492
0	7532	22.79046242813	0.00582048927
0	7537	22.7962829174	0.002763331106
0	7540	22.799046248506	0.00415252214
0	7545	22.803198770646	0.009549484641
0	7550	22.812748255287	0.032821103354
0	7558	22.845569358641	0.008502415601
0	7563	22.854071774242	0.013713255167
0	7568	22.867785029409	0.004575696345
0	7572	22.872360725754	0.010280479677
0	7578	22.882641205431	0.009121864561
0	7583	22.891763069992	0.014928466434
0	7588	22.906691536426	0.004669996815
0	7592	22.911361533241	0.011729598759
0	7598	22.923091132	0.018243694788
0	7603	22.941334826788	0.001113637632
0	7607	22.94244846442	0.001844277601
0	7610	22.944292742021	0.001920280882
0	7613	22.946213022903	0.048333048799
0	7623	22.994546071702	0.002176813349
0	7627	22.996722885051	0.004295722889
0	7630	23.00101860794	0.027259794177
0	7638	23.028278402117	0.006493549145
0	7642	23.034771951262	0.025434618159
0	7648	23.060206569421	0.012560410341
0	7653	23.072766979762	0.007785703923
0	7658	23.080552683685	0.024582295643
0	7663	23.105134979328	0.010151986258
0	7668	23.115286965586	0.003395355896
0	7672	23.118682321482	0.014568921779
0	7678	23.133251243261	0.010206826289
0	7684	23.14345806955	0.004197350318
0	7688	23.147655419868	0.001145834117
0	7691	23.148801253985	0.04405286715
0	7699	23.192854121135	0.010695363989
0	7704	23.203549485124	0.0795478149
0	7709	23.283097300024	0.009426653319
0	7714	23.292523953343	0.018420890028
0	7719	23.310944843371	0.014903275615
0	7724	23.325848118986	0.001456922276
0	7728	23.327305041262	0.032600879066
0	7734	23.359905920328	0.021177845079
0	7739	23.381083765407	0.017626797371
0	7744	23.398710562778	0.001244314541
0	7748	23.399954877319	0.055820275776
0	7754	23.455775153095	0.017204093755
0	7759	23.47297924685	0.022207514182
0	7764	23.495186761032	0.018536286891
0	7769	23.513723047923	0.00746771268
0	7774	23.521190760603	0.000421964529
0	7778	23.521612725132	0.007621130861
0	7783	23.529233855993	0.008785744354
0	7788	23.538019600347	0.009237965945
0	7793	23.547257566292	0.008593249947
0	7798	23.555850816239	0.003789027868
0	7803	23.559639844107	0.010661663237
0	7808	23.570301507344	0.003030165347
0	7813	23.573331672691	0.003302933822
0	7816	23.576634606513	0.016680486
0	7823	23.593315092513	0.004578941154
0	7828	23.597894033667	0.007649752186
0	7834	23.605543785853	7.9319857e-005
0	7837	23.60562310571	0.00047104048
0	7840	23.60609414619	0.001210101981
0	7843	23.607304248171	0.013014269237
0	7850	23.620318517408	0.016979151156
0	7857	23.637297668564	0.007015514103
0	7862	23.644313182667	0.013884037504
0	7869	23.658197220171	0.004103180358
0	7874	23.662300400529	0.00349148248
0	7877	23.665791883009	0.004621066284
0	7882	23.670412949293	0.015245039487
0	7889	23.68565798878	0.008891439154
0	7894	23.694549427934	0.011216692316
0	7899	23.70576612025	0.003185094504
0	7904	23.708951214754	0.01230490213
0	7910	23.721256116884	0.007966801665
0	7915	23.729222918549	0.000608794303
0	7919	23.729831712852	0.036715952033
0	7925	23.766547664885	0.032235821345
0	7930	23.79878348623	0.000223719334
0	7934	23.799007205564	0.102240958593
0	7942	23.901248164157	0.004472241562
0	7946	23.905720405719	0.00349547667
0	7951	23.909215882389	0.014552324093
0	7957	23.923768206482	0.006217126999
0	7961	23.929985333481	0.066062701359
0	7967	23.99604803484	0.018340439018
0	7972	24.014388473858	0.035165902371
0	7977	24.049554376229	0.007587393945
0	7982	24.057141770174	0.006811626326
0	7986	24.0639533965	9.624501e-005
0	7989	24.06404964151	0.006299233705
0	7994	24.070348875215	0.001189781535
0	7997	24.07153865675	0.031196929305
0	8007	24.102735586055	0.038881195909
0	8012	24.141616781964	0.011558152073
0	8017	24.153174934037	0.068096388376
0	8022	24.221271322413	0.012618437307
0	8027	24.23388975972	0.02218839262
0	8032	24.25607815234	0.003952327546
0	8036	24.260030479886	0.008170626309
0	8041	24.268201106195	0.002712517685
0	8046	24.27091362388	0.012492797939
0	8051	24.283406421819	0.021730426752
0	8057	24.305136848571	0.012365406852
0	8062	24.317502255423	0.022781731782
0	8067	24.340283987205	0.018530527823
0	8072	24.358814515028	0.030385698509
0	8077	24.389200213537	0.00736939559
0	8081	24.396569609127	0.007403401949
0	8086	24.403973011076	0.048074668667
0	8092	24.452047679743	0.009343833259
0	8097	24.461391513002	0.011613433988
0	8102	24.47300494699	0.044578775073
0	8107	24.517583722063	0.025645230308
0	8112	24.543228952371	0.003080340879
0	8116	24.54630929325	0.000444787615
0	8119	24.546754080865	0.002938089617
0	8122	24.549692170482	0.012716382551
0	8129	24.562408553033	0.001637866313
0	8132	24.564046419346	0.029439502757
0	8142	24.593485922103	0.000956897717
0	8146	24.59444281982	0.046211431954
0	8152	24.640654251774	0.007840668771
0	8157	24.648494920545	0.035005195458
0	8163	24.683500116003	0.006846805724
0	8167	24.690346921727	0.031416163851
0	8174	24.721763085578	0.017810669575
0	8179	24.739573755153	0.006638999872
0	8183	24.746212755025	0.011248159039
0	8189	24.757460914064	0.018212283084
0	8194	24.775673197148	0.03860281779
0	8199	24.814276014938	0.0050369561
0	8203	24.819312971038	0.00388713039
0	8208	24.823200101428	0.042598437986
0	8214	24.865798539414	0.00604469742
0	8218	24.871843236834	0.012156674649
0	8224	24.883999911483	0.008585191768
0	8229	24.892585103251	0.030678579848
0	8234	24.923263683099	0.00908739079
0	8239	24.932351073889	0.022215355135
0	8244	24.954566429024	0.032909430803
0	8250	24.987475859827	0.044155355978
0	8255	25.031631215805	0.018212252365
0	8260	25.04984346817	0.001538186875
0	8264	25.051381655045	0.003408528516
0	8267	25.054790183561	0.000190117837
0	8270	25.054980301398	0.000261446901
0	8273	25.055241748299	0.010138420431
0	8280	25.06538016873	0.007555869006
0	8285	25.072936037736	0.005239589278
0	8288	25.078175627014	0.005090868766
0	8293	25.08326649578	0.001022261745
0	8296	25.084288757525	0.004509714797
0	8301	25.088798472322	0.030777623366
0	8312	25.119576095688	0.000165687321
0	8315	25.119741783009	0.039808339714
0	8325	25.159550122723	0.002481945643
0	8329	25.162032068366	0.026448867671
0	8335	25.188480936037	0.019013742808
0	8340	25.207494678845	0.012157268723
0	8346	25.219651947568	0.031588878214
0	8351	25.251240825782	0.010298738884
0	8356	25.261539564666	0.005776583743
0	8360	25.267316148409	0.035048589417
0	8366	25.302364737826	0.006076695342
0	8370	25.308441433168	0.006953405153
0	8375	25.315394838321	0.064525039854
0	8381	25.379919878175	0.020873005324
0	8386	25.400792883499	0.033780679287
0	8391	25.434573562786	0.019308383787
0	8396	25.453881946573	0.002805225992
0	8400	25.456687172565	0.015339712935
0	8406	25.4720268855	0.003642397939
0	8410	25.475669283439	0.004696863734
0	8415	25.480366147173	0.01254763835
0	8420	25.492913785523	0.010984740389
0	8426	25.503898525912	3.9339551e-005
0	8430	25.503937865463	0.013148555447
0	8435	25.51708642091	0.00617978174
0	8440	25.52326620265	0.031861382209
0	8446	25.555127584859	0.009141925165
0	8451	25.564269510024	0.005361295039
0	8455	25.569630805063	0.025446111263
0	8461	25.595076916326	0.018660665805
0	8466	25.613737582131	0.000223998756
0	8470	25.613961580887	0.001741282166
0	8473	25.615702863053	0.023548834695
0	8481	25.639251697748	0.009066509244
0	8486	25.648318206992	0.008580805468
0	8491	25.65689901246	0.020012283907
0	8496	25.676911296367	0.015474290909
0	8501	25.692385587276	0.015106567426
0	8506	25.707492154702	0.011493908842
0	8511	25.718986063544	0.006449407663
0	8515	25.725435471207	0.006864101375
0	8520	25.732299572582	0.006911667374
0	8525	25.739211239956	9.4368543e-005
0	8528	25.739305608499	0.002790966515
0	8533	25.742096575014	0.015605672216
0	8540	25.75770224723	0.050089096037
0	8546	25.807791343267	0.038033612043
0	8551	25.84582495531	0.034880960204
0	8556	25.880705915514	0.038394313553
0	8561	25.919100229067	0.021053097445
0	8566	25.940153326512	0.00929048774
0	8571	25.949443814252	0.019677441497
0	8576	25.969121255749	0.01962762813
0	8581	25.988748883879	0.025753127264
0	8586	26.014502011143	0.016088292973
0	8591	26.030590304116	0.00186537171
0	8595	26.032455675826	0.010775350645
0	8600	26.043231026471	0.00117533012
0	8603	26.044406356591	0.001106606934
0	8608	26.045512963525	0.000743458049
0	8611	26.046256421574	0.035041979259
0	8621	26.081298400833	0.02533407285
0	8626	26.106632473683	0.018139749128
0	8631	26.124772222811	0.000718828984
0	8635	26.125491051795	0.022101382325
0	8641	26.14759243412	0.033386642238
0	8646	26.180979076358	0.002657720795
0	8650	26.183636797153	0.021778734529
0	8656	26.205415531682	0.004337443242
0	8660	26.209752974924	8.467025e-006
0	8663	26.209761441949	0.006351347268
0	8668	26.216112789217	0.027187576595
0	8676	26.243300365812	0.005586254676
0	8680	26.248886620488	0.054410187258
0	8686	26.303296807746	7.061215e-005
0	8690	26.303367419896	0.015579386054
0	8696	26.31894680595	0.013780582843
0	8701	26.332727388793	0.005082505617
0	8705	26.33780989441	0.025669539383
0	8711	26.363479433793	0.016793196372
0	8716	26.380272630165	0.001459984438
0	8720	26.381732614603	0.008600300691
0	8725	26.390332915294	0.046895351683
0	8731	26.437228266977	0.023854809968
0	8736	26.461083076945	0.007570257741
0	8741	26.468653334686	0.014458259084
0	8746	26.48311159377	0.012697817365
0	8751	26.495809411135	0.012263448691
0	8756	26.508072859826	0.01323228885
0	8761	26.521305148676	0.008336756527
0	8766	26.529641905203	0.023536648346
0	8771	26.553178553549	0.029393892327
0	8776	26.582572445876	0.032631333996
0	8781	26.615203779872	0.006967573825
0	8785	26.622171353697	0.001128848019
0	8790	26.623300201716	0.027295380692
0	8796	26.650595582408	0.026574129442
0	8801	26.67716971185	0.00129509595
0	8805	26.6784648078	0.00774248884
0	8810	26.68620729664	0.022764482165
0	8816	26.708971778805	0.048801994431
0	8821	26.757773773236	0.004447789858
0	8825	26.762221563094	0.007960083779
0	8830	26.770181646873	0.020842518927
0	8836	26.7910241658	0.01919530429
0	8841	26.81021947009	0.012249153106
0	8846	26.822468623196	0.003537657036
0	8850	26.826006280232	0.004091347801
0	8855	26.830097628033	0.008766412915
0	8860	26.838864040948	0.002818396396
0	8863	26.841682437344	0.013472936503
0	8870	26.855155373847	0.003370214953
0	8873	26.8585255888	0.003629456476
0	8878	26.862155045276	0.035649735607
0	8886	26.897804780883	0.018461326883
0	8891	26.916266107766	0.001599038151
0	8895	26.917865145917	0.019672240411
0	8901	26.937537386328	0.038557881214
0	8906	26.976095267542	0.004916885901
0	8910	26.981012153443	0.031672483317
0	8916	27.01268463676	0.019482524974
0	8921	27.032167161734	0.016026149301
0	8926	27.048193311035	0.012149222985
0	8931	27.06034253402	0.033481839481
0	8936	27.093824373501	0.017277766736
0	8941	27.111102140237	0.019464631414
0	8946	27.130566771651	0.011811356772
0	8951	27.142378128423	0.061719042873
0	8956	27.204097171296	0.000229456518
0	8960	27.204326627814	0.017412933834
0	8966	27.221739561648	0.033433533142
0	8971	27.25517309479	0.01675956094
0	8976	27.27193265573	0.027049785868
0	8981	27.298982441598	0.003907078811
0	8985	27.302889520409	0.004496157288
0	8990	27.307385677697	0.039471964871
0	8996	27.346857642568	0.003723777008
0	9000	27.350581419576	0.006648186948
0	9005	27.357229606524	0.001986011106
0	9008	27.35921561763	0.003412286881
0	9013	27.362627904511	0.023328623794
0	9021	27.385956528305	0.056956604755
0	9026	27.44291313306	0.029067774887
0	9031	27.471980907947	0.03125210143
0	9036	27.503233009377	0.027100187206
0	9041	27.530333196583	0.005526306981
0	9045	27.535859503564	0.014176041213
0	9051	27.550035544777	0.032898244237
0	9056	27.582933789014	0.006839979651
0	9060	27.589773768665	0.014331318998
0	9066	27.604105087663	0.058972705775
0	9071	27.663077793438	0.027822653285
0	9076	27.690900446723	0.017033800576
0	9081	27.707934247299	0.015695098434
0	9086	27.723629345733	0.009054865615
0	9091	27.732684211348	0.036284425329
0	9096	27.768968636677	0.015521947582
0	9101	27.784490584259	0.014642300535
0	9106	27.799132884794	0.02635180602
0	9111	27.825484690814	0.002707760651
0	9115	27.828192451465	0.01612884155
0	9121	27.844321293015	0.011474758214
0	9126	27.855796051229	0.029598094832
0	9131	27.885394146061	0.013161111752
0	9136	27.898555257813	0.00226937871
0	9140	27.900824636523	0.013722506115
0	9146	27.914547142638	0.004099222849
0	9150	27.918646365487	0.022489527562
0	9156	27.941135893049	8.4729903e-005
0	9160	27.941220622952	0.004754946869
0	9163	27.945975569821	0.061232232234
0	9171	28.007207802055	0.016031338827
0	9176	28.023239140882	0.013607250924
0	9181	28.036846391806	0.019384266677
0	9186	28.056230658483	0.004473766582
0	9190	28.060704425065	0.003746837837
0	9195	28.064451262902	0.002377296226
0	9198	28.066828559128	0.000660343669
0	9201	28.067488902797	0.024721379605
0	9210	28.092210282402	0.015959194027
0	9216	28.108169476429	0.012792567932
0	9221	28.120962044361	0.009468542902
0	9226	28.130430587263	7.0547881e-005
0	9230	28.130501135144	0.015219246815
0	9236	28.145720381959	0.002426955522
0	9240	28.148147337481	0.046943761643
0	9246	28.195091099124	0.030748886223
0	9251	28.225839985347	0.000696701711
0	9255	28.226536687058	0.012563665452
0	9260	28.23910035251	0.004999560729
0	9265	28.244099913239	0.007457425467
0	9270	28.251557338706	0.006649235934
0	9275	28.25820657464	0.053361023055
0	9281	28.311567597695	0.014424319037
0	9286	28.325991916732	0.01842917777
0	9292	28.344421094502	0.005545526988
0	9296	28.34996662149	0.015629062365
0	9302	28.365595683855	0.005071680453
0	9306	28.370667364308	0.014331720429
0	9312	28.384999084737	0.023129330982
0	9317	28.408128415719	9.3847271e-005
0	9321	28.40822226299	0.002799737434
0	9324	28.411022000424	0.020051597968
0	9332	28.431073598392	0.022112089486
0	9337	28.453185687878	0.024527422996
0	9342	28.477713110874	0.023384905502
0	9347	28.501098016376	0.024224542999
0	9352	28.525322559375	0.008665723779
0	9357	28.533988283154	0.007220319902
0	9361	28.541208603056	0.013526419199
0	9367	28.554735022255	0.027511068647
0	9372	28.582246090902	0.013670200629
0	9377	28.595916291531	0.03296538666
0	9382	28.628881678191	0.011333169796
0	9387	28.640214847987	0.008496651859
0	9392	28.648711499846	0.001246435108
0	9396	28.649957934954	0.006191536712
0	9401	28.656149471666	0.019683886221
0	9407	28.675833357887	0.00746726355
0	9412	28.683300621437	0.014703033561
0	9417	28.698003654998	0.019634004638
0	9422	28.717637659636	9.2421298e-005
0	9426	28.717730080934	0.003464015958
0	9429	28.721194096892	0.028864759719
0	9437	28.750058856611	0.008472767156
0	9442	28.758531623767	0.030849197204
0	9447	28.789380820971	0.061749419926
0	9452	28.851130240897	0.01998776365
0	9457	28.871118004547	0.00159925908
0	9461	28.872717263627	0.039768274203
0	9467	28.91248553783	0.010567116701
0	9472	28.923052654531	0.025518789074
0	9477	28.948571443605	0.00068963834
0	9481	28.949261081945	0.007885340665
0	9486	28.95714642261	0.01062405855
0	9491	28.96777048116	0.022796671977
0	9497	28.990567153137	0.000972751411
0	9501	28.991539904548	0.040706178156
0	9507	29.032246082704	0.00063681003
0	9511	29.032882892734	0.017915042491
0	9517	29.050797935225	0.010572678834
0	9522	29.061370614059	0.032727291309
0	9527	29.094097905368	0.033860314373
0	9532	29.127958219741	0.010270288033
0	9537	29.138228507774	0.020224338457
0	9542	29.158452846231	0.004430928579
0	9546	29.16288377481	0.0273206392
0	9552	29.19020441401	0.002534503485
0	9556	29.192738917495	0.000443260383
0	9559	29.193182177878	0.000733952806
0	9562	29.193916130684	0.007704800458
0	9567	29.201620931142	0.039737445544
0	9577	29.241358376686	0.025060406356
0	9582	29.266418783042	0.033970759756
0	9587	29.300389542798	0.003693931205
0	9591	29.304083474003	0.026553141487
0	9597	29.33063661549	0.003412044245
0	9601	29.334048659735	0.007767575248
0	9606	29.341816234983	0.018635713603
0	9612	29.360451948586	0.029114814634
0	9617	29.38956676322	0.026312528515
0	9622	29.415879291735	0.013484957487
0	9627	29.429364249222	0.002492990996
0	9631	29.431857240218	0.003404532801
0	9634	29.435261773019	0.033577904879
0	9642	29.468839677898	0.000694550657
0	9646	29.469534228555	0.011390999532
0	9651	29.480925228087	0.000295268975
0	9654	29.481220497062	0.025044266258
0	9662	29.50626476332	0.011353130396
0	9667	29.517617893716	0.011772756172
0	9672	29.529390649888	0.014260099608
0	9677	29.543650749496	0.022450826878
0	9682	29.566101576374	0.010517740254
0	9687	29.576619316628	0.003055407075
0	9691	29.579674723703	0.009307889606
0	9696	29.588982613309	0.002550794238
0	9701	29.591533407547	2.8078045e-005
0	9704	29.591561485592	0.03368093403
0	9712	29.625242419622	0.003957163316
0	9716	29.629199582938	0.001795957587
0	9719	29.630995540525	0.027124514791
0	9727	29.658120055316	0.007201325203
0	9731	29.665321380519	0.032812607843
0	9737	29.698133988362	0.010209265447
0	9742	29.708343253809	0.000174038599
0	9746	29.708517292408	0.008725269031
0	9751	29.717242561439	0.010081233811
0	9756	29.72732379525	0.058078935952
0	9762	29.785402731202	0.024241942186
0	9767	29.809644673388	0.011361188742
0	9772	29.82100586213	1.6347301e-005
0	9776	29.821022209431	0.04152217199
0	9782	29.862544381421	0.00895871776
0	9787	29.871503099181	0.002867013668
0	9791	29.874370112849	0.003257824244
0	9794	29.877627937093	0.01360867964
0	9801	29.891236616733	0.012385044933
0	9807	29.903621661666	0.027529096787
0	9812	29.931150758453	0.055139800203
0	9817	29.986290558656	0.002021263688
0	9821	29.988311822344	0.003298840313
0	9824	29.991610662657	0.007118010933
0	9829	29.99872867359	0.001552440794
0	9832	30.000281114384	0.019380751583
0	9841	30.019661865967	0.011178261581
0	9846	30.030840127548	0.001546827642
0	9851	30.03238695519	0.007424379553
0	9856	30.039811334743	0.007695065575
0	9861	30.047506400318	0.032507110431
0	9867	30.080013510749	0.007002429924
0	9871	30.087015940673	0.003473616775
0	9876	30.090489557448	0.024982209712
0	9882	30.11547176716	0.010792284869
0	9887	30.126264052029	0.009583493519
0	9892	30.135847545548	0.023822744954
0	9897	30.159670290502	0.040605568823
0	9902	30.200275859325	0.009900625387
0	9907	30.210176484712	0.011857306473
0	9912	30.222033791185	0.000590758929
0	9916	30.222624550114	0.002634345224
0	9919	30.225258895338	0.000147549133
0	9922	30.225406444471	0.00790856327
0	9927	30.233315007741	0.040620039108
0	9937	30.273935046849	0.022639451973
0	9942	30.296574498822	0.005892559372
0	9946	30.302467058194	0.002796714331
0	9951	30.305263772525	0.015364149675
0	9957	30.3206279222	0.009481928187
0	9962	30.330109850387	0.035521691481
0	9967	30.365631541868	0.000618739991
0	9971	30.366250281859	0.018407979786
0	9977	30.384658261645	0.037094082169
0	9982	30.421752343814	0.012075763687
0	9987	30.433828107501	0.000722121462
0	9991	30.434550228963	0.001918072119
0	9994	30.436468301082	0.017977937329
0	10001	30.454446238411	0.050802513338
0	10007	30.505248751749	0.011005871669
0	10012	30.516254623418	0.025537545993
0	10017	30.541792169411	0.030184943084
0	10022	30.571977112495	0.006238317949
0	10026	30.578215430444	0.002326800051
0	10031	30.580542230495	0.002577475192
0	10034	30.583119705687	0.007402898847
0	10039	30.590522604534	0.004239117252
0	10044	30.594761721786	0.013042734642
0	10049	30.607804456428	0.030122455681
0	10057	30.637926912109	0.015080793299
0	10062	30.653007705408	0.005416893803
0	10066	30.658424599211	0.004175018906
0	10071	30.662599618117	0.015752073817
0	10077	30.678351691934	0.048183598418
0	10082	30.726535290352	0.04677692857
0	10087	30.773312218922	0.007118363678
0	10091	30.7804305826	0.02274492372
0	10097	30.80317550632	0.023719615578
0	10102	30.826895121898	0.00779952158
0	10107	30.834694643478	0.01659947388
0	10112	30.851294117358	0.012231718755
0	10117	30.863525836113	0.009108809737
0	10122	30.87263464585	0.009709559794
0	10127	30.882344205644	0.007804830488
0	10132	30.890149036132	0.01202837186
0	10137	30.902177407992	0.011716684972
0	10142	30.913894092964	0.006855310496
0	10146	30.92074940346	0.008422462431
0	10152	30.929171865891	0.003779331961
0	10156	30.932951197852	0.000400281423
0	10159	30.933351479275	0.010288578116
0	10164	30.943640057391	0.010770622589
0	10171	30.95441067998	0.01423592006
0	10177	30.96864660004	0.040581913203
0	10182	31.009228513243	0.038834539237
0	10187	31.04806305248	0.009800286775
0	10192	31.057863339255	0.008683769302
0	10197	31.066547108557	0.001660623165
0	10201	31.068207731722	0.003659844939
0	10204	31.071867576661	0.003170498959
0	10209	31.07503807562	0.02456437331
0	10217	31.09960244893	0.003965586089
0	10221	31.103568035019	0.037361844373
0	10227	31.140929879392	0.011102322518
0	10232	31.15203220191	0.022526391616
0	10237	31.174558593526	0.028334304409
0	10242	31.202892897935	0.005952134083
0	10246	31.208845032018	0.001831150598
0	10251	31.210676182616	0.004054491447
0	10254	31.214730674063	0.025762080548
0	10262	31.240492754611	0.00054732794
0	10266	31.241040082551	0.015135859824
0	10272	31.256175942375	0.006203477177
0	10276	31.262379419552	0.017585688079
0	10282	31.279965107631	0.049079983229
0	10287	31.32904509086	0.001098269926
0	10291	31.330143360786	0.003379653742
0	10294	31.333523014528	0.016587183522
0	10301	31.35011019805	0.002305108787
0	10306	31.352415306837	0.007413710247
0	10311	31.359829017084	0.000647902673
0	10314	31.360476919757	0.016306277467
[...]
23	17396	51.986175490643	0.014635763144
23	17398	51.993729990967	0.018652684902
23	17403	52.032656571927	0.007554500324
23	17408	52.049451340197	0.007554500324
23	17413	52.085978851206	0.007554500324
23	17418	52.09353335153	0.014597804675
23	17423	52.134291963675	0.007555315704
23	17428	52.159312398231	0.007555315704
23	17433	52.243817131083	0.007555315704
23	17438	52.267697273826	0.007556131261
23	17443	52.29908529563	0.007556131261
23	17448	52.310190062102	0.007556131261
23	17453	52.321796460375	0.007556131261
23	17458	52.329352591636	0.010752637879
23	17463	52.336908722897	0.014333270598
23	17468	52.344464854158	0.010167728665
23	17473	52.354037064438	0.007556131261
23	17478	52.382069452375	0.007556131261
23	17483	52.403238140003	0.007556946993
23	17488	52.418127691854	0.007556946993
23	17493	52.425684638847	0.007775290246
23	17498	52.436050197711	0.007556946993
23	17503	52.450182611678	0.007556946993
23	17508	52.459543777874	0.007556946993
23	17513	52.494486918552	0.007556946993
23	17518	52.502043865545	0.013743088576
23	17529	52.509600812538	0.013201753899
23	17531	52.517157759531	0.020732614058
23	17533	52.524714706524	0.022913707465
23	17538	52.546408509587	0.007557762902
23	17543	52.553966272489	0.008160463984
23	17548	52.578885898229	0.007557762902
23	17553	52.613674485884	0.007557762902
23	17558	52.621232248786	0.012639097888
23	17563	52.647365336732	0.007557762902
23	17568	52.654923099634	0.014518505249
23	17573	52.662480862536	0.010554534672
23	17578	52.694905649806	0.007558578987
23	17583	52.705102833267	0.007558578987
23	17588	52.712661412254	0.014847929439
23	17593	52.734859567559	0.007558578987
23	17598	52.796717388457	0.007558578987
23	17603	52.804275967444	0.011576815289
23	17608	52.811834546431	0.009459530341
23	17616	52.819393125418	0.009330610522
23	17618	52.826951704405	0.016097511317
23	17623	52.834510283392	0.009317799137
23	17628	52.861325976275	0.007559395248
23	17633	52.868885371523	0.009490167695
23	17641	52.876444766771	0.010325382333
23	17643	52.884004162019	0.016674862841
23	17648	52.895370793096	0.007559395248
23	17653	52.906033621776	0.007559395248
23	17658	52.920191418975	0.007559395248
23	17663	52.93028824934	0.007559395248
23	17668	52.937847644588	0.012397214635
23	17673	52.960695568235	0.007559395248
23	17678	52.981290149056	0.007560211686
23	17683	52.992303832791	0.007560211686
23	17688	52.999864044477	0.011492682381
23	17696	53.007424256163	0.010254668994
23	17701	53.014984467849	0.016694402501
23	17706	53.022544679535	0.016452224724
23	17708	53.030104891221	0.022555712502
23	17713	53.037665102907	0.008329773404
23	17718	53.080405143626	0.007560211686
23	17723	53.128041034494	0.0075610283
23	17728	53.250274387055	0.0075610283
23	17733	53.259353554969	0.0075610283
23	17738	53.266914583269	0.008632428225
23	17743	53.291338832794	0.00756184509
23	17748	53.306065892542	0.00756184509
23	17753	53.348687199657	0.00756184509
23	17758	53.410583984528	0.007562662057
23	17763	53.483979460504	0.007562662057
23	17768	53.507182232462	0.007562662057
23	17773	53.514744894519	0.010420658964
23	17778	53.522307556576	0.010935194738
23	17783	53.541134824018	0.007562662057
23	17788	53.548697486075	0.007677026798
23	17799	53.556260148132	0.01102866789
23	17804	53.563823627332	0.017235370329
23	17809	53.571387106532	0.022883714405
23	17814	53.578950585732	0.024096132653
23	17819	53.586514064932	0.025915299306
23	17821	53.594077544132	0.023387696177
23	17826	53.601641023332	0.02731801135
23	17828	53.609204502532	0.015621439617
23	17833	53.616767981732	0.009676582875
23	17838	53.625066161063	0.0075634792
23	17843	53.632629640263	0.008545257452
23	17848	53.640193119463	0.009557208265
23	17853	53.651074461186	0.0075634792
23	17859	53.685640548688	0.0075634792
23	17864	53.719111700765	0.00756429652
23	17869	53.726675997285	0.010939899866
23	17874	53.734240293805	0.008242146565
23	17879	53.742175651413	0.00756429652
23	17884	53.763783298506	0.00756429652
23	17889	53.784396062274	0.00756429652
23	17894	53.805173390049	0.00756429652
23	17899	53.812737686569	0.010551689581
23	17904	53.827429760188	0.00756429652
23	17909	53.834994056708	0.008099644817
23	17914	53.856943012395	0.007565114017
23	17919	53.864508126412	0.014507564596
23	17924	53.879217088538	0.007565114017
23	17929	53.886782202555	0.008697815574
23	17934	53.974865059874	0.007565114017
23	17939	53.98246017347	0.007565114017
23	17944	54.006989484426	0.00756593169
23	17950	54.039245621497	0.00756593169
23	17955	54.053739531836	0.00756593169
23	17960	54.076743316904	0.00756593169
23	17965	54.084309248594	0.01222307674
23	17970	54.093112252577	0.00756593169
23	17975	54.100678184267	0.012387885566
23	17980	54.109199605544	0.00756593169
23	17985	54.133186692914	0.00756593169
23	17990	54.142639455365	0.007566749541
23	17995	54.158516287653	0.007566749541
23	18000	54.166083037194	0.014164805939
23	18005	54.212067090064	0.007566749541
23	18010	54.219633839605	0.014864331944
23	18015	54.252708982265	0.007566749541
23	18023	54.260275731806	0.010463444912
23	18025	54.267842481347	0.016567013846
23	18030	54.275409230888	0.011318294302
23	18035	54.282975980429	0.014855662679
23	18040	54.29764250841	0.007567567568
23	18045	54.365923039058	0.007567567568
23	18050	54.378927049163	0.007567567568
23	18055	54.389082647593	0.007567567568
23	18060	54.420738747744	0.007567567568
23	18065	54.446403500371	0.007568385771
23	18070	54.457314679394	0.007568385771
23	18075	54.464883065165	0.008755248312
23	18080	54.472451450936	0.014447393718
23	18085	54.488885186991	0.007568385771
23	18090	54.501792045935	0.007568385771
23	18095	54.519760893485	0.007568385771
23	18100	54.531387927257	0.007568385771
23	18105	54.544487899222	0.007568385771
23	18110	54.55733731476	0.007568385771
23	18115	54.579563031055	0.007569204152
23	18120	54.600291342897	0.007569204152
23	18125	54.615735506007	0.007569204152
23	18130	54.636098666404	0.007569204152
23	18135	54.658443458541	0.007569204152
23	18140	54.678877005797	0.007569204152
23	18145	54.705009573087	0.007569204152
23	18150	54.71854416842	0.00757002271
23	18155	54.72611419113	0.009069074402
23	18160	54.746867160367	0.00757002271
23	18165	54.768505570349	0.00757002271
23	18170	54.779102232249	0.00757002271
23	18175	54.786672254959	0.014830240001
23	18180	54.799043060548	0.00757002271
23	18185	54.810924941239	0.00757002271
23	18190	54.835600028743	0.00757002271
23	18195	54.843170051453	0.009350900851
23	18200	54.86358400706	0.007570841445
23	18205	54.871154848505	0.014786935421
23	18210	54.889791780165	0.007570841445
23	18215	54.898051700399	0.007570841445
23	18220	54.905622541844	0.012990875298
23	18225	54.947124927198	0.007570841445
23	18230	54.979006802656	0.007570841445
23	18235	54.987296208803	0.007570841445
23	18240	55.00456501163	0.007571660357
23	18245	55.01417748089	0.007571660357
23	18250	55.03657983394	0.007571660357
23	18258	55.044151494297	0.013335699876
23	18266	55.051723154654	0.019033614453
23	18274	55.059294815011	0.018636125903
23	18276	55.066866475368	0.0242694849
23	18278	55.074438135725	0.030117782153
23	18283	55.082009796082	0.031174980434
23	18288	55.089581456439	0.01821231499
23	18293	55.097153116796	0.017331636279
23	18295	55.104724777153	0.017466106168
23	18300	55.112578394102	0.007571660357
23	18305	55.120505747382	0.007571660357
23	18310	55.137449352654	0.007571660357
23	18315	55.155641535563	0.007572479446
23	18320	55.163214015009	0.014985752402
23	18325	55.170786494455	0.011561031339
23	18330	55.178358973901	0.013203201007
23	18335	55.185931453347	0.009388407319
23	18340	55.210625646504	0.007572479446
23	18348	55.21819812595	0.012354063966
23	18353	55.225770605396	0.019017621497
23	18358	55.233343084842	0.02126045498
23	18360	55.240915564288	0.01859007638
23	18368	55.248488043734	0.010537878154
23	18370	55.25606052318	0.015640379544
23	18375	55.274534828311	0.007572479446
23	18386	55.282107307757	0.013751961268
23	18397	55.289679787203	0.020628336047
23	18405	55.297252266649	0.023264734499
23	18407	55.304825565362	0.026969718934
23	18412	55.312398864075	0.032135905734
23	18414	55.319972162788	0.039194832468
23	18416	55.327545461501	0.042669442694
23	18418	55.335118760214	0.04758011129
23	18420	55.342692058927	0.043510417058
23	18425	55.367895683892	0.007573298713
23	18430	55.375468982605	0.011963237979
23	18435	55.383042281318	0.014963363385
23	18440	55.402969343982	0.007573298713
23	18445	55.410542642695	0.009895013739
23	18450	55.418115941408	0.011263072413
23	18455	55.425689240121	0.013848337749
23	18460	55.433262538834	0.014966205198
23	18465	55.440835837547	0.00959747602
23	18470	55.450232543594	0.007574118156
23	18478	55.45780666175	0.01340220269
23	18483	55.465380779906	0.019222232667
23	18491	55.472954898062	0.019017501585
23	18493	55.480529016218	0.022473271456
23	18495	55.488103134374	0.027125640224
23	18500	55.500424078927	0.007574118156
23	18505	55.528826108882	0.007574118156
23	18510	55.590083451017	0.007574937777
23	18515	55.605794326714	0.007574937777
23	18520	55.637830892336	0.007574937777
23	18525	55.645405830113	0.00936646625
23	18530	55.698311876665	0.007574937777
23	18535	55.705886814442	0.01384195338
23	18540	55.718824802083	0.007574937777
23	18545	55.753762956173	0.007575757576
23	18550	55.780814171771	0.007575757576
23	18555	55.79777473019	0.007575757576
23	18560	55.805350487766	0.013351417402
23	18565	55.818088282718	0.007575757576
23	18570	55.825664040294	0.008213779043
23	18575	55.881679743565	0.007576577552
23	18583	55.889256321117	0.010864046263
23	18591	55.896832898669	0.016166272711
23	18593	55.904409476221	0.018383090386
23	18595	55.911986053773	0.025739036392
23	18600	55.919562631325	0.009886648272
23	18608	55.927139208877	0.013382808909
23	18613	55.934715786429	0.016375322823
23	18618	55.942292363981	0.01861750149
23	18620	55.949868941533	0.020998136022
23	18625	55.957445519085	0.014876616396
23	18630	55.965022096637	0.011126140963
23	18635	55.984117062451	0.007576577552
23	18640	55.99978771861	0.007576577552
23	18645	56.007364296162	0.009559737022
23	18650	56.0274032622	0.007577397705
23	18658	56.034980659905	0.014769003019
23	18660	56.04255805761	0.018387680809
23	18665	56.064499756989	0.007577397705
23	18670	56.076279364583	0.007577397705
23	18675	56.086573865711	0.007577397705
23	18683	56.094151263416	0.011734314406
23	18688	56.101728661121	0.017054945805
23	18693	56.109306058826	0.015925902063
23	18695	56.116883456531	0.01536617355
23	18700	56.124460854236	0.013162799268
23	18705	56.201544941693	0.007578218036
23	18710	56.209123159729	0.009513224397
23	18715	56.264029959092	0.007578218036
23	18720	56.273944774678	0.007578218036
23	18725	56.28852131386	0.007578218036
23	18730	56.301852005152	0.007578218036
23	18735	56.329391380524	0.007579038545
23	18740	56.355107060592	0.007579038545
23	18745	56.432528676999	0.007579038545
23	18750	56.440107715544	0.014182736965
23	18755	56.447686754089	0.009972906754
23	18760	56.455265792634	0.00834844828
23	18768	56.462845651865	0.012594116932
23	18770	56.470425511096	0.016304965164
23	18776	56.527061250568	0.007579859231
23	18781	56.568051077931	0.007579859231
23	18786	56.575630937162	0.015091323896
23	18797	56.583210796393	0.014089798405
23	18799	56.590790655624	0.01681680771
23	18807	56.598370514855	0.023654725102
23	18812	56.60595119495	0.020710061568
23	18820	56.613531875045	0.023302610389
23	18822	56.62111255514	0.027077291137
23	18824	56.628693235235	0.030321374287
23	18826	56.63627391533	0.035937655913
23	18831	56.666066128239	0.007580680095
23	18836	56.673646808334	0.012216650007
23	18841	56.681227488429	0.009144791956
23	18846	56.699480955571	0.007580680095
23	18852	56.745164988128	0.007581501137
23	18857	56.796443891042	0.007581501137
23	18862	56.804126272906	0.007581501137
23	18867	56.815273244483	0.007581501137
23	18872	56.829158593226	0.007581501137
23	18877	56.839902308909	0.007581501137
23	18882	56.847820646961	0.007581501137
23	18887	56.895668830192	0.007582322357
23	18892	56.925033993076	0.007582322357
23	18897	56.932616315433	0.014873644603
23	18902	56.941013390401	0.007582322357
23	18907	56.948595712758	0.015101624092
23	18918	56.956178035115	0.012554524542
23	18923	56.963760357472	0.017906792904
23	18925	56.971342679829	0.023978011014
23	18927	56.978925002186	0.027773479974
23	18932	57.014205810165	0.007582322357
23	18937	57.047906591441	0.007583143755
23	18942	57.058959319668	0.007583143755
23	18947	57.080322552001	0.007583143755
23	18952	57.090808136702	0.007583143755
23	18957	57.099491414336	0.007583143755
23	18962	57.107074558091	0.013179523193
23	18967	57.135146397135	0.007583143755
23	18972	57.144236922984	0.007583143755
23	18977	57.161087508578	0.007583143755
23	18982	57.168670652333	0.009379484354
23	18987	57.188145661895	0.00758396533
23	18992	57.195729627225	0.011364375673
23	18997	57.203313592555	0.009053225702
23	19002	57.231186596003	0.00758396533
23	19007	57.254006494178	0.00758396533
23	19015	57.261590459508	0.013975274304
23	19020	57.269174424838	0.020705487226
23	19022	57.276758390168	0.022647778174
23	19027	57.286150941017	0.00758396533
23	19032	57.293734906347	0.012338573366
23	19037	57.301716720821	0.00758396533
23	19042	57.335103583475	0.007584787084
23	19047	57.35724436592	0.007584787084
23	19052	57.364829153004	0.013475179334
23	19063	57.372413940088	0.013126315369
23	19065	57.379998727172	0.018107979795
23	19073	57.387583514256	0.023541680406
23	19075	57.39516830134	0.017963288302
23	19077	57.402753088424	0.023565833111
23	19082	57.415408382015	0.007584787084
23	19087	57.430126044838	0.007584787084
23	19092	57.457023465558	0.007584787084
23	19097	57.465301149466	0.007584787084
23	19102	57.47288593655	0.013403300888
23	19107	57.480471545566	0.010091094755
23	19112	57.488769728842	0.007585609016
23	19117	57.505307176096	0.007585609016
23	19122	57.512892785112	0.013000625626
23	19127	57.522769357558	0.007585609016
23	19132	57.536630239947	0.007585609016
23	19137	57.567874289398	0.007585609016
23	19142	57.599052208422	0.007585609016
23	19147	57.613960232736	0.007586431126
23	19152	57.621546663862	0.012857214317
23	19157	57.651694042744	0.007586431126
23	19162	57.65928047387	0.008457994234
23	19167	57.696403028634	0.007586431126
23	19175	57.70398945976	0.011971274753
23	19177	57.711575890886	0.017697868619
23	19182	57.731679390289	0.007586431126
23	19187	57.755799327585	0.007586431126
23	19192	57.763385758711	0.01332191919
23	19197	57.770973012125	0.013620534211
23	19202	57.787365704964	0.007587253414
23	19210	57.794952958378	0.011041085331
23	19212	57.802540211792	0.015379143928
23	19217	57.810127465206	0.012860028845
23	19222	57.81771471862	0.014483464149
23	19227	57.825301972034	0.013717864899
23	19232	57.83552390281	0.007587253414
23	19237	57.89031010173	0.007587253414
23	19242	57.90076406472	0.007587253414
23	19247	57.911708043828	0.007588075881
23	19255	57.919296119709	0.014426547634
23	19260	57.92688419559	0.018033201511
23	19262	57.934472271471	0.016264028967
23	19267	57.942060347352	0.010798253937
23	19272	57.96561320967	0.007588075881
23	19277	57.973201285551	0.013580242664
23	19282	57.983600057863	0.007588075881
23	19287	57.991188133744	0.008325833279
23	19292	58.041588377419	0.007588075881
23	19297	58.054375042381	0.007588898526
23	19302	58.072962049281	0.007588898526
23	19307	58.081643003648	0.007588898526
23	19312	58.102705480949	0.007588898526
23	19317	58.115875821869	0.007588898526
23	19322	58.12374892967	0.007588898526
23	19327	58.131337828196	0.013583978937
23	19332	58.138926726722	0.012572908043
23	19337	58.146515625248	0.011092624974
23	19342	58.161998788589	0.007588898526
23	19347	58.190319631856	0.007588898526
23	19352	58.199887645661	0.007589721349
23	19357	58.221903938542	0.007589721349
23	19362	58.246336366276	0.007589721349
23	19367	58.263714290913	0.007589721349
23	19372	58.28630369127	0.007589721349
23	19377	58.293893412619	0.009600141124
23	19382	58.301483133968	0.010505355213
23	19387	58.324084786895	0.007589721349
23	19392	58.37293296697	0.00759054435
23	19400	58.38052351132	0.012670631624
23	19405	58.38811405567	0.015507485426
23	19413	58.39570460002	0.021455856269
23	19415	58.40329514437	0.017497103532
23	19420	58.41088568872	0.023864808384
23	19431	58.41847623307	0.016453850535
23	19433	58.42606677742	0.021045737622
23	19438	58.43365732177	0.028079649486
23	19440	58.44124786612	0.03542137178
23	19442	58.44883841047	0.024041144131
23	19447	58.485434895609	0.007591367531
23	19452	58.506320115167	0.007591367531
23	19457	58.515674613582	0.007591367531
23	19462	58.523265981113	0.009410260273
23	19470	58.530857348644	0.010733016459
23	19472	58.538448716175	0.017340089656
23	19477	58.546040083706	0.008195418078
23	19482	58.592985843612	0.007591367531
23	19487	58.607662342295	0.007591367531
23	19492	58.641154157995	0.007592190889
23	19497	58.648746348884	0.013829131253
23	19502	58.662830388589	0.007592190889
23	19507	58.675605167353	0.007592190889
23	19512	58.718074599495	0.007592190889
23	19517	58.740577149764	0.007592190889
23	19522	58.767077175907	0.007592190889
23	19527	58.776530613059	0.007593014427
23	19532	58.784123627486	0.009962080132
23	19537	58.803352565712	0.007593014427
23	19542	58.816280066701	0.007593014427
23	19547	58.825055115278	0.007593014427
23	19552	58.832648129705	0.011386748718
23	19557	58.840241144132	0.011931783849
23	19562	58.871253526972	0.007593014427
23	19567	58.888381719316	0.007593014427
23	19572	58.895974733743	0.008467459759
23	19577	58.90430181574	0.007593014427
23	19582	58.911894830167	0.007959466407
23	19587	58.931797638505	0.007593838143
23	19592	58.939391476648	0.015128199928
23	19597	58.955889229334	0.007593838143
23	19605	58.963483067477	0.010737536439
23	19610	58.97107690562	0.017120209611
23	19615	58.978670743763	0.015580447445
23	19620	58.986264581906	0.021371190499
23	19622	58.993858420049	0.020881933206
23	19628	59.043559005467	0.007593838143
23	19633	59.05115284361	0.011919910129
23	19641	59.058746681753	0.013917511269
23	19643	59.066340519896	0.016239247787
23	19648	59.075020012183	0.007594662038
23	19653	59.095318953862	0.007594662038
23	19658	59.103107789303	0.007594662038
23	19666	59.110702451341	0.013745788648
23	19674	59.118297113379	0.019996510067
23	19680	59.125891775417	0.016506167906
23	19685	59.133486437455	0.023389990835
23	19687	59.141081099493	0.027752981583
23	19689	59.148675761531	0.025609416547
23	19694	59.158643244215	0.007594662038
23	19699	59.166590760215	0.007594662038
23	19704	59.182704590786	0.007594662038
23	19709	59.253538824019	0.007595486111
23	19714	59.274362459462	0.007595486111
23	19719	59.324173212877	0.007595486111
23	19727	59.331768698988	0.014901752176
23	19729	59.339364185099	0.015339450792
23	19734	59.360126495398	0.007596310364
23	19739	59.367722805762	0.010081940239
23	19744	59.38134156237	0.007596310364
23	19749	59.405441279268	0.007596310364
23	19754	59.42510060243	0.007596310364
23	19759	59.44387448163	0.007596310364
23	19764	59.451470791994	0.012229250302
23	19769	59.465117431361	0.007596310364
23	19777	59.472713741725	0.010132710809
23	19779	59.480310052089	0.017240071236
23	19784	59.487906362453	0.012681405456
23	19789	59.507780681426	0.007597134795
23	19794	59.535354053498	0.007597134795
23	19799	59.542951188293	0.013065764969
23	19804	59.550548323088	0.010578050156
23	19809	59.56788261134	0.007597134795
23	19814	59.577399619537	0.007597134795
23	19819	59.60687841764	0.007597134795
23	19824	59.623754163445	0.007597134795
23	19830	59.666588777458	0.007597959405
23	19835	59.674186736863	0.010323743992
23	19840	59.708055400224	0.007597959405
23	19845	59.788291572	0.007598784195
23	19850	59.795890356195	0.007617435296
23	19855	59.807175936967	0.007598784195
23	19860	59.816530028771	0.007598784195
23	19865	59.838396575577	0.007598784195
23	19870	59.845995359772	0.009315194366
23	19875	59.853594143967	0.008426167077
23	19880	59.888261058763	0.007598784195
23	19885	59.895859842958	0.011528673137
23	19890	59.907804860041	0.007598784195
23	19895	59.956637294563	0.007599609163
23	19900	59.96828659893	0.007599609163
23	19905	59.988141801427	0.007599609163

