file 11681040 1608671461                                        
version 2
run non-monitoring-0-20201222-22:10:47-14032
attr configname non-monitoring
attr datetime 20201222-22:10:47
attr experiment non-monitoring
attr inifile aerocom.ini
attr iterationvars "$0=0.5s, $1=0.5s, $2=1, $3=4s"
attr iterationvarsf 0.5s,0.5s,1,4s-
attr measurement "$0=0.5s, $1=0.5s, $2=1, $3=4s"
attr network Aerocom
attr processid 14032
attr repetition 0
attr replication #0
attr resultdir results
attr runnumber 0
attr seedset 0
param **.t 0.5s
param **.k 0.5s
param **.dataLink[*].s "1500 byte"
param **.dataLink[*].X 0
param **.nDL 1
param **.dataLink[*].dimPoolMax 400
param **.dataLink[*].dimPoolMin 100
param **.setCapacityDistribution "\"exponential\""
param **.aircraft[*].distribution "\"exponential\""
param **.aircraft[*].m 4s
param **.aircraft[*].linkSelector.DLMaxCapacity 0
param **.aircraft[*].linkSelector.trasmitting false
param **.operationMode 1

vector 0 Aerocom.aircraft[0].dataLink[0] queueLength:vector ETV
attr "" ""
attr source computeQueueLength
vector 1 Aerocom.aircraft[0].dataLink[0] waitingTime:vector ETV
attr "" ""
attr source computeWaitingTime
vector 2 Aerocom.aircraft[0].dataLink[0] responseTime:vector ETV
attr "" ""
attr source computeResponseTime
0	1240 1139396 83929 220181 10000.370125876242 26319.699837177406 32768 18482 48591 1099296221 39353921308939
0	1140636 1143167 220184 356226 26319.964179132675 42626.38119005554 32768 48592 78700 2085526047 1.352114098664e+014
0	2283803 1152797 356234 492216 42627.305892038358 58847.666971434518 32768 78701 108846 3072578042 2.9058981750989e+014
0	3436600 1176186 492220 628808 58848.023085822318 75301.826618963281 32768 108847 138929 4059429555 5.053684821692e+014
0	4612786 1175944 628813 765489 75302.423510937212 91769.472951827426 32768 138930 169001 5045181656 7.7925841123552e+014
0	5788730 1192584 765494 902258 91769.885324265298 108287.048121642427 32768 169001 199024 6029786661 1.1120298941931e+015
0	6981314 1218111 902263 1038824 108287.539274660405 124656.668882387934 32768 199025 229098 7014104286 1.503863695614e+015
0	8199425 1241564 1038827 1175945 124657.125134461921 141264.816215311099 32768 229099 259166 7999952371 1.955571984516e+015
0	9440989 664337 1175948 1248918 141265.039999955219 149999.52123063144 17533 259167 275288 4685455772 1.2525035498653e+015
1	10105326 787856 83966 1248853 10006.5 149992.5 22870 9182.8916695958 137792.55273431 1681542445.9923 1.5510276712072e+014
2	10893182 787856 83966 1248853 10006.5 149992.5 22870 9189.8916695958 137801.55273431 1681682440.9923 1.5512333824088e+014

