version 2
run Non-monitoring-1-20210208-19:10:38-19888
attr configname Non-monitoring
attr datetime 20210208-19:10:38
attr experiment Non-monitoring
attr inifile aerocom.ini
attr iterationvars ""
attr iterationvarsf ""
attr measurement ""
attr network Aerocom
attr processid 19888
attr repetition 1
attr replication #1
attr resultdir results
attr runnumber 1
attr seedset 1
param **.t 1s
param **.k 15ms
param **.nA 1
param **.nDL 10
param **.s "70 byte"
param **.X 5s
param **.dimPoolMax 10000
param **.dimPoolMin 8000
param **.tDistribution "\"lognormal\""
param **.m 1s
param **.DLMaxCapacity 0
param **.trasmitting false
param **.operationMode 1

vector 0 Aerocom.aircraft[0].packetGenerator arrivalTime:vector ETV
attr "" ""
attr source computeArrivalTime
vector 1 Aerocom.aircraft[0].dataLink[0] serviceTime:vector ETV
attr "" ""
attr source computeServiceTime
vector 2 Aerocom.aircraft[0].dataLink[0] tDistribution:vector ETV
attr "" ""
attr source computeTDistribution
vector 3 Aerocom.aircraft[0].dataLink[1] serviceTime:vector ETV
attr "" ""
attr source computeServiceTime
vector 4 Aerocom.aircraft[0].dataLink[1] tDistribution:vector ETV
attr "" ""
attr source computeTDistribution
vector 5 Aerocom.aircraft[0].dataLink[2] serviceTime:vector ETV
attr "" ""
attr source computeServiceTime
vector 6 Aerocom.aircraft[0].dataLink[2] tDistribution:vector ETV
attr "" ""
attr source computeTDistribution
vector 7 Aerocom.aircraft[0].dataLink[3] serviceTime:vector ETV
attr "" ""
attr source computeServiceTime
vector 8 Aerocom.aircraft[0].dataLink[3] tDistribution:vector ETV
attr "" ""
attr source computeTDistribution
vector 9 Aerocom.aircraft[0].dataLink[4] serviceTime:vector ETV
attr "" ""
attr source computeServiceTime
vector 10 Aerocom.aircraft[0].dataLink[4] tDistribution:vector ETV
attr "" ""
attr source computeTDistribution
vector 11 Aerocom.aircraft[0].dataLink[5] serviceTime:vector ETV
attr "" ""
attr source computeServiceTime
vector 12 Aerocom.aircraft[0].dataLink[5] tDistribution:vector ETV
attr "" ""
attr source computeTDistribution
vector 13 Aerocom.aircraft[0].dataLink[6] serviceTime:vector ETV
attr "" ""
attr source computeServiceTime
vector 14 Aerocom.aircraft[0].dataLink[6] tDistribution:vector ETV
attr "" ""
attr source computeTDistribution
vector 15 Aerocom.aircraft[0].dataLink[7] serviceTime:vector ETV
attr "" ""
attr source computeServiceTime
vector 16 Aerocom.aircraft[0].dataLink[7] tDistribution:vector ETV
attr "" ""
attr source computeTDistribution
vector 17 Aerocom.aircraft[0].dataLink[8] serviceTime:vector ETV
attr "" ""
attr source computeServiceTime
vector 18 Aerocom.aircraft[0].dataLink[8] tDistribution:vector ETV
attr "" ""
attr source computeTDistribution
vector 19 Aerocom.aircraft[0].dataLink[9] serviceTime:vector ETV
attr "" ""
attr source computeServiceTime
vector 20 Aerocom.aircraft[0].dataLink[9] tDistribution:vector ETV
attr "" ""
attr source computeTDistribution
vector 21 Aerocom.aircraft[0].dataLink[0] queueLength:vector ETV
attr "" ""
attr source computeQueueLength
vector 22 Aerocom.aircraft[0].dataLink[0] waitingTime:vector ETV
attr "" ""
attr source computeWaitingTime
vector 23 Aerocom.aircraft[0].dataLink[0] responseTime:vector ETV
attr "" ""
attr source computeResponseTime
0	0	0	0.012004235863
0	12	0.012004235863	0.002356302371
0	16	0.014360538234	0.009155082984
0	21	0.023515621218	0.009054322743
0	26	0.032569943961	0.015710693147
0	32	0.048280637108	0.003642103187
0	36	0.051922740295	0.004896079147
0	41	0.056818819442	0.0065521326
0	46	0.063370952042	0.016916982177
0	52	0.080287934219	0.010177896432
0	57	0.090465830651	0.013405571309
0	62	0.10387140196	0.036679772273
0	67	0.140551174233	0.000364111957
0	71	0.14091528619	0.021775386743
0	77	0.162690672933	0.012275693784
0	82	0.174966366717	0.054543320875
0	87	0.229509687592	0.0045014309
0	91	0.234011118492	0.007721516817
0	96	0.241732635309	0.008044746474
0	101	0.249777381783	0.012070299482
0	107	0.261847681265	0.005001180668
0	111	0.266848861933	0.005487046336
0	116	0.272335908269	0.017720353224
0	122	0.290056261493	0.013250819168
0	127	0.303307080661	0.008709435639
0	132	0.3120165163	0.004822101506
0	136	0.316838617806	0.002559471631
0	141	0.319398089437	0.009093750688
0	146	0.328491840125	0.011800301349
0	151	0.340292141474	0.021261528388
0	157	0.361553669862	0.022733392396
0	162	0.384287062258	0.02552089092
0	167	0.409807953178	0.005487109147
0	171	0.415295062325	0.004467709289
0	176	0.419762771614	0.003764619344
0	179	0.423527390958	0.033533026505
0	187	0.457060417463	0.007364640481
0	192	0.464425057944	0.019010188084
0	197	0.483435246028	0.041323272192
0	202	0.52475851822	0.000312449203
0	206	0.525070967423	0.055942664457
0	212	0.58101363188	0.002309813664
0	216	0.583323445544	0.016738681607
0	222	0.600062127151	0.005902444302
0	226	0.605964571453	0.034970032169
0	232	0.640934603622	0.024826668552
0	237	0.665761272174	0.02803779409
0	242	0.693799066264	0.007637179448
0	247	0.701436245712	0.007122084194
0	252	0.708558329906	0.008292996502
0	257	0.716851326408	0.001451248924
0	261	0.718302575332	0.008009333138
0	266	0.72631190847	0.015894230184
0	272	0.742206138654	0.023206703427
0	277	0.765412842081	0.012241277984
0	282	0.777654120065	0.018753693826
0	287	0.796407813891	0.006731025581
0	291	0.803138839472	0.000350834557
0	294	0.803489674029	0.003824438673
0	299	0.807314112702	0.005691857087
0	304	0.813005969789	0.007826274363
0	309	0.820832244152	0.012409441904
0	316	0.833241686056	0.00949321098
0	321	0.842734897036	0.020684267034
0	327	0.86341916407	0.004704962135
0	331	0.868124126205	0.014109660618
0	337	0.882233786823	0.005175278028
0	341	0.887409064851	0.003410182925
0	346	0.890819247776	0.009178662656
0	351	0.899997910432	0.015903752584
0	357	0.915901663016	0.029549007032
0	362	0.945450670048	0.016301127304
0	367	0.961751797352	0.013237505482
0	372	0.974989302834	0.030727523442
0	378	1.005716826276	0.004885484848
0	382	1.010602311124	0.00702906261
0	387	1.017631373734	0.009094144462
0	392	1.026725518196	0.00117266856
0	398	1.027898186756	0.003373026464
0	401	1.03127121322	0.000988408417
0	404	1.032259621637	0.010824281772
0	411	1.043083903409	0.027586649656
0	419	1.070670553065	0.00136905981
0	423	1.072039612875	0.017695728545
0	429	1.08973534142	0.009912684086
0	434	1.099648025506	0.008856163476
0	439	1.108504188982	0.006745398521
0	443	1.115249587503	0.006749261585
0	448	1.121998849088	0.018448932702
0	454	1.14044778179	0.01088798829
0	459	1.15133577008	0.020600448297
0	464	1.171936218377	0.009168868305
0	469	1.181105086682	0.017620721492
0	475	1.198725808174	0.00570320149
0	479	1.204429009664	0.007016494859
0	484	1.211445504523	0.027848031425
0	490	1.239293535948	0.016545396477
0	495	1.255838932425	0.010079337346
0	500	1.265918269771	0.006229292597
0	504	1.272147562368	0.011651832396
0	510	1.283799394764	0.012757329478
0	515	1.296556724242	0.026241544681
0	520	1.322798268923	0.005913586464
0	524	1.328711855387	0.011059757124
0	530	1.339771612511	0.008835728313
0	535	1.348607340824	0.002307749437
0	539	1.350915090261	0.000952548719
0	542	1.35186763898	0.005398708761
0	547	1.357266347741	0.00416945022
0	550	1.361435797961	0.024677738756
0	560	1.386113536717	0.053421870265
0	565	1.439535406982	0.005773802414
0	569	1.445309209396	0.003931856433
0	574	1.449241065829	0.000321813682
0	577	1.449562879511	0.017639408042
0	584	1.467202287553	0.009879615449
0	590	1.477081903002	0.015767782734
0	595	1.492849685736	0.000395564152
0	599	1.493245249888	0.01930700877
0	605	1.512552258658	0.010565368532
0	610	1.52311762719	0.009667887076
0	615	1.532785514266	0.037521033386
0	620	1.570306547652	0.013619771487
0	625	1.583926319139	0.003478340312
0	629	1.587404659451	0.001039759582
0	632	1.588444419033	0.039001285031
0	640	1.627445704064	0.001129942218
0	644	1.628575646282	0.004871894612
0	647	1.633447540894	0.003327966019
0	652	1.636775506913	0.002904902017
0	655	1.63968040893	0.002470660993
0	660	1.642151069923	0.069536278974
0	670	1.711687348897	0.001582146904
0	674	1.713269495801	0.017696551818
0	680	1.730966047619	0.002076761176
0	684	1.733042808795	0.020923369943
0	690	1.753966178738	0.012087273008
0	695	1.766053451746	0.001853148872
0	699	1.767906600618	0.003120403752
0	702	1.77102700437	0.001348882353
0	705	1.772375886723	0.045579986516
0	715	1.817955873239	0.016432364816
0	720	1.834388238055	0.017167257417
0	725	1.851555495472	0.005997570103
0	729	1.857553065575	0.011681218963
0	735	1.869234284538	0.006733042862
0	739	1.8759673274	0.018422988773
0	746	1.894390316173	0.008293735463
0	751	1.902684051636	0.039203177043
0	756	1.941887228679	0.02570371494
0	761	1.967590943619	0.027413261465
0	766	1.995004205084	0.012704434821
0	771	2.007708639905	0.019436908569
0	776	2.027145548474	0.031943442127
0	781	2.059088990601	0.009815820321
0	786	2.068904810922	0.024186900427
0	791	2.093091711349	0.027687203212
0	796	2.120778914561	0.006460018192
0	800	2.127238932753	0.020482813858
0	806	2.147721746611	0.022224821244
0	811	2.169946567855	0.016196529868
0	816	2.186143097723	0.034022270651
0	821	2.220165368374	0.036796805608
0	827	2.256962173982	0.004998716424
0	831	2.261960890406	0.006834189212
0	836	2.268795079618	0.032044426328
0	842	2.300839505946	0.012072735526
0	847	2.312912241472	0.011824486948
0	852	2.32473672842	0.003279442159
0	856	2.328016170579	0.026405840967
0	862	2.354422011546	0.003199240514
0	866	2.35762125206	0.0039925667
0	869	2.36161381876	0.019401332235
0	877	2.381015150995	0.003401206448
0	881	2.384416357443	0.023052343086
0	887	2.407468700529	0.047671851597
0	892	2.455140552126	0.053686047571
0	898	2.508826599697	0.003128458692
0	902	2.511955058389	0.011765598561
0	907	2.52372065695	0.009505674271
0	913	2.533226331221	0.001411213351
0	917	2.534637544572	0.010473306906
0	922	2.545110851478	0.010067065129
0	927	2.555177916607	0.002837707575
0	932	2.558015624182	0.03945308284
0	938	2.597468707022	0.005316024102
0	942	2.602784731124	0.023240545231
0	948	2.626025276355	0.004696174227
0	952	2.630721450582	0.009956570297
0	957	2.640678020879	0.032691995082
0	963	2.673370015961	0.009112232981
0	968	2.682482248942	0.010495185709
0	973	2.692977434651	0.003688235111
0	977	2.696665669762	0.012737811364
0	983	2.709403481126	0.00292587583
0	987	2.712329356956	0.006287823315
0	992	2.718617180271	0.001147120759
0	995	2.71976430103	0.014110507928
0	1002	2.733874808958	0.033439070467
0	1008	2.767313879425	0.001928027576
0	1012	2.769241907001	0.015332129816
0	1018	2.784574036817	0.000595434713
0	1022	2.78516947153	0.002320578006
0	1025	2.787490049536	0.159230439831
0	1033	2.946720489367	0.008019781529
0	1038	2.954740270896	0.004678550916
0	1042	2.959418821812	0.000755336406
0	1045	2.960174158218	0.00446005554
0	1050	2.964634213758	0.003523941293
0	1053	2.968158155051	0.004857755906
0	1058	2.973015910957	0.019679391824
0	1065	2.992695302781	0.004350101799
0	1070	2.99704540458	0.015795527729
0	1077	3.012840932309	0.034203114581
0	1083	3.04704404689	0.009779453764
0	1088	3.056823500654	0.027049555676
0	1093	3.08387305633	0.00481921391
0	1097	3.08869227024	0.002372916564
0	1100	3.091065186804	0.015842912524
0	1107	3.106908099328	0.080866937049
0	1114	3.187775036377	0.008577769555
0	1119	3.196352805932	0.011882277537
0	1124	3.208235083469	0.00109069777
0	1128	3.209325781239	0.010153662047
0	1133	3.219479443286	0.000891975003
0	1136	3.220371418289	0.002083042235
0	1139	3.222454460524	0.001297607348
0	1142	3.223752067872	0.029497422108
0	1153	3.25324948998	0.04817373376
0	1160	3.30142322374	0.026087339724
0	1165	3.327510563464	0.027252691377
0	1170	3.354763254841	0.0955087384
0	1175	3.450271993241	0.002795549836
0	1179	3.453067543077	0.071159107883
0	1185	3.52422665096	0.004523572764
0	1189	3.528750223724	0.002573746907
0	1192	3.531323970631	0.017663737142
0	1200	3.548987707773	0.009542034466
0	1205	3.558529742239	0.03388862164
0	1211	3.592418363879	0.006232866323
0	1215	3.598651230202	0.001002889273
0	1218	3.599654119475	0.017897965363
0	1226	3.617552084838	0.029939710568
0	1231	3.647491795406	0.020699181553
0	1236	3.668190976959	0.005155797917
0	1240	3.673346774876	0.025476935612
0	1246	3.698823710488	0.020268681278
0	1251	3.719092391766	0.028230707698
0	1256	3.747323099464	0.002580228642
0	1260	3.749903328106	0.001276360854
0	1263	3.75117968896	0.017809854534
0	1270	3.768989543494	0.005515685813
0	1275	3.774505229307	0.027622405072
0	1281	3.802127634379	0.012348368765
0	1286	3.814476003144	0.019482610196
0	1291	3.83395861334	0.037859780401
0	1296	3.871818393741	0.006673403822
0	1300	3.878491797563	0.001495338316
0	1305	3.879987135879	0.019457215481
0	1311	3.89944435136	0.007810588703
0	1315	3.907254940063	0.002253051926
0	1320	3.909507991989	0.011597918304
0	1325	3.921105910293	0.005649210014
0	1330	3.926755120307	0.01572905409
0	1336	3.942484174397	0.008160120857
0	1341	3.950644295254	0.005565121216
0	1345	3.95620941647	0.031459444123
0	1351	3.987668860593	0.027616178028
0	1358	4.015285038621	0.0240640928
0	1363	4.039349131421	0.017039247971
0	1368	4.056388379392	0.053433329485
0	1375	4.109821708877	0.002609001386
0	1379	4.112430710263	0.004127813122
0	1382	4.116558523385	0.025683865183
0	1390	4.142242388568	0.02639195206
0	1395	4.168634340628	0.005403754737
0	1399	4.174038095365	0.050384206369
0	1405	4.224422301734	0.001679429273
0	1409	4.226101731007	0.018000209877
0	1415	4.244101940884	0.005059475362
0	1419	4.249161416246	0.009881100469
0	1424	4.259042516715	0.018755725652
0	1430	4.277798242367	0.00507515486
0	1434	4.282873397227	0.004085721847
0	1439	4.286959119074	0.026908335611
0	1445	4.313867454685	0.017943327035
0	1450	4.33181078172	0.030856926819
0	1455	4.362667708539	0.00038789044
0	1459	4.363055598979	0.001449837515
0	1462	4.364505436494	0.039570625444
0	1470	4.404076061938	0.003649227114
0	1474	4.407725289052	0.006766580683
0	1479	4.414491869735	0.026735553384
0	1485	4.441227423119	0.024145868838
0	1490	4.465373291957	0.028288141119
0	1496	4.493661433076	0.013838047859
0	1501	4.507499480935	0.00491287239
0	1505	4.512412353325	0.003948960135
0	1510	4.51636131346	0.008453246982
0	1515	4.524814560442	0.008793685124
0	1520	4.533608245566	0.011629893829
0	1525	4.545238139395	0.01545344316
0	1531	4.560691582555	0.0015067027
0	1535	4.562198285255	0.022875347116
0	1541	4.585073632371	0.02720199252
0	1546	4.612275624891	0.023680886308
0	1551	4.635956511199	0.011477217982
0	1556	4.647433729181	0.007193026556
0	1560	4.654626755737	0.022372677842
0	1566	4.676999433579	0.007861626724
0	1570	4.684861060303	0.003936771246
0	1575	4.688797831549	0.001675025602
0	1578	4.690472857151	0.050412360392
0	1586	4.740885217543	0.008670587811
0	1591	4.749555805354	0.020856180856
0	1596	4.77041198621	0.028885944868
0	1601	4.799297931078	0.00630321195
0	1605	4.805601143028	0.052315634668
0	1613	4.857916777696	0.02754141675
0	1618	4.885458194446	0.002247987078
0	1622	4.887706181524	0.000698472222
0	1625	4.888404653746	0.000335153751
0	1628	4.888739807497	0.000858741999
0	1631	4.889598549496	0.003772688596
0	1634	4.893371238092	0.020364861469
0	1643	4.913736099561	0.006618226877
0	1648	4.920354326438	0.005450885288
0	1653	4.925805211726	0.022901117671
0	1660	4.948706329397	0.010909384209
0	1667	4.959615713606	0.008951232803
0	1672	4.968566946409	0.002548706476
0	1675	4.971115652885	0.009720650304
0	1680	4.980836303189	0.057218281603
0	1698	5.038054584792	0.010893914155
0	1704	5.048948498947	0.02649147033
0	1709	5.075439969277	0.004565860265
0	1713	5.080005829542	0.001153827911
0	1716	5.081159657453	0.024355180248
0	1724	5.105514837701	0.009777644379
0	1729	5.11529248208	0.034654845065
0	1734	5.149947327145	0.000964549894
0	1738	5.150911877039	0.006719729049
0	1741	5.157631606088	0.032343728049
0	1749	5.189975334137	0.032320840963
0	1754	5.2222961751	0.008853720193
0	1759	5.231149895293	0.00548200139
0	1763	5.236631896683	0.00106519026
0	1766	5.237697086943	0.00500462215
0	1771	5.242701709093	0.00119370678
0	1774	5.243895415873	0.00359089166
0	1779	5.247486307533	0.011608613704
0	1784	5.259094921237	0.008177801348
0	1790	5.267272722585	0.003045929076
0	1793	5.270318651661	0.074264758607
0	1805	5.344583410268	0.008600015408
0	1810	5.353183425676	0.008525080984
0	1815	5.36170850666	0.010330839723
0	1820	5.372039346383	0.014384266492
0	1825	5.386423612875	0.013131259808
0	1830	5.399554872683	0.058003776433
0	1835	5.457558649116	0.014534011506
0	1840	5.472092660622	0.005208392592
0	1844	5.477301053214	0.006997622261
0	1849	5.484298675475	0.009085612403
0	1854	5.493384287878	0.014463971413
0	1860	5.507848259291	0.007615879302
0	1864	5.515464138593	0.002566178706
0	1869	5.518030317299	0.023309277257
0	1875	5.541339594556	0.004834278206
0	1879	5.546173872762	0.014413602714
0	1885	5.560587475476	0.02404574579
0	1890	5.584633221266	0.013429905395
0	1896	5.598063126661	0.003790960318
0	1900	5.601854086979	0.000471264015
0	1903	5.602325350994	0.004175448091
0	1908	5.606500799085	0.003961404979
0	1911	5.610462204064	0.009794691564
0	1916	5.620256895628	0.000192563116
0	1919	5.620449458744	1.1186974e-005
0	1922	5.620460645718	0.004816255607
0	1927	5.625276901325	0.000461703695
0	1930	5.62573860502	0.042687552998
0	1943	5.668426158018	0.009285858127
0	1948	5.677712016145	0.00486037661
0	1953	5.682572392755	0.002660380828
0	1956	5.685232773583	0.00118221027
0	1961	5.686414983853	0.017068179647
0	1968	5.7034831635	0.004810356882
0	1971	5.708293520382	0.02378615662
0	1980	5.732079677002	0.064058728674
0	1986	5.796138405676	0.012947057325
0	1991	5.809085463001	0.008238934522
0	1996	5.817324397523	0.0178000983
0	2001	5.835124495823	0.01964886566
0	2006	5.854773361483	0.00743802114
0	2010	5.862211382623	0.014325062396
0	2016	5.876536445019	0.000711032157
0	2020	5.877247477176	0.002990312801
0	2023	5.880237789977	0.008681790629
0	2028	5.888919580606	0.02042867541
0	2036	5.909348256016	0.006977756386
0	2040	5.916326012402	0.0068233366
0	2045	5.923149349002	0.013632401391
0	2052	5.936781750393	0.023648948007
0	2057	5.9604306984	0.003875983566
0	2061	5.964306681966	0.015089271625
0	2067	5.979395953591	0.025293360039
0	2073	6.00468931363	0.015243857388
0	2078	6.019933171018	0.007922634197
0	2082	6.027855805215	0.015968986274
0	2088	6.043824791489	0.041226563871
0	2093	6.08505135536	7.183953e-006
0	2097	6.085058539313	0.004835188955
0	2100	6.089893728268	0.011372107248
0	2107	6.101265835516	0.002354895004
0	2110	6.10362073052	0.00295005922
0	2113	6.10657078974	0.018160939948
0	2120	6.124731729688	0.021988747303
0	2128	6.146720476991	0.012557568886
0	2133	6.159278045877	0.000380156087
0	2137	6.159658201964	0.014185555104
0	2142	6.173843757068	0.001022093097
0	2145	6.174865850165	0.000644095622
0	2150	6.175509945787	0.005923754163
0	2153	6.18143369995	0.008100389944
0	2158	6.189534089894	0.013153529794
0	2165	6.202687619688	6.4133518e-005
0	2168	6.202751753206	0.001590039372
0	2171	6.204341792578	0.004246099984
0	2176	6.208587892562	0.010455019273
0	2181	6.219042911835	0.018365499379
0	2188	6.237408411214	0.024216472943
0	2197	6.261624884157	0.00095273717
0	2200	6.262577621327	0.001094525439
0	2205	6.263672146766	0.00523684213
0	2208	6.268908988896	0.027386267113
0	2218	6.296295256009	0.066484332049
0	2223	6.362779588058	0.017581113637
0	2228	6.380360701695	0.05322228425
0	2233	6.433582985945	0.001988536416
0	2237	6.435571522361	0.009862252999
0	2242	6.44543377536	0.011440511762
0	2247	6.456874287122	0.019959681579
0	2253	6.476833968701	0.027911529583
0	2258	6.504745498284	0.015021838695
0	2263	6.519767336979	0.014409307534
0	2268	6.534176644513	0.009401772424
0	2273	6.543578416937	0.078099825822
0	2278	6.621678242759	0.02918062967
0	2283	6.650858872429	0.006101105675
0	2287	6.656959978104	0.002840523363
0	2292	6.659800501467	0.027895015589
0	2298	6.687695517056	0.026441627289
0	2303	6.714137144345	0.007820140651
0	2307	6.721957284996	0.000644701074
0	2312	6.72260198607	0.029133659809
0	2318	6.751735645879	0.030255870299
0	2323	6.781991516178	0.023868520188
0	2328	6.805860036366	0.016905018532
0	2333	6.822765054898	0.001676405919
0	2337	6.824441460817	0.008856533533
0	2342	6.83329799435	0.01884895579
0	2348	6.85214695014	0.016701484661
0	2353	6.868848434801	0.026567889649
0	2358	6.89541632445	0.009253031751
0	2363	6.904669356201	0.015108552008
0	2368	6.919777908209	0.0227121357
0	2373	6.942490043909	0.006240289814
0	2377	6.948730333723	0.001806166239
0	2382	6.950536499962	0.003184598967
0	2385	6.953721098929	0.010643948943
0	2390	6.964365047872	0.012533851606
0	2397	6.976898899478	0.03077617528
0	2403	7.007675074758	0.000411059349
0	2407	7.008086134107	0.039368589156
0	2413	7.047454723263	0.000816447128
0	2417	7.048271170391	0.003733389689
0	2420	7.05200456008	0.02541425852
0	2428	7.0774188186	0.004353886875
0	2432	7.081772705475	0.025993889286
0	2438	7.107766594761	0.035153055465
0	2443	7.142919650226	0.000349382133
0	2447	7.143269032359	0.006358652778
0	2450	7.149627685137	0.003104458424
0	2455	7.152732143561	0.00087830813
0	2458	7.153610451691	0.016828077483
0	2465	7.170438529174	0.018823027795
0	2472	7.189261556969	0.03584798727
0	2478	7.225109544239	0.008027257862
0	2482	7.233136802101	0.018877263781
0	2488	7.252014065882	0.01993874301
0	2493	7.271952808892	0.023341603697
0	2498	7.295294412589	0.009725235726
0	2503	7.305019648315	0.001391236558
0	2507	7.306410884873	0.010414183848
0	2512	7.316825068721	0.008471790353
0	2517	7.325296859074	0.008107985686
0	2522	7.33340484476	0.036867622559
0	2528	7.370272467319	0.005147602316
0	2532	7.375420069635	0.021668658898
0	2538	7.397088728533	0.034645788167
0	2543	7.4317345167	0.003453269337
0	2547	7.435187786037	0.016574930336
0	2553	7.451762716373	0.003955263527
0	2557	7.4557179799	0.023326543068
0	2563	7.479044522968	0.034009570433
0	2568	7.513054093401	0.033912944504
0	2573	7.546967037905	0.020386234048
0	2578	7.567353271953	0.004319010362
0	2582	7.571672282315	0.008125016026
0	2587	7.579797298341	0.037852331602
0	2593	7.617649629943	0.055299385961
0	2598	7.672949015904	0.029773438593
0	2603	7.702722454497	0.054226311244
0	2608	7.756948765741	0.010580885646
0	2613	7.767529651387	0.000875565889
0	2617	7.768405217276	0.012586548972
0	2622	7.780991766248	0.011643763216
0	2628	7.792635529464	0.001831365949
0	2632	7.794466895413	0.029844189059
0	2638	7.824311084472	0.02153957188
0	2643	7.845850656352	0.01346475675
0	2648	7.859315413102	0.002853340441
0	2652	7.862168753543	0.034104660497
0	2658	7.89627341404	0.011448267872
0	2663	7.907721681912	0.011921985955
0	2668	7.919643667867	0.002027630571
0	2672	7.921671298438	0.027700322524
0	2678	7.949371620962	0.001135684168
0	2682	7.95050730513	0.015034288469
0	2688	7.965541593599	0.014086768577
0	2693	7.979628362176	0.023495011762
0	2698	8.003123373938	0.010135596321
0	2704	8.013258970259	0.004772808897
0	2708	8.018031779156	0.023470853621
0	2714	8.041502632777	0.014866917597
0	2719	8.056369550374	0.060844890831
0	2724	8.117214441205	0.013628730759
0	2729	8.130843171964	0.001317404899
0	2733	8.132160576863	0.060946849395
0	2739	8.193107426258	0.014963004425
0	2744	8.208070430683	0.014392503901
0	2749	8.222462934584	0.01290485628
0	2754	8.235367790864	0.012699218333
0	2759	8.248067009197	0.015774878802
0	2764	8.263841887999	0.018565876501
0	2769	8.2824077645	0.011751969617
0	2774	8.294159734117	0.005817281678
0	2778	8.299977015795	0.012225227599
0	2784	8.312202243394	0.008057523726
0	2789	8.32025976712	0.030437459486
0	2794	8.350697226606	0.012697928579
0	2799	8.363395155185	0.009022517992
0	2804	8.372417673177	0.002958490749
0	2808	8.375376163926	0.011484980363
0	2813	8.386861144289	0.018022261842
0	2819	8.404883406131	0.017614448177
0	2824	8.422497854308	0.008963162704
0	2829	8.431461017012	0.001406338248
0	2833	8.43286735526	0.007976425591
0	2838	8.440843780851	0.008482535778
0	2843	8.449326316629	0.051046584928
0	2849	8.500372901557	0.001616020412
0	2853	8.501988921969	0.000832801422
0	2856	8.502821723391	0.002224192361
0	2859	8.505045915752	0.019225891323
0	2866	8.524271807075	3.1917345e-005
0	2869	8.52430372442	0.014833949035
0	2876	8.539137673455	0.003530262107
0	2881	8.542667935562	0.007878682487
0	2886	8.550546618049	0.003662391473
0	2889	8.554209009522	0.00269766129
0	2894	8.556906670812	0.010892634384
0	2899	8.567799305196	0.00678423727
0	2904	8.574583542466	0.012666817132
0	2909	8.587250359598	0.004456748506
0	2914	8.591707108104	0.026055760759
0	2923	8.617762868863	0.014022310375
0	2929	8.631785179238	0.010003748958
0	2934	8.641788928196	0.046861380905
0	2939	8.688650309101	0.033308800605
0	2944	8.721959109706	0.032111349169
0	2949	8.754070458875	0.007539409574
0	2953	8.761609868449	0.014732788337
0	2959	8.776342656786	0.020474537206
0	2964	8.796817193992	0.01665114103
0	2969	8.813468335022	0.012069806696
0	2974	8.825538141718	0.034118836817
0	2979	8.859656978535	0.014665515604
0	2984	8.874322494139	0.017174559736
0	2989	8.891497053875	0.00472871813
0	2993	8.896225772005	0.010131415859
0	2998	8.906357187864	0.04161164992
0	3004	8.947968837784	0.020783646107
0	3009	8.968752483891	0.02202263803
0	3014	8.990775121921	0.004113074649
0	3018	8.99488819657	0.002360249915
0	3021	8.997248446485	0.000148585866
0	3024	8.997397032351	0.011564502646
0	3031	9.008961534997	0.001300897204
0	3034	9.010262432201	0.082041243604
0	3044	9.092303675805	0.010553553752
0	3049	9.102857229557	0.000754506744
0	3053	9.103611736301	0.010184266013
0	3058	9.113796002314	0.005410671214
0	3063	9.119206673528	0.015267807965
0	3068	9.134474481493	0.020253103578
0	3074	9.154727585071	0.01283174684
0	3079	9.167559331911	0.000602355864
0	3083	9.168161687775	0.001164962837
0	3086	9.169326650612	0.020595999182
0	3093	9.189922649794	0.007569228614
0	3098	9.197491878408	0.012779375368
0	3104	9.210271253776	0.00732305886
0	3108	9.217594312636	0.019735060188
0	3114	9.237329372824	0.006201983706
0	3118	9.24353135653	0.012005394448
0	3124	9.255536750978	0.011226850887
0	3129	9.266763601865	0.042052767064
0	3134	9.308816368929	0.011417499022
0	3139	9.320233867951	0.006378935026
0	3143	9.326612802977	0.011602522119
0	3149	9.338215325096	0.012816278361
0	3154	9.351031603457	0.018989188756
0	3159	9.370020792213	0.000781719972
0	3163	9.370802512185	0.007903644974
0	3168	9.378706157159	0.012092481968
0	3173	9.390798639127	0.013774337735
0	3179	9.404572976862	0.008155216246
0	3184	9.412728193108	0.000544641505
0	3188	9.413272834613	0.061261566745
0	3194	9.474534401358	0.008006782682
0	3198	9.48254118404	0.043672884801
0	3204	9.526214068841	0.036885029084
0	3209	9.563099097925	0.002232363122
0	3213	9.565331461047	0.033304528295
0	3219	9.598635989342	0.000637595553
0	3223	9.599273584895	0.029022141032
0	3229	9.628295725927	0.001929011859
0	3233	9.630224737786	0.005967730739
0	3236	9.636192468525	0.003211771809
0	3241	9.639404240334	0.001352869246
0	3244	9.64075710958	0.019428607319
0	3251	9.660185716899	0.006293747992
0	3256	9.666479464891	0.011778211907
0	3263	9.678257676798	9.113191e-005
0	3266	9.678348808708	0.011483359801
0	3271	9.689832168509	0.000784650654
0	3274	9.690616819163	0.009369351656
0	3279	9.699986170819	0.046665252525
0	3289	9.746651423344	0.000100750891
0	3293	9.746752174235	0.022842228179
0	3299	9.769594402414	0.007475353095
0	3303	9.777069755509	0.01163980615
0	3309	9.788709561659	0.102720228038
0	3314	9.891429789697	0.091369462343
0	3319	9.98279925204	0.025746262793
0	3325	10.008545514833	0.001296315505
0	3329	10.009841830338	0.003280980061
0	3332	10.013122810399	0.003739880863
0	3337	10.016862691262	0.037974205076
0	3345	10.054836896338	0.028568514183
0	3352	10.083405410521	0.00340553534
0	3356	10.086810945861	0.003866111084
0	3359	10.090677056945	0.005963921615
0	3364	10.09664097856	0.02189908276
0	3372	10.11854006132	0.006345735007
0	3376	10.124885796327	0.000941120585
0	3379	10.125826916912	0.007531751692
0	3384	10.133358668604	0.002778717021
0	3389	10.136137385625	0.000337241128
0	3392	10.136474626753	0.005411525818
0	3395	10.141886152571	0.01619746405
0	3402	10.158083616621	0.0005676614
0	3405	10.158651278021	0.002794763268
0	3410	10.161446041289	0.09607816592
0	3423	10.257524207209	0.014497204196
0	3428	10.272021411405	0.008310028025
0	3433	10.28033143943	0.017955193583
0	3438	10.298286633013	0.00834166718
0	3443	10.306628300193	0.00517820985
0	3447	10.311806510043	0.011118826502
0	3453	10.322925336545	0.005180345418
0	3457	10.328105681963	0.020205704932
0	3463	10.348311386895	0.021129907938
0	3468	10.369441294833	0.026310640437
0	3473	10.39575193527	0.007370840998
0	3477	10.403122776268	0.008792874605
0	3483	10.411915650873	0.002481316359
0	3487	10.414396967232	0.010078536598
0	3492	10.42447550383	0.035350060708
0	3498	10.459825564538	0.005094626676
0	3502	10.464920191214	0.000197537156
0	3505	10.46511772837	0.000420400686
0	3508	10.465538129056	0.032637226563
0	3518	10.498175355619	0.001630238948
0	3522	10.499805594567	0.00518510901
0	3525	10.504990703577	0.009267646529
0	3530	10.514258350106	0.007214756319
0	3535	10.521473106425	0.00710654806
0	3540	10.528579654485	0.057529505554
0	3548	10.586109160039	0.014438647368
0	3553	10.600547807407	0.008608497907
0	3558	10.609156305314	0.032948265702
0	3563	10.642104571016	0.01887548315
0	3568	10.660980054166	0.018204166968
0	3573	10.679184221134	0.00797519276
0	3577	10.687159413894	0.000674901753
0	3582	10.687834315647	0.036720374424
0	3589	10.724554690071	0.001944752109
0	3593	10.72649944218	0.00982886562
0	3598	10.7363283078	0.01867475727
0	3604	10.75500306507	0.001319713807
0	3608	10.756322778877	0.00705154529
0	3613	10.763374324167	0.006779717982
0	3616	10.770154042149	0.012445564317
0	3623	10.782599606466	0.010118022986
0	3628	10.792717629452	0.040022676562
0	3634	10.832740306014	0.005008281566
0	3638	10.83774858758	0.02162202869
0	3644	10.85937061627	0.011474175998
0	3649	10.870844792268	0.009553425377
0	3654	10.880398217645	0.003529211282
0	3658	10.883927428927	0.000676768453
0	3661	10.88460419738	0.010228052241
0	3666	10.894832249621	0.010774623995
0	3673	10.905606873616	0.011261809544
0	3678	10.91686868316	0.016457470424
0	3684	10.933326153584	0.016783433127
0	3689	10.950109586711	0.001394580448
0	3693	10.951504167159	0.020518911646
0	3699	10.972023078805	0.004429773555
0	3703	10.97645285236	0.019638541406
0	3709	10.996091393766	0.002514399062
0	3713	10.998605792828	0.008277732812
0	3718	11.00688352564	0.011825178154
0	3723	11.018708703794	0.009130776097
0	3728	11.027839479891	0.047363594558
0	3734	11.075203074449	0.031013536723
0	3739	11.106216611172	0.012015696216
0	3744	11.118232307388	0.006759791193
0	3748	11.124992098581	0.018738279543
0	3754	11.143730378124	0.020093041203
0	3759	11.163823419327	0.021440652178
0	3764	11.185264071505	0.076908973904
0	3769	11.262173045409	0.005711941414
0	3773	11.267884986823	0.038815733556
0	3779	11.306700720379	0.001148092272
0	3783	11.307848812651	0.011952199148
0	3788	11.319801011799	0.011291421997
0	3794	11.331092433796	0.005460055711
0	3798	11.336552489507	0.002144943511
0	3801	11.338697433018	0.014605327736
0	3808	11.353302760754	0.001407944032
0	3811	11.354710704786	0.01729452264
0	3819	11.372005227426	0.002914760198
0	3824	11.374919987624	0.006266329098
0	3829	11.381186316722	0.012118410459
0	3834	11.393304727181	0.009116287347
0	3839	11.402421014528	0.016905338082
0	3845	11.41932635261	0.001279949425
0	3849	11.420606302035	0.018006156876
0	3855	11.438612458911	0.00516446796
0	3859	11.443776926871	0.02151880272
0	3865	11.465295729591	0.002347995997
0	3869	11.467643725588	0.004289052585
0	3872	11.471932778173	0.016470819431
0	3879	11.488403597604	0.008876176264
0	3884	11.497279773868	0.047998657044
0	3890	11.545278430912	0.001535557795
0	3894	11.546813988707	0.002566001228
0	3897	11.549379989935	0.038629047257
0	3905	11.588009037192	0.000430530946
0	3909	11.588439568138	0.000609113904
0	3912	11.589048682042	0.02028460787
0	3919	11.609333289912	0.032935629648
0	3925	11.64226891956	0.006558156634
0	3929	11.648827076194	0.002524503644
0	3934	11.651351579838	0.010577272494
0	3939	11.661928852332	0.001488657066
0	3942	11.663417509398	0.000944864881
0	3945	11.664362374279	0.044708820394
0	3955	11.709071194673	0.002935934657
0	3959	11.71200712933	0.004704863412
0	3962	11.716711992742	0.017836572748
0	3970	11.73454856549	0.005653185057
0	3975	11.740201750547	0.028801860648
0	3982	11.769003611195	0.048121004201
0	3987	11.817124615396	0.006685288066
0	3991	11.823809903462	0.01219248327
0	3997	11.836002386732	0.014523573219
0	4002	11.850525959951	0.006680470812
0	4006	11.857206430763	0.008904345056
0	4011	11.866110775819	0.002335476716
0	4016	11.868446252535	0.010566063436
0	4021	11.879012315971	0.014405252121
0	4027	11.893417568092	0.007451418846
0	4031	11.900868986938	0.011842077994
0	4037	11.912711064932	0.056843248938
0	4042	11.96955431387	0.01043808965
0	4047	11.97999240352	0.014658049971
0	4052	11.994650453491	0.046235057305
0	4057	12.040885510796	0.002295264799
0	4061	12.043180775595	0.018796065166
0	4067	12.061976840761	0.017946442202
0	4072	12.079923282963	0.002805985813
0	4076	12.082729268776	0.050613769449
0	4082	12.133343038225	0.016236617214
0	4087	12.149579655439	0.033785423106
0	4092	12.183365078545	0.012968387163
0	4097	12.196333465708	0.012246819592
0	4102	12.2085802853	0.005018479392
0	4106	12.213598764692	0.000222361812
0	4109	12.213821126504	0.027748636171
0	4117	12.241569762675	0.024563420607
0	4122	12.266133183282	0.008930879191
0	4127	12.275064062473	0.040293156872
0	4132	12.315357219345	0.030147452453
0	4137	12.345504671798	0.019859880428
0	4142	12.365364552226	0.00989517386
0	4147	12.375259726086	0.008404259836
0	4152	12.383663985922	0.002679510083
0	4156	12.386343496005	0.007190900314
0	4161	12.393534396319	0.005277345716
0	4164	12.398811742035	0.0204741446
0	4172	12.419285886635	0.015149031388
0	4177	12.434434918023	0.001711833417
0	4181	12.43614675144	0.003760841578
0	4184	12.439907593018	0.0230355536
0	4192	12.462943146618	0.023582586828
0	4197	12.486525733446	0.010361407107
0	4202	12.496887140553	0.002011670295
0	4206	12.498898810848	0.001090480074
0	4209	12.499989290922	0.014974309709
0	4217	12.514963600631	0.007456490896
0	4222	12.522420091527	0.015598634347
0	4228	12.538018725874	0.001693582573
0	4232	12.539712308447	0.001531442999
0	4235	12.541243751446	0.002863747852
0	4238	12.544107499298	0.005599674318
0	4243	12.549707173616	0.029431025057
0	4253	12.579138198673	0.000933890511
0	4257	12.580072089184	0.002844576253
0	4260	12.582916665437	0.029388343046
0	4268	12.612305008483	0.023004556628
0	4273	12.635309565111	0.016392166557
0	4278	12.651701731668	0.024453497477
0	4283	12.676155229145	0.000499141359
0	4287	12.676654370504	0.001357376424
0	4290	12.678011746928	0.041767107949
0	4298	12.719778854877	0.008574209865
0	4303	12.728353064742	0.005298600673
0	4307	12.733651665415	0.023208145902
0	4313	12.756859811317	0.06392558556
0	4318	12.820785396877	0.010101959017
0	4323	12.830887355894	0.000884181711
0	4327	12.831771537605	0.030150503089
0	4333	12.861922040694	0.013815055525
0	4338	12.875737096219	0.007163794672
0	4342	12.882900890891	0.009015768354
0	4348	12.891916659245	0.00360282478
0	4353	12.895519484025	0.028328042358
0	4359	12.923847526383	0.02770176382
0	4364	12.951549290203	0.004705445266
0	4368	12.956254735469	0.027428587606
0	4374	12.983683323075	0.048610771507
0	4379	13.032294094582	0.012514936454
0	4384	13.044809031036	0.024809630341
0	4389	13.069618661377	0.00585321996
0	4393	13.075471881337	0.004277219568
0	4398	13.079749100905	0.006405729748
0	4404	13.086154830653	0.010919798609
0	4409	13.097074629262	0.002061526347
0	4412	13.099136155609	0.011027565502
0	4419	13.110163721111	0.010714729856
0	4424	13.120878450967	0.019905767628
0	4430	13.140784218595	0.005252434356
0	4434	13.146036652951	0.032098258277
0	4441	13.178134911228	0.005825559539
0	4445	13.183960470767	0.00162174409
0	4448	13.185582214857	0.02698513178
0	4456	13.212567346637	0.018896579283
0	4461	13.23146392592	0.002894683261
0	4465	13.234358609181	0.009130169425
0	4470	13.243488778606	0.004046602258
0	4473	13.247535380864	0.007585075558
0	4478	13.255120456422	0.002695423821
0	4483	13.257815880243	0.005869752113
0	4486	13.263685632356	0.000228239217
0	4491	13.263913871573	0.009664122308
0	4496	13.273577993881	0.008316562364
0	4501	13.281894556245	0.030262020716
0	4510	13.312156576961	0.027863440975
0	4516	13.340020017936	0.042669882685
0	4521	13.382689900621	0.034956939584
0	4526	13.417646840205	0.004977894077
0	4530	13.422624734282	0.010022887119
0	4535	13.432647621401	0.027946912312
0	4541	13.460594533713	0.008206545387
0	4546	13.4688010791	0.010173802724
0	4551	13.478974881824	0.030393315874
0	4556	13.509368197698	0.004699650914
0	4560	13.514067848612	0.011277376454
0	4565	13.525345225066	0.004404801116
0	4570	13.529750026182	0.011933253452
0	4575	13.541683279634	0.015500860082
0	4581	13.557184139716	0.015717871611
0	4586	13.572902011327	0.007796876238
0	4590	13.580698887565	0.001244411249
0	4595	13.581943298814	0.026908122259
0	4601	13.608851421073	0.027349270199
0	4606	13.636200691272	0.008575573197
0	4611	13.644776264469	0.001676431722
0	4615	13.646452696191	0.02721271311
0	4621	13.673665409301	0.011399614137
0	4626	13.685065023438	0.011706387844
0	4631	13.696771411282	0.03905728688
0	4636	13.735828698162	0.033041764226
0	4641	13.768870462388	0.01193457086
0	4646	13.780805033248	0.022395747088
0	4651	13.803200780336	0.006282994147
0	4655	13.809483774483	0.004854371266
0	4660	13.814338145749	0.019453983911
0	4666	13.83379212966	0.002483872773
0	4670	13.836276002433	0.034691736018
0	4676	13.870967738451	0.027390733495
0	4681	13.898358471946	0.014365887584
0	4686	13.91272435953	0.020169222416
0	4691	13.932893581946	0.00086262772
0	4695	13.933756209666	0.001634765534
0	4698	13.9353909752	0.031655761972
0	4706	13.967046737172	0.008350389044
0	4711	13.975397126216	0.000272115149
0	4715	13.975669241365	0.016964239625
0	4721	13.99263348099	0.017009204738
0	4726	14.009642685728	0.008658030394
0	4731	14.018300716122	0.034545681725
0	4737	14.052846397847	0.029617142941
0	4742	14.082463540788	0.011266893041
0	4747	14.093730433829	0.019672844933
0	4752	14.113403278762	0.018314474824
0	4757	14.131717753586	0.002471259604
0	4761	14.13418901319	0.002894883699
0	4764	14.137083896889	0.003017930477
0	4769	14.140101827366	0.004219488982
0	4772	14.144321316348	0.018547109011
0	4779	14.162868425359	0.001033339391
0	4782	14.16390176475	0.016630954614
0	4791	14.180532719364	0.002597499043
0	4794	14.183130218407	0.008644731251
0	4799	14.191774949658	0.001886204854
0	4802	14.193661154512	0.010309490556
0	4807	14.203970645068	0.005150933255
0	4812	14.209121578323	0.042066240546
0	4822	14.251187818869	0.020828859796
0	4827	14.272016678665	0.058040922903
0	4832	14.330057601568	0.017747093303
0	4837	14.347804694871	0.016166956599
0	4842	14.36397165147	0.021570285054
0	4847	14.385541936524	0.007764863001
0	4851	14.393306799525	0.016167326162
0	4857	14.409474125687	0.019853042924
0	4862	14.429327168611	0.023715249508
0	4867	14.453042418119	0.010084356888
0	4872	14.463126775007	0.002419377202
0	4876	14.465546152209	0.020903162124
0	4882	14.486449314333	0.012122095608
0	4887	14.498571409941	0.002557221513
0	4891	14.501128631454	0.000325400413
0	4894	14.501454031867	0.004953604083
0	4897	14.50640763595	0.010149186477
0	4904	14.516556822427	0.003856723861
0	4907	14.520413546288	0.027812521042
0	4917	14.54822606733	0.055936474347
0	4922	14.604162541677	0.009588043948
0	4927	14.613750585625	0.015741832507
0	4932	14.629492418132	0.005255834911
0	4936	14.634748253043	0.003755324669
0	4941	14.638503577712	0.004816618178
0	4944	14.64332019589	0.004127008718
0	4949	14.647447204608	0.007501783379
0	4954	14.654948987987	0.01392992509
0	4959	14.668878913077	0.036770278834
0	4967	14.705649191911	0.030839460552
0	4972	14.736488652463	0.054916668768
0	4977	14.791405321231	0.001777738562
0	4981	14.793183059793	0.020697710222
0	4987	14.813880770015	0.034492433255
0	4992	14.84837320327	0.065742491153
0	4997	14.914115694423	0.007831400258
0	5001	14.921947094681	0.021547301912
0	5007	14.943494396593	0.002718351195
0	5011	14.946212747788	0.005016159339
0	5015	14.951228907127	0.0019915794
0	5020	14.953220486527	0.019264145969
0	5027	14.972484632496	0.004717563356
0	5032	14.977202195852	0.018534017149
0	5038	14.995736213001	0.016128384951
0	5043	15.011864597952	0.017003882483
0	5048	15.028868480435	0.010215392586
0	5053	15.039083873021	0.010038181959
0	5058	15.04912205498	0.01726494576
0	5063	15.06638700074	0.002317073247
0	5067	15.068704073987	0.001644648365
0	5070	15.070348722352	0.048148208486
0	5078	15.118496930838	0.03757662216
0	5083	15.156073552998	0.003729290662
0	5087	15.15980284366	0.007734194075
0	5092	15.167537037735	0.058225567091
0	5098	15.225762604826	0.013900779263
0	5103	15.239663384089	0.002044578527
0	5107	15.241707962616	0.000114699799
0	5110	15.241822662415	0.058934205082
0	5118	15.300756867497	0.010062322095
0	5123	15.310819189592	0.00707686549
0	5127	15.317896055082	0.043240467294
0	5133	15.361136522376	0.02498509407
0	5138	15.386121616446	0.009429115718
0	5143	15.395550732164	0.000109782678
0	5147	15.395660514842	0.002123669057
0	5150	15.397784183899	0.008831828894
0	5155	15.406616012793	0.005759197029
0	5160	15.412375209822	0.004294081535
0	5163	15.416669291357	0.002217117546
0	5166	15.418886408903	0.017788319732
0	5175	15.436674728635	0.016658379574
0	5183	15.453333108209	0.009296171757
0	5188	15.462629279966	0.000701873723
0	5191	15.463331153689	0.018395110063
0	5198	15.481726263752	0.000327592027
0	5201	15.482053855779	0.05743013798
0	5209	15.539483993759	0.003853973785
0	5213	15.543337967544	0.001468287512
0	5216	15.544806255056	0.003447648389
0	5221	15.548253903445	0.012406216156
0	5226	15.560660119601	6.3955696e-005
0	5229	15.560724075297	0.016903373271
0	5236	15.577627448568	0.006296449538
0	5241	15.583923898106	0.015044837891
0	5248	15.598968735997	0.002643544712
0	5251	15.601612280709	0.004562300804
0	5256	15.606174581513	0.024885481691
0	5264	15.631060063204	0.03118607913
0	5269	15.662246142334	0.008236663495
0	5274	15.670482805829	0.004226119585
0	5278	15.674708925414	0.004055244467
0	5283	15.678764169881	0.027961230852
0	5289	15.706725400733	0.038529679918
0	5294	15.745255080651	0.009543809416
0	5299	15.754798890067	0.005151606458
0	5303	15.759950496525	0.002316379824
0	5306	15.762266876349	0.05500023161
0	5314	15.817267107959	0.026070119544
0	5319	15.843337227503	0.002214959024
0	5323	15.845552186527	0.001221116938
0	5326	15.846773303465	0.025973152601
0	5334	15.872746456066	0.023770420523
0	5339	15.896516876589	0.022766308921
0	5344	15.91928318551	0.013744819147
0	5349	15.933028004657	0.014764530731
0	5354	15.947792535388	0.031392096658
0	5359	15.979184632046	0.009258762307
0	5364	15.988443394353	0.024383853676
0	5369	16.012827248029	0.00766919901
0	5373	16.020496447039	0.007711734144
0	5378	16.028208181183	0.050165771348
0	5384	16.078373952531	0.002178719085
0	5388	16.080552671616	0.015272926233
0	5394	16.095825597849	0.004642607583
0	5398	16.100468205432	0.036610103489
0	5404	16.137078308921	1.98511e-005
0	5408	16.137098160021	0.011746001833
0	5413	16.148844161854	0.015893899129
0	5419	16.164738060983	0.008081126492
0	5423	16.172819187475	0.001340870572
0	5428	16.174160058047	0.003644305737
0	5431	16.177804363784	0.002963755918
0	5434	16.180768119702	0.009179811692
0	5441	16.189947931394	0.004215096474
0	5444	16.194163027868	0.043632535875
0	5454	16.237795563743	0.007815727606
0	5458	16.245611291349	0.011087887557
0	5464	16.256699178906	0.017413697115
0	5469	16.274112876021	0.013955212597
0	5474	16.288068088618	0.008817424249
0	5479	16.296885512867	0.016738201213
0	5484	16.31362371408	0.010510753292
0	5489	16.324134467372	0.022920658091
0	5494	16.347055125463	0.001467629393
0	5498	16.348522754856	0.022872724743
0	5505	16.371395479599	0.003472712482
0	5509	16.374868192081	0.011219126703
0	5514	16.386087318784	0.020156430351
0	5520	16.406243749135	0.008977651806
0	5525	16.415221400941	0.000267154209
0	5529	16.41548855515	0.026998348778
0	5535	16.442486903928	0.014387814618
0	5540	16.456874718546	0.041434694003
0	5545	16.498309412549	0.017954308642
0	5550	16.516263721191	0.012461473395
0	5555	16.528725194586	0.010537149146
0	5560	16.539262343732	0.003519381273
0	5564	16.542781725005	0.000682454567
0	5567	16.543464179572	0.00133252297
0	5570	16.544796702542	0.004337097736
0	5575	16.549133800278	0.029085925468
0	5584	16.578219725746	0.004073698551
0	5589	16.582293424297	0.0155766989
0	5595	16.597870123197	0.004674851384
0	5599	16.602544974581	0.030541784773
0	5605	16.633086759354	0.004581376695
0	5609	16.637668136049	0.048487486696
0	5615	16.686155622745	0.05402153785
0	5620	16.740177160595	0.014087800399
0	5625	16.754264960994	0.023492892728
0	5630	16.777757853722	0.018773065374
0	5635	16.796530919096	0.033233831565
0	5640	16.829764750661	0.004290132957
0	5644	16.834054883618	0.018750402804
0	5650	16.852805286422	0.010100511139
0	5656	16.862905797561	0.042671824637
0	5661	16.905577622198	0.009197736374
0	5666	16.914775358572	0.009937964601
0	5671	16.924713323173	0.010102364724
0	5676	16.934815687897	0.003076514654
0	5680	16.937892202551	0.005736451965
0	5685	16.943628654516	0.019612204427
0	5691	16.963240858943	0.027035180526
0	5696	16.990276039469	0.004502497128
0	5700	16.994778536597	0.017916725384
0	5706	17.012695261981	0.025955908725
0	5711	17.038651170706	0.016916607234
0	5716	17.05556777794	0.020233759663
0	5721	17.075801537603	0.016838947157
0	5726	17.09264048476	0.005141587257
0	5730	17.097782072017	0.001060978164
0	5733	17.098843050181	0.009232874663
0	5738	17.108075924844	0.020057439349
0	5746	17.128133364193	0.018834114315
0	5751	17.146967478508	0.025596032221
0	5756	17.172563510729	0.016540003288
0	5761	17.189103514017	0.0371364812
0	5766	17.226239995217	0.011216536489
0	5771	17.237456531706	0.001208433771
0	5775	17.238664965477	0.003614705058
0	5778	17.242279670535	0.010673157618
0	5783	17.252952828153	0.005882156004
0	5788	17.258834984157	0.002348999692
0	5791	17.261183983849	0.017801479969
0	5800	17.278985463818	0.00391825858
0	5803	17.282903722398	0.009159222083
0	5808	17.292062944481	0.001456374555
0	5811	17.293519319036	0.018980286019
0	5820	17.312499605055	0.011561016696
0	5825	17.324060621751	0.017285704032
0	5831	17.341346325783	0.033543868342
0	5836	17.374890194125	0.006592737257
0	5840	17.381482931382	0.002489235563
0	5845	17.383972166945	0.001565384569
0	5848	17.385537551514	0.010465461195
0	5853	17.396003012709	0.017128420743
0	5860	17.413131433452	0.014600536218
0	5866	17.42773196967	0.006591146751
0	5870	17.434323116421	0.044830027285
0	5876	17.479153143706	0.012484925228
0	5881	17.491638068934	0.014589037118
0	5886	17.506227106052	0.002002888236
0	5890	17.508229994288	0.013968543959
0	5895	17.522198538247	0.002367734435
0	5900	17.524566272682	0.002492783663
0	5903	17.527059056345	0.008270523075
0	5908	17.53532957942	0.007315462685
0	5913	17.542645042105	0.016601731231
0	5920	17.559246773336	0.008573695018
0	5925	17.567820468354	0.001874346993
0	5928	17.569694815347	0.008682610769
0	5933	17.578377426116	0.022338013956
0	5941	17.600715440072	0.010730383386
0	5946	17.611445823458	0.028593831737
0	5951	17.640039655195	0.006829807705
0	5955	17.6468694629	0.016749637409
0	5961	17.663619100309	0.018312070268
0	5966	17.681931170577	0.020770975169
0	5971	17.702702145746	0.023528661105
0	5976	17.726230806851	0.00408658815
0	5980	17.730317395001	0.003829257825
0	5983	17.734146652826	0.001584858594
0	5988	17.73573151142	0.003881225782
0	5991	17.739612737202	0.005987690837
0	5996	17.745600428039	0.057764147543
0	6006	17.803364575582	0.002012261493
0	6010	17.805376837075	0.000412766087
0	6013	17.805789603162	0.008080402689
0	6018	17.813870005851	0.011391735878
0	6023	17.825261741729	0.021477182733
0	6031	17.846738924462	0.000996999625
0	6035	17.847735924087	0.004950434159
0	6038	17.852686358246	0.001698884591
0	6041	17.854385242837	0.029052938165
0	6051	17.883438181002	0.01371807429
0	6056	17.897156255292	0.009049177018
0	6061	17.90620543231	0.003273945835
0	6065	17.909479378145	0.002649361172
0	6068	17.912128739317	0.015137023019
0	6075	17.927265762336	0.015420071341
0	6081	17.942685833677	0.01371110262
0	6086	17.956396936297	0.008657796074
0	6091	17.965054732371	0.049829468398
0	6096	18.014884200769	0.0060123028
0	6100	18.020896503569	0.020927946981
0	6106	18.04182445055	0.010897000194
0	6111	18.052721450744	0.022904293193
0	6116	18.075625743937	0.070779171894
0	6121	18.146404915831	0.00146375988
0	6125	18.147868675711	0.020907828461
0	6131	18.168776504172	0.011843482436
0	6136	18.180619986608	0.005212711462
0	6140	18.18583269807	0.006980913836
0	6145	18.192813611906	0.039350083159
0	6151	18.232163695065	0.00782633727
0	6155	18.239990032335	0.003053160817
0	6160	18.243043193152	0.045668804941
0	6166	18.288711998093	0.007867329824
0	6170	18.296579327917	0.001837577122
0	6175	18.298416905039	0.006992432307
0	6180	18.305409337346	0.015710127516
0	6185	18.321119464862	0.063708965641
0	6191	18.384828430503	0.029753089363
0	6196	18.414581519866	6.7929175e-005
0	6200	18.414649449041	0.001777443967
0	6203	18.416426893008	0.015715890204
0	6210	18.432142783212	0.018447636939
0	6216	18.450590420151	0.010659322772
0	6221	18.461249742923	0.003725770142
0	6225	18.464975513065	0.002542876401
0	6228	18.467518389466	0.005740067917
0	6233	18.473258457383	0.015394854431
0	6240	18.488653311814	0.027463393321
0	6246	18.516116705135	0.024742822863
0	6251	18.540859527998	0.000636488986
0	6255	18.541496016984	0.021849571062
0	6261	18.563345588046	0.02390971614
0	6266	18.587255304186	0.00121205792
0	6270	18.588467362106	0.025977404585
0	6276	18.614444766691	0.023778456613
0	6281	18.638223223304	0.006496476994
0	6285	18.644719700298	0.00636759289
0	6290	18.651087293188	0.014598769811
0	6296	18.665686062999	0.028718750277
0	6301	18.694404813276	0.010629041624
0	6306	18.7050338549	0.012386309529
0	6311	18.717420164429	0.004471353809
0	6315	18.721891518238	0.00124962202
0	6318	18.723141140258	0.022916333006
0	6326	18.746057473264	0.020482714043
0	6331	18.766540187307	0.000274210048
0	6335	18.766814397355	0.012437747387
0	6340	18.779252144742	0.011578919432
0	6345	18.790831064174	0.009006534142
0	6351	18.799837598316	0.048630537343
0	6356	18.848468135659	0.015260673776
0	6361	18.863728809435	0.013499901465
0	6366	18.8772287109	0.008796930993
0	6371	18.886025641893	0.005785474697
0	6375	18.89181111659	0.000564364564
0	6378	18.892375481154	0.00339107382
0	6383	18.895766554974	0.036576842081
0	6391	18.932343397055	0.05009488251
0	6396	18.982438279565	0.005091060641
0	6400	18.987529340206	0.01272477584
0	6406	19.000254116046	0.004913901877
0	6410	19.005168017923	0.000139712203
0	6413	19.005307730126	0.000765044757
0	6416	19.006072774883	0.002897524005
0	6421	19.008970298888	0.018955592654
0	6428	19.027925891542	0.00714675159
0	6433	19.035072643132	0.036028480875
0	6441	19.071101124007	0.008954927624
0	6446	19.080056051631	0.009325080004
0	6451	19.089381131635	0.006703382757
0	6455	19.096084514392	0.025240150585
0	6461	19.121324664977	0.038338278859
0	6466	19.159662943836	0.005980661794
0	6470	19.16564360563	0.005602517785
0	6475	19.171246123415	0.00728553875
0	6480	19.178531662165	0.025694753111
0	6486	19.204226415276	0.005173817051
0	6490	19.209400232327	0.032150689639
0	6496	19.241550921966	0.005242054131
0	6500	19.246792976097	0.008205966999
0	6505	19.254998943096	0.012358720894
0	6511	19.26735766399	9.4046263e-005
0	6515	19.267451710253	0.005916577084
0	6518	19.273368287337	0.006170512048
0	6523	19.279538799385	0.001020908431
0	6526	19.280559707816	0.039859624349
0	6536	19.320419332165	0.017580728114
0	6541	19.338000060279	0.02790552771
0	6546	19.365905587989	0.005536368954
0	6550	19.371441956943	0.012302778191
0	6556	19.383744735134	0.007470743901
0	6560	19.391215479035	0.016156411049
0	6566	19.407371890084	0.003092327421
0	6570	19.410464217505	0.029587797239
0	6576	19.440052014744	0.000759372307
0	6580	19.440811387051	0.006759554543
0	6583	19.447570941594	0.015932022524
0	6590	19.463502964118	0.005837225662
0	6595	19.46934018978	0.008254209165
0	6600	19.477594398945	0.015087531754
0	6606	19.492681930699	0.040410080595
0	6611	19.533092011294	0.0131263809
0	6616	19.546218392194	0.000286585528
0	6620	19.546504977722	0.001309209206
0	6623	19.547814186928	0.026135622082
0	6631	19.57394980901	0.008250551988
0	6636	19.582200360998	0.000280697862
0	6640	19.58248105886	0.001991881297
0	6643	19.584472940157	0.002848663954
0	6646	19.587321604111	0.010077701595
0	6651	19.597399305706	0.000208990446
0	6654	19.597608296152	0.01171984926
0	6661	19.609328145412	0.010681405075
0	6666	19.620009550487	0.006772553278
0	6671	19.626782103765	0.006547480065
0	6676	19.63332958383	0.010108863968
0	6681	19.643438447798	0.005748553224
0	6686	19.649187001022	0.017894852761
0	6693	19.667081853783	0.054972407946
0	6701	19.722054261729	0.002385925442
0	6705	19.724440187171	0.012942940457
0	6710	19.737383127628	0.005566419661
0	6715	19.742949547289	0.039125091808
0	6721	19.782074639097	0.00959494497
0	6726	19.791669584067	0.032967915923
0	6731	19.82463749999	0.015648183887
0	6736	19.840285683877	0.006222896654
0	6740	19.846508580531	0.020048923754
0	6746	19.866557504285	0.015900067559
0	6751	19.882457571844	0.005328819901
0	6755	19.887786391745	0.003254696683
0	6760	19.891041088428	0.009415109171
0	6765	19.900456197599	0.006823727397
0	6770	19.907279924996	0.004536938796
0	6773	19.911816863792	0.017317550827
0	6780	19.929134414619	0.001987199457
0	6783	19.931121614076	0.012618482058
0	6790	19.943740096134	0.003899337246
0	6793	19.94763943338	0.001331677132
0	6798	19.948971110512	0.05101102772
0	6806	19.999982138232	0.001220417093
0	6810	20.001202555325	0.025648629756
0	6816	20.026851185081	0.022110626794
0	6821	20.048961811875	0.014731250124
0	6826	20.063693061999	0.018112762833
0	6831	20.081805824832	0.004761788576
0	6835	20.086567613408	0.015686418305
0	6841	20.102254031713	0.023102127408
0	6846	20.125356159121	0.003742705345
0	6850	20.129098864466	0.051657814795
0	6856	20.180756679261	0.02297454346
0	6861	20.203731222721	0.00229584028
0	6865	20.206027063001	0.012903653342
0	6870	20.218930716343	0.001397192105
0	6875	20.220327908448	0.002386922259
0	6878	20.222714830707	0.00266908806
0	6881	20.225383918767	0.002725940559
0	6884	20.228109859326	0.033990676108
0	6896	20.262100535434	0.014545459486
0	6901	20.27664599492	0.004556608123
0	6905	20.281202603043	0.057438183675
0	6911	20.338640786718	0.011779963891
0	6916	20.350420750609	0.013230931683
0	6921	20.363651682292	0.05354844074
0	6926	20.417200123032	0.005246918957
0	6930	20.422447041989	0.041659274668
0	6936	20.464106316657	0.018887149155
0	6941	20.482993465812	0.01215353007
0	6946	20.495146995882	0.003407534841
0	6950	20.498554530723	0.010507205514
0	6955	20.509061736237	0.015381918922
0	6961	20.524443655159	0.006215353833
0	6965	20.530659008992	0.008014079717
0	6970	20.538673088709	0.000337828026
0	6973	20.539010916735	0.000469299741
0	6976	20.539480216476	0.00996511396
0	6983	20.549445330436	0.01089743088
0	6988	20.560342761316	0.004358887889
0	6991	20.564701649205	0.010624236325
0	6998	20.57532588553	9.2742809e-005
0	7001	20.575418628339	0.036443273513
0	7011	20.611861901852	0.000749644668
0	7015	20.61261154652	0.018613114647
0	7021	20.631224661167	0.035228316565
0	7026	20.666452977732	0.005432457568
0	7030	20.6718854353	0.002412381031
0	7033	20.674297816331	0.01554100516
0	7040	20.689838821491	0.003237674378
0	7045	20.693076495869	0.004315267944
0	7048	20.697391763813	0.010675048252
0	7056	20.708066812065	0.01379851151
0	7061	20.721865323575	0.002396111622
0	7066	20.724261435197	0.014297661662
0	7071	20.738559096859	0.006429191326
0	7076	20.744988288185	0.002635421761
0	7079	20.747623709946	0.063100724726
0	7087	20.810724434672	0.018603554066
0	7092	20.829327988738	0.023318548921
0	7097	20.852646537659	0.011573881762
0	7102	20.864220419421	0.00351830525
0	7106	20.867738724671	0.020339674235
0	7112	20.888078398906	0.048806065177
0	7117	20.936884464083	0.000685485211
0	7121	20.937569949294	0.000498564695
0	7124	20.938068513989	0.019808368703
0	7131	20.957876882692	0.00638353544
0	7136	20.964260418132	0.045014700836
0	7144	21.009275118968	0.012820938479
0	7149	21.022096057447	0.038610654623
0	7154	21.06070671207	0.035741463251
0	7159	21.096448175321	0.012168815159
0	7164	21.10861699048	0.019565260835
0	7170	21.128182251315	0.014598490456
0	7175	21.142780741771	0.031200439035
0	7180	21.173981180806	0.029373556306
0	7185	21.203354737112	0.001013409197
0	7189	21.204368146309	0.001719362376
0	7192	21.206087508685	0.021133756358
0	7199	21.227221265043	0.012303221228
0	7205	21.239524486271	0.009616425632
0	7210	21.249140911903	0.015025144365
0	7215	21.264166056268	0.002292993734
0	7219	21.266459050002	0.039079215861
0	7225	21.305538265863	0.010315317511
0	7230	21.315853583374	0.00058404223
0	7234	21.316437625604	0.028131271896
0	7240	21.3445688975	0.010621842863
0	7245	21.355190740363	0.018876413927
0	7250	21.37406715429	0.019786502495
0	7255	21.393853656785	0.008627959683
0	7260	21.402481616468	0.016168589812
0	7265	21.41865020628	0.019854924406
0	7270	21.438505130686	0.02964470009
0	7275	21.468149830776	0.004234441196
0	7279	21.472384271972	0.016025741145
0	7285	21.488410013117	0.001816032592
0	7289	21.490226045709	0.01497998843
0	7295	21.505206034139	0.000882683403
0	7299	21.506088717542	0.014120398601
0	7304	21.520209116143	0.003461595613
0	7309	21.523670711756	0.002699243368
0	7312	21.526369955124	0.044917288176
0	7320	21.5712872433	0.028932303358
0	7325	21.600219546658	0.020556306973
0	7330	21.620775853631	0.010880638888
0	7335	21.631656492519	0.026275849315
0	7340	21.657932341834	0.000323734944
0	7344	21.658256076778	0.022015832921
0	7350	21.680271909699	0.025760817965
0	7355	21.706032727664	0.003031623873
0	7359	21.709064351537	0.017497335549
0	7366	21.726561687086	0.020274815948
0	7371	21.746836503034	0.000797254528
0	7375	21.747633757562	0.013205678708
0	7380	21.76083943627	0.018334442495
0	7386	21.779173878765	0.006225892704
0	7390	21.785399771469	0.006187665699
0	7395	21.791587437168	0.011009354077
0	7400	21.802596791245	0.025268554359
0	7406	21.827865345604	0.024552122242
0	7411	21.852417467846	0.002545025703
0	7415	21.854962493549	0.005712448084
0	7420	21.860674941633	0.006129309854
0	7423	21.866804251487	0.012641287925
0	7430	21.879445539412	0.001632259136
0	7433	21.881077798548	0.0142774108
0	7440	21.895355209348	0.000277900157
0	7443	21.895633109505	0.002853056658
0	7446	21.898486166163	0.005863812348
0	7451	21.904349978511	0.003990368398
0	7454	21.908340346909	0.018028599234
0	7463	21.926368946143	0.024928256974
0	7471	21.951297203117	0.008165201639
0	7475	21.959462404756	0.021214537843
0	7481	21.980676942599	0.005306112946
0	7485	21.985983055545	0.002291799343
0	7488	21.988274854888	0.041292399049
0	7496	22.029567253937	0.013268137534
0	7501	22.042835391471	0.019457806581
0	7506	22.062293198052	0.006639228859
0	7510	22.068932426911	0.053434039423
0	7516	22.122366466334	0.00307545721
0	7520	22.125441923544	0.00541338484
0	7525	22.130855308384	0.020025843022
0	7531	22.150881151406	0.00323552894
0	7535	22.154116680346	0.032648487886
0	7541	22.186765168232	0.051798397068
0	7546	22.2385635653	0.00995881319
0	7551	22.24852237849	0.001241764337
0	7555	22.249764142827	0.007455105155
0	7560	22.257219247982	0.023091155879
0	7566	22.280310403861	0.003454575483
0	7570	22.283764979344	0.044142236297
0	7577	22.327907215641	0.00813001279
0	7581	22.336037228431	0.012815350242
0	7587	22.348852578673	0.006647930912
0	7591	22.355500509585	0.0069056354
0	7596	22.362406144985	0.002435007836
0	7599	22.364841152821	0.005254538479
0	7604	22.3700956913	0.017510002091
0	7611	22.387605693391	0.00104179547
0	7614	22.388647488861	0.012644103312
0	7621	22.401291592173	0.00714332439
0	7626	22.408434916563	0.009696276299
0	7631	22.418131192862	0.010485167934
0	7636	22.428616360796	0.010504588411
0	7642	22.439120949207	0.004291368397
0	7646	22.443412317604	0.03407538837
0	7652	22.477487705974	0.052407771167
0	7657	22.529895477141	0.007496230043
0	7661	22.537391707184	0.098007764945
0	7667	22.635399472129	0.049188506078
0	7672	22.684587978207	0.005126395843
0	7676	22.68971437405	0.016174268766
0	7682	22.705888642816	0.01375381605
0	7687	22.719642458866	0.003502003954
0	7691	22.72314446282	0.032156313665
0	7697	22.755300776485	0.021879012088
0	7702	22.777179788573	0.013145585428
0	7707	22.790325374001	0.009425878272
0	7712	22.799751252273	0.006504846664
0	7716	22.806256098937	0.007367090829
0	7721	22.813623189766	0.028049384497
0	7727	22.841672574263	0.008704591847
0	7732	22.85037716611	0.011284780199
0	7737	22.861661946309	0.009269362247
0	7742	22.870931308556	0.01448505549
0	7747	22.885416364046	0.040534879851
0	7752	22.925951243897	0.021216756733
0	7757	22.94716800063	0.009258923598
0	7762	22.956426924228	0.005101054647
0	7766	22.961527978875	0.004511533132
0	7771	22.966039512007	0.017384637903
0	7777	22.98342414991	0.032574698364
0	7783	23.015998848274	0.015853075512
0	7788	23.031851923786	0.013528264123
0	7793	23.045380187909	0.004447992007
0	7797	23.049828179916	0.009288454438
0	7802	23.059116634354	0.023862234207
0	7808	23.082978868561	0.0178215086
0	7813	23.100800377161	0.006400085993
0	7817	23.107200463154	0.034427678117
0	7824	23.141628141271	0.002856172706
0	7828	23.144484313977	0.022308800132
0	7834	23.166793114109	0.018793619658
0	7839	23.185586733767	0.014148516241
0	7844	23.199735250008	0.028962654611
0	7849	23.228697904619	0.012158274412
0	7854	23.240856179031	0.030749075192
0	7859	23.271605254223	0.029597873871
0	7865	23.301203128094	0.011956334406
0	7870	23.3131594625	0.014138777076
0	7875	23.327298239576	0.005226582261
0	7879	23.332524821837	0.000368884207
0	7882	23.332893706044	0.029134743915
0	7890	23.362028449959	0.015451621057
0	7895	23.377480071016	0.021550063212
0	7900	23.399030134228	0.014149691385
0	7905	23.413179825613	0.01080359597
0	7910	23.423983421583	0.002501302024
0	7914	23.426484723607	0.010486946383
0	7919	23.43697166999	0.024325983558
0	7925	23.461297653548	0.037784941758
0	7930	23.499082595306	0.007413917782
0	7934	23.506496513088	0.01234506449
0	7941	23.518841577578	0.004007563061
0	7945	23.522849140639	0.001717268623
0	7948	23.524566409262	0.003179093112
0	7953	23.527745502374	0.021826084628
0	7960	23.549571587002	0.02747716897
0	7966	23.577048755972	0.011192879715
0	7971	23.588241635687	0.013734334417
0	7976	23.601975970104	0.012191170796
0	7981	23.6141671409	0.007895973426
0	7985	23.622063114326	0.008508868286
0	7991	23.630571982612	0.005487805373
0	7995	23.636059787985	0.000344399418
0	7998	23.636404187403	0.006124232411
0	8003	23.642528419814	0.024386342583
0	8011	23.666914762397	0.001480744625
0	8015	23.668395507022	0.007207882893
0	8020	23.675603389915	0.00040180493
0	8023	23.676005194845	0.009359737737
0	8028	23.685364932582	0.021702777331
0	8035	23.707067709913	0.008716304885
0	8040	23.715784014798	0.020174449915
0	8046	23.735958464713	0.002152930882
0	8050	23.738111395595	0.007903165192
0	8055	23.746014560787	0.049540747171
0	8061	23.795555307958	0.000165985041
0	8065	23.795721292999	0.048064852216
0	8071	23.843786145215	0.018720566654
0	8076	23.862506711869	0.000147344171
0	8080	23.86265405604	0.038921189704
0	8086	23.901575245744	0.0008416807
0	8090	23.902416926444	0.036403130431
0	8096	23.938820056875	0.007320723257
0	8100	23.946140780132	0.001849520033
0	8105	23.947990300165	0.060080156391
0	8111	24.008070456556	0.005952453182
0	8115	24.014022909738	0.009860842186
0	8120	24.023883751924	0.004575074311
0	8125	24.028458826235	0.038393683936
0	8131	24.066852510171	0.01704049652
0	8136	24.083893006691	0.006271351095
0	8140	24.090164357786	0.01034563495
0	8146	24.100509992736	0.010257839038
0	8151	24.110767831774	0.015507023779
0	8156	24.126274855553	0.026474606736
0	8161	24.152749462289	0.036239385926
0	8166	24.188988848215	0.016121318233
0	8171	24.205110166448	0.011789304421
0	8176	24.216899470869	0.005491209361
0	8180	24.22239068023	0.003504113581
0	8185	24.225894793811	0.009149932124
0	8190	24.235044725935	0.018287131926
0	8196	24.253331857861	0.014676934815
0	8201	24.268008792676	0.007353511679
0	8205	24.275362304355	0.007684519071
0	8210	24.283046823426	0.018561037708
0	8216	24.301607861134	0.003314346935
0	8220	24.304922208069	0.003008290382
0	8223	24.307930498451	0.003818624842
0	8228	24.311749123293	0.009118796023
0	8233	24.320867919316	0.020240363764
0	8240	24.34110828308	0.003339513883
0	8245	24.344447796963	0.003544261261
0	8248	24.347992058224	0.011991900475
0	8255	24.359983958699	0.003077443183
0	8258	24.363061401882	0.046293427404
0	8266	24.409354829286	0.005079395939
0	8270	24.414434225225	0.00267041816
0	8273	24.417104643385	0.067714092866
0	8281	24.484818736251	0.005666302072
0	8285	24.490485038323	0.071406145036
0	8291	24.561891183359	0.00447744359
0	8295	24.566368626949	0.009803711671
0	8300	24.57617233862	0.008155749845
0	8305	24.584328088465	0.00368872656
0	8310	24.588016815025	0.012286967325
0	8315	24.60030378235	0.008788769278
0	8320	24.609092551628	0.013909135126
0	8326	24.623001686754	0.03217509193
0	8331	24.655176778684	0.017296190062
0	8336	24.672472968746	0.013000251983
0	8341	24.685473220729	0.00615985872
0	8345	24.691633079449	0.034628081892
0	8351	24.726261161341	0.015381926976
0	8356	24.741643088317	0.03184568054
0	8361	24.773488768857	0.008570838567
0	8366	24.782059607424	0.025243563527
0	8371	24.807303170951	0.000413530995
0	8375	24.807716701946	0.032304133116
0	8381	24.840020835062	0.017694487296
0	8386	24.857715322358	0.0107888446
0	8391	24.868504166958	0.017830510399
0	8396	24.886334677357	0.002773480975
0	8400	24.889108158332	0.005673645046
0	8405	24.894781803378	0.022676606335
0	8411	24.917458409713	0.025279535228
0	8416	24.942737944941	0.0731244918
0	8421	25.015862436741	0.004469170698
0	8425	25.020331607439	0.016283599396
0	8431	25.036615206835	0.012723045904
0	8436	25.049338252739	0.004258227675
0	8440	25.053596480414	0.007905930109
0	8445	25.061502410523	0.039492235441
0	8451	25.100994645964	0.013160935568
0	8456	25.114155581532	0.03859945711
0	8461	25.152755038642	0.014489269429
0	8466	25.167244308071	0.038672817538
0	8471	25.205917125609	0.00188723156
0	8475	25.207804357169	0.016314310553
0	8481	25.224118667722	0.000630507911
0	8485	25.224749175633	0.041785687485
0	8491	25.266534863118	0.019311674317
0	8496	25.285846537435	0.00397449191
0	8500	25.289821029345	0.003571108771
0	8503	25.293392138116	0.012834736751
0	8510	25.306226874867	0.000817060949
0	8513	25.307043935816	0.075313943064
0	8521	25.38235787888	0.029287980134
0	8526	25.411645859014	0.079105624144
0	8531	25.490751483158	0.003196698994
0	8535	25.493948182152	0.024216348779
0	8541	25.518164530931	0.030508713955
0	8546	25.548673244886	0.013263803575
0	8551	25.561937048461	0.003470074583
0	8555	25.565407123044	0.014819793667
0	8561	25.580226916711	0.001176947702
0	8565	25.581403864413	0.007471654716
0	8570	25.588875519129	0.000338892051
0	8573	25.58921441118	0.003779262775
0	8576	25.592993673955	0.02658292671
0	8585	25.619576600665	0.034023393643
0	8591	25.653599994308	0.020087632147
0	8596	25.673687626455	0.013195061697
0	8601	25.686882688152	0.035148551993
0	8606	25.722031240145	0.006667109732
0	8610	25.728698349877	0.017399552369
0	8616	25.746097902246	0.005946897584
0	8620	25.75204479983	0.004076135456
0	8625	25.756120935286	0.002839355593
0	8628	25.758960290879	0.001372524721
0	8631	25.7603328156	0.003069379513
0	8636	25.763402195113	0.023144907653
0	8643	25.786547102766	0.016523302569
0	8651	25.803070405335	0.002468240104
0	8655	25.805538645439	0.005060338367
0	8658	25.810598983806	0.03289150323
0	8666	25.843490487036	0.005715904008
0	8670	25.849206391044	0.012543225298
0	8676	25.861749616342	0.027973554434
0	8681	25.889723170776	0.00522735629
0	8685	25.894950527066	0.00147376944
0	8688	25.896424296506	0.021056110856
0	8696	25.917480407362	0.04467900736
0	8701	25.962159414722	0.022410554945
0	8706	25.984569969667	0.008042574996
0	8710	25.992612544663	0.032205585714
0	8716	26.024818130377	0.026355948673
0	8721	26.05117407905	0.002115469421
0	8725	26.053289548471	0.026051849227
0	8731	26.079341397698	0.014545813039
0	8736	26.093887210737	0.017210034868
0	8741	26.111097245605	0.008098515669
0	8745	26.119195761274	0.000813525156
0	8750	26.12000928643	0.018925407914
0	8756	26.138934694344	0.015950431527
0	8761	26.154885125871	0.009176446764
0	8766	26.164061572635	0.008874050502
0	8771	26.172935623137	0.032072590949
0	8776	26.205008214086	0.005575545236
0	8780	26.210583759322	0.038958118881
0	8786	26.249541878203	0.010974613039
0	8791	26.260516491242	0.000636508871
0	8795	26.261153000113	0.016385138611
0	8801	26.277538138724	0.00259265229
0	8805	26.280130791014	0.007417011458
0	8810	26.287547802472	0.014475197533
0	8816	26.302023000005	0.007885109241
0	8820	26.309908109246	0.0045296163
0	8825	26.314437725546	0.003638862626
0	8828	26.318076588172	0.014748393595
0	8835	26.332824981767	0.002731417351
0	8840	26.335556399118	0.008642688466
0	8845	26.344199087584	0.014622987947
0	8850	26.358822075531	0.008190449321
0	8856	26.367012524852	0.055168904984
0	8861	26.422181429836	0.0003645478
0	8865	26.422545977636	0.001548766611
0	8868	26.424094744247	0.059329995589
0	8876	26.483424739836	0.016047831256
0	8881	26.499472571092	0.00018341876
0	8885	26.499655989852	0.01373289932
0	8890	26.513388889172	0.00480420348
0	8895	26.518193092652	0.020653869569
0	8901	26.538846962221	0.002984457066
0	8905	26.541831419287	0.005765990157
0	8910	26.547597409444	0.010985227248
0	8915	26.558582636692	0.004549520607
0	8918	26.563132157299	5.933137e-006
0	8921	26.563138090436	0.005076567806
0	8926	26.568214658242	0.00364056718
0	8931	26.571855225422	0.02728531753
0	8940	26.599140542952	0.008670837653
0	8945	26.607811380605	0.028339694523
0	8951	26.636151075128	0.044288471191
0	8956	26.680439546319	0.025130923514
0	8961	26.705570469833	0.016802545676
0	8966	26.722373015509	0.004898538549
0	8970	26.727271554058	0.001871125461
0	8973	26.729142679519	0.007118386766
0	8978	26.736261066285	0.025874596712
0	8986	26.762135662997	0.005142680115
0	8990	26.767278343112	0.020794826778
0	8996	26.78807316989	0.017393087339
0	9001	26.805466257229	0.013743324508
0	9006	26.819209581737	0.004020378927
0	9010	26.823229960664	0.018081559646
0	9017	26.84131152031	0.023621558807
0	9022	26.864933079117	0.014015692891
0	9027	26.878948772008	0.011432796985
0	9032	26.890381568993	0.009606786579
0	9038	26.899988355572	0.004567853669
0	9042	26.904556209241	0.039567572857
0	9048	26.944123782098	0.012562623071
0	9053	26.956686405169	0.005786916506
0	9057	26.962473321675	0.0199286787
0	9063	26.982402000375	0.000336611346
0	9067	26.982738611721	0.003362850289
0	9070	26.98610146201	0.000978976555
0	9073	26.987080438565	0.015670830181
0	9080	27.002751268746	0.007413565638
0	9085	27.010164834384	0.03588759985
0	9093	27.046052434234	0.047661642605
0	9098	27.093714076839	0.019764213013
0	9103	27.113478289852	0.00469981613
0	9107	27.118178105982	0.032894788346
0	9113	27.151072894328	0.002233230008
0	9117	27.153306124336	0.047830922153
0	9123	27.201137046489	0.011184136015
0	9128	27.212321182504	0.004813049976
0	9132	27.21713423248	0.002223872721
0	9135	27.219358105201	0.003498668569
0	9140	27.22285677377	0.013095427626
0	9145	27.235952201396	0.03463173991
0	9153	27.270583941306	0.004355785301
0	9157	27.274939726607	0.007402630646
0	9162	27.282342357253	0.013600935671
0	9168	27.295943292924	0.001712868857
0	9172	27.297656161781	0.009980915963
0	9177	27.307637077744	0.014651948815
0	9183	27.322289026559	0.012665142138
0	9188	27.334954168697	0.009766662094
0	9193	27.344720830791	0.012146826968
0	9198	27.356867657759	0.003198556698
0	9202	27.360066214457	0.041685645349
0	9208	27.401751859806	0.037186206288
0	9213	27.438938066094	0.003865645649
0	9217	27.442803711743	0.009803534505
0	9222	27.452607246248	0.017358006695
0	9228	27.469965252943	0.070955794057
0	9233	27.540921047	0.006674792348
0	9237	27.547595839348	0.00495473333
0	9242	27.552550572678	0.002897986185
0	9245	27.555448558863	0.000922240973
0	9248	27.556370799836	0.005967450113
0	9253	27.562338249949	0.035731352066
0	9263	27.598069602015	0.002458708937
0	9267	27.600528310952	0.005269826414
0	9270	27.605798137366	0.003620375138
0	9275	27.609418512504	0.03861662468
0	9283	27.648035137184	0.0115811738
0	9288	27.659616310984	0.009942603226
0	9293	27.66955891421	0.002753672958
0	9297	27.672312587168	0.017730369135
0	9303	27.690042956303	0.053110300713
0	9308	27.743153257016	0.001853486415
0	9312	27.745006743431	0.032167761417
0	9318	27.777174504848	0.004610235479
0	9322	27.781784740327	0.006823820425
0	9327	27.788608560752	0.017039241641
0	9333	27.805647802393	0.003153016368
0	9337	27.808800818761	0.045635048604
0	9343	27.854435867365	0.005505760233
0	9347	27.859941627598	0.025722171327
0	9353	27.885663798925	0.02049728269
0	9358	27.906161081615	0.035233466341
0	9363	27.941394547956	0.003981071194
0	9367	27.94537561915	0.022354254296
0	9373	27.967729873446	0.018518315429
0	9378	27.986248188875	0.053645222522
0	9383	28.039893411397	0.003307060815
0	9387	28.043200472212	0.00407848932
0	9390	28.047278961532	0.023970982842
0	9398	28.071249944374	0.001958065773
0	9402	28.073208010147	0.000537323734
0	9405	28.073745333881	0.004126824566
0	9408	28.077872158447	0.012885495712
0	9415	28.090757654159	0.013015433314
0	9422	28.103773087473	0.004368738942
0	9425	28.108141826415	0.006947164302
0	9430	28.115088990717	0.001159791405
0	9433	28.116248782122	0.000536978631
0	9436	28.116785760753	0.028324061301
0	9447	28.145109822054	0.001997722066
0	9450	28.14710754412	0.002150008847
0	9453	28.149257552967	0.004952281863
0	9458	28.15420983483	0.018629371041
0	9466	28.172839205871	0.005731085203
0	9471	28.178570291074	0.016015038946
0	9478	28.19458533002	0.012503756989
0	9483	28.207089087009	0.037467458445
0	9489	28.244556545454	0.015982045339
0	9494	28.260538590793	0.001010518929
0	9498	28.261549109722	0.027947023801
0	9504	28.289496133523	0.00337929267
0	9508	28.292875426193	0.007168077845
0	9513	28.300043504038	0.022178891262
0	9519	28.3222223953	0.041708111789
0	9524	28.363930507089	0.011521837782
0	9529	28.375452344871	0.007196374476
0	9533	28.382648719347	0.071992096248
0	9539	28.454640815595	0.008257673288
0	9544	28.462898488883	0.00678206489
0	9548	28.469680553773	0.008023231239
0	9553	28.477703785012	0.008673282078
0	9558	28.48637706709	0.021700965178
0	9564	28.508078032268	0.010424323393
0	9569	28.518502355661	0.020079195991
0	9574	28.538581551652	0.002135454513
0	9578	28.540717006165	0.008231689777
0	9583	28.548948695942	0.005967440885
0	9588	28.554916136827	0.00629285021
0	9591	28.561208987037	0.011019260416
0	9598	28.572228247453	0.001290896422
0	9601	28.573519143875	0.006469987542
0	9606	28.579989131417	0.004391500011
0	9609	28.584380631428	0.038993616883
0	9619	28.623374248311	0.001177951304
0	9623	28.624552199615	0.004325684363
0	9626	28.628877883978	0.006065385419
0	9631	28.634943269397	0.010739134867
0	9636	28.645682404264	0.003149548865
0	9641	28.648831953129	0.025766578635
0	9649	28.674598531764	0.015568679068
0	9654	28.690167210832	0.020047654279
0	9659	28.710214865111	0.020572134133
0	9664	28.730786999244	0.006949642054
0	9668	28.737736641298	0.010056483075
0	9674	28.747793124373	0.01418622533
0	9679	28.761979349703	0.009882291603
0	9684	28.771861641306	0.019118384544
0	9689	28.79098002585	0.006336712983
0	9693	28.797316738833	0.006368546312
0	9698	28.803685285145	0.047960424063
0	9704	28.851645709208	0.001905346014
0	9708	28.853551055222	0.075234920101
0	9714	28.928785975323	0.009795680316
0	9719	28.938581655639	0.015421252168
0	9724	28.954002907807	0.010946387471
0	9729	28.964949295278	0.02808249095
0	9734	28.993031786228	0.006045414678
0	9738	28.999077200906	0.007065660231
0	9743	29.006142861137	0.044616610895
0	9749	29.050759472032	0.013294972828
0	9754	29.06405444486	0.024548510981
0	9759	29.088602955841	0.006915187998
0	9763	29.095518143839	0.027679908252
0	9769	29.123198052091	0.044649347962
0	9774	29.167847400053	0.016420894219
0	9779	29.184268294272	0.014037714362
0	9784	29.198306008634	0.01043043919
0	9789	29.208736447824	0.033680602585
0	9794	29.242417050409	0.002416844151
0	9798	29.24483389456	0.014435554696
0	9804	29.259269449256	0.005134018202
0	9808	29.264403467458	0.001328690511
0	9811	29.265732157969	0.006863780504
0	9816	29.272595938473	0.005529263256
0	9821	29.278125201729	0.000361829192
0	9824	29.278487030921	0.013488279555
0	9831	29.291975310476	0.004739957454
0	9834	29.29671526793	0.037084211269
0	9844	29.333799479199	0.03969867408
0	9849	29.373498153279	0.016039393866
0	9854	29.389537547145	0.011353076059
0	9859	29.400890623204	0.006561828977
0	9863	29.407452452181	0.000842297882
0	9866	29.408294750063	0.016088253051
0	9873	29.424383003114	0.043584543251
0	9879	29.467967546365	0.015019641324
0	9884	29.482987187689	0.019078076909
0	9889	29.502065264598	0.053664291716
0	9895	29.555729556314	0.001569162616
0	9899	29.55729871893	0.000121600418
0	9902	29.557420319348	0.03385382608
0	9910	29.591274145428	0.065255781718
0	9915	29.656529927146	0.022948249588
0	9920	29.679478176734	0.002362514645
0	9924	29.681840691379	0.00479271971
0	9927	29.686633411089	0.006719016483
0	9932	29.693352427572	0.00213632536
0	9935	29.695488752932	0.050138443309
0	9945	29.745627196241	0.005354069961
0	9949	29.750981266202	0.016737294565
0	9955	29.767718560767	0.002646755893
0	9959	29.77036531666	0.017204476701
0	9965	29.787569793361	0.016199266217
0	9970	29.803769059578	0.008535558735
0	9975	29.812304618313	0.024932223582
0	9980	29.837236841895	0.007679845548
0	9984	29.844916687443	0.018669801824
0	9990	29.863586489267	0.005418756177
0	9994	29.869005245444	0.002175012263
0	9997	29.871180257707	0.021484981941
0	10005	29.892665239648	0.000876484416
0	10009	29.893541724064	0.006792172435
0	10012	29.900333896499	0.009730902124
0	10019	29.910064798623	0.001986790991
0	10022	29.912051589614	0.000906448874
0	10025	29.912958038488	0.003405995831
0	10028	29.916364034319	0.012742437446
0	10035	29.929106471765	0.002330632949
0	10038	29.931437104714	0.001157883238
0	10041	29.932594987952	0.034192162391
0	10054	29.966787150343	0.020672912648
0	10060	29.987460062991	0.004678103609
0	10064	29.9921381666	0.015247128429
0	10070	30.007385295029	0.003943783802
0	10074	30.011329078831	0.004316152743
0	10079	30.015645231574	0.015966532176
0	10084	30.03161176375	0.001450548396
0	10089	30.033062312146	0.005366809043
0	10092	30.038429121189	0.00265773023
0	10097	30.041086851419	0.024431695821
0	10105	30.06551854724	0.012793349463
0	10110	30.078311896703	0.017416679951
0	10115	30.095728576654	0.00231241775
0	10119	30.098040994404	0.013354538422
0	10124	30.111395532826	0.005406056106
0	10129	30.116801588932	0.009705647327
0	10134	30.126507236259	0.001748408315
0	10139	30.128255644574	0.007085285575
0	10142	30.135340930149	0.012163681898
0	10149	30.147504612047	0.008723431609
0	10154	30.156228043656	0.019246821358
0	10160	30.175474865014	0.018413862569
0	10165	30.193888727583	0.01178443109
0	10170	30.205673158673	0.000912438444
0	10174	30.206585597117	0.019933575142
0	10180	30.226519172259	0.00394981633
0	10184	30.230468988589	0.022859146047
0	10190	30.253328134636	0.018039339917
0	10195	30.271367474553	0.015345678526
0	10200	30.286713153079	0.018508728825
0	10205	30.305221881904	0.014455749331
0	10210	30.319677631235	0.012738400149
0	10215	30.332416031384	0.023706828622
0	10220	30.356122860006	0.004546913065
0	10224	30.360669773071	0.024374267358
0	10230	30.385044040429	0.003832735633
0	10234	30.388876776062	0.006474259314
0	10239	30.395351035376	0.011435513565
0	10244	30.406786548941	0.028190662076
0	10250	30.434977211017	0.004591050482
0	10254	30.439568261499	0.038473296788
0	10260	30.478041558287	0.020174310244
0	10265	30.498215868531	0.00119766362
0	10269	30.499413532151	0.021895569576
0	10275	30.521309101727	0.027734759766
0	10280	30.549043861493	0.019060635174
0	10285	30.568104496667	0.00036499699
0	10289	30.568469493657	0.014878632545
0	10294	30.583348126202	0.010777321935
0	10301	30.594125448137	0.012065081466
0	10306	30.606190529603	0.009224992082
0	10311	30.615415521685	0.004970358371
0	10315	30.620385880056	0.007195092225
0	10320	30.627580972281	0.004072497527
0	10325	30.631653469808	0.017052064929
0	10331	30.648705534737	0.001581897736
[...]
23	17873	52.470799692504	0.007134121484
23	17878	52.480291527015	0.007134121484
23	17883	52.492822001753	0.007134848639
23	17888	52.510792318042	0.007134848639
23	17893	52.517927166681	0.009354191408
23	17898	52.527524082261	0.007135575943
23	17903	52.534767757736	0.007135575943
23	17908	52.542593330439	0.007135575943
23	17913	52.561003292549	0.007136303395
23	17918	52.571453589292	0.007136303395
23	17923	52.590920286637	0.007137030995
23	17928	52.617179544312	0.007137758744
23	17933	52.63911966176	0.007138486641
23	17938	52.658510999341	0.007138486641
23	17943	52.733769925319	0.007140671223
23	17948	52.740910596542	0.008132019897
23	17953	52.751400166655	0.007140671223
23	17958	52.761329697087	0.007141399714
23	17963	52.770347254653	0.007141399714
23	17971	52.777488654367	0.013806956459
23	17973	52.784630054081	0.01658574966
23	17978	52.807437460154	0.007142128354
23	17983	52.817113948033	0.007142857143
23	17988	52.869299491066	0.00714358608
23	17993	52.876443077146	0.01214221922
23	17998	52.892360758726	0.007144315166
23	18003	52.903101583661	0.007144315166
23	18008	52.935827988603	0.007145773785
23	18013	52.945355687517	0.007145773785
23	18021	52.952501461302	0.011508147261
23	18026	52.959647235087	0.014933149417
23	18034	52.966793008872	0.015516985022
23	18045	52.97393951219	0.018343828496
23	18050	52.981086015508	0.023230057622
23	18052	52.988232518826	0.028563352283
23	18054	52.995379022144	0.034898974286
23	18056	53.002526255144	0.039654380253
23	18058	53.009673488144	0.03964505362
23	18063	53.016820721144	0.008999628416
23	18068	53.026653782266	0.007147962831
23	18073	53.033801745097	0.012412770903
23	18078	53.052834073612	0.007147962831
23	18083	53.059982036443	0.007759435513
23	18088	53.089948159968	0.007149422939
23	18093	53.097097582907	0.010810124809
23	18101	53.104247005846	0.013782169809
23	18103	53.111396428785	0.019272989522
23	18108	53.129924256502	0.007150153218
23	18113	53.151958636533	0.007150883645
23	18118	53.187384487131	0.007151614221
23	18123	53.194536101352	0.007751954004
23	18128	53.208188271096	0.007152344947
23	18133	53.222285010702	0.007152344947
23	18138	53.245318339491	0.007153075823
23	18143	53.272763735253	0.007153806847
23	18148	53.319671903057	0.007154538021
23	18153	53.332920080234	0.007155269345
23	18158	53.343949204854	0.007155269345
23	18163	53.36936807332	0.007156000818
23	18168	53.376524074138	0.012394057278
23	18173	53.383680074956	0.009459131341
23	18178	53.390836807396	0.013457718827
23	18183	53.412579620989	0.007157464213
23	18188	53.426121666845	0.007157464213
23	18193	53.436241978968	0.007157464213
23	18198	53.453476948743	0.007158196135
23	18203	53.466067981971	0.007158196135
23	18208	53.473505214274	0.007158928206
23	18213	53.484184300215	0.007158928206
23	18218	53.491343228421	0.008804980678
23	18223	53.530189338501	0.007159660428
23	18228	53.552269856981	0.007160392799
23	18233	53.56466362978	0.00716112532
23	18238	53.583101115644	0.00716112532
23	18243	53.623885830401	0.007162590811
23	18248	53.653927281536	0.007163323782
23	18253	53.661090605318	0.011160763672
23	18258	53.672334289218	0.007163323782
23	18263	53.706961737919	0.007164056903
23	18268	53.723574266643	0.007164790174
23	18273	53.741446416114	0.007165523595
23	18278	53.751443332139	0.007165523595
23	18283	53.792786666336	0.007166257166
23	18288	53.800172794831	0.007166257166
23	18293	53.808641399744	0.007166990888
23	18298	53.823180826807	0.007166990888
23	18303	53.843663098145	0.007167724759
23	18308	53.857468569092	0.007167724759
23	18313	53.87155086369	0.007168458781
23	18318	53.878719322471	0.010592383532
23	18324	53.965152712076	0.00717066175
23	18332	53.972323373826	0.012939321857
23	18334	53.979494035576	0.014838807903
23	18339	53.988373574618	0.007171396373
23	18344	53.995544970991	0.008963364737
23	18349	54.002716367364	0.01379649021
23	18354	54.026929800389	0.007172131148
23	18359	54.037220670684	0.007172131148
23	18364	54.06076364381	0.007172866072
23	18369	54.122262135197	0.007174336374
23	18374	54.129976125845	0.007175071751
23	18379	54.165077007687	0.007175807278
23	18384	54.172252814965	0.01045402694
23	18389	54.189025519395	0.007176542957
23	18394	54.257747889812	0.007178014766
23	18399	54.283276966722	0.007178750897
23	18404	54.290455717619	0.014348981797
23	18409	54.301161707024	0.007178750897
23	18414	54.308340457921	0.01284602624
23	18419	54.354432720844	0.007180223613
23	18424	54.382951674768	0.007180960197
23	18429	54.390132634965	0.011440809988
23	18434	54.397313595162	0.012046114376
23	18439	54.40764971522	0.007181696932
23	18444	54.415726072108	0.007181696932
23	18449	54.423421849365	0.007181696932
23	18454	54.477520889511	0.007183170857
23	18459	54.484704060368	0.007445197543
23	18464	54.491887231225	0.012678261231
23	18469	54.535300853929	0.007184645386
23	18474	54.542485499315	0.013814299926
23	18479	54.561734516829	0.007185382878
23	18484	54.570570600155	0.007185382878
23	18489	54.577755983033	0.009057030475
23	18494	54.584942103555	0.011019306374
23	18499	54.593294841329	0.007186120522
23	18504	54.600480961851	0.011109318086
23	18509	54.614139851812	0.007186858316
23	18514	54.621326710128	0.013515188193
23	18519	54.628513568444	0.008012512849
23	18524	54.63570042676	0.013630936738
23	18535	54.642887285076	0.013793981212
23	18537	54.650074881338	0.017685216444
23	18539	54.6572624776	0.023810305227
23	18544	54.664450073862	0.008795817355
23	18549	54.681708190298	0.00718833436
23	18554	54.698873930907	0.00718907261
23	18559	54.71862509305	0.00718907261
23	18564	54.72581416566	0.012756162581
23	18569	54.73300323827	0.012794893669
23	18577	54.740193049281	0.010822330551
23	18579	54.747382860292	0.017008396224
23	18584	54.75802746619	0.007190549563
23	18589	54.765218015753	0.013448673791
23	18594	54.772408565316	0.007625261179
23	18599	54.790820960626	0.007191288268
23	18604	54.802782201263	0.007191288268
23	18609	54.822026169421	0.007192027124
23	18614	54.836750987387	0.007192027124
23	18619	54.869385398201	0.007192766132
23	18624	54.88234601052	0.007193505292
23	18629	54.889539515812	0.007324656506
23	18634	54.896733021104	0.013224429303
23	18639	54.904306996772	0.007193505292
23	18644	54.911500502064	0.012907226319
23	18649	54.922329333914	0.007194244604
23	18654	54.929523578518	0.012074125818
23	18659	54.945008194846	0.007194984068
23	18664	54.952203178914	0.010522420023
23	18669	54.99607462253	0.007196463452
23	18674	55.003848279218	0.007196463452
23	18679	55.01104474267	0.007531296603
23	18684	55.027978870891	0.007197203372
23	18689	55.0422965235	0.007197203372
23	18694	55.049493726872	0.014324151333
23	18699	55.072389825205	0.007197943445
23	18704	55.091014306056	0.007198683669
23	18709	55.122119022348	0.007199424046
23	18717	55.129318446394	0.013185914399
23	18719	55.13651787044	0.017123710815
23	18724	55.152241350949	0.007200164575
23	18732	55.159441515524	0.010232275947
23	18737	55.166641680099	0.0164205482
23	18742	55.173841844674	0.016827178103
23	18747	55.181042009249	0.018680117804
23	18749	55.188242914506	0.021302432253
23	18754	55.197291533307	0.007200905257
23	18762	55.204492438564	0.01046919092
23	18764	55.211693343821	0.016131298113
23	18769	55.238611241727	0.007202387077
23	18774	55.256499465353	0.007202387077
23	18779	55.270314388872	0.007203128216
23	18784	55.301479869173	0.007203869507
23	18789	55.324364280683	0.007204610951
23	18794	55.352774056593	0.007204610951
23	18799	55.364729241436	0.007205352548
23	18804	55.381577550422	0.007205352548
23	18809	55.38878290297	0.01362279866
23	18814	55.439236976766	0.007206836199
23	18819	55.448091773133	0.007207578254
23	18827	55.455299351387	0.013733830958
23	18829	55.462506929641	0.01725019447
23	18834	55.503788217168	0.007209062822
23	18839	55.51099727999	0.009627613963
23	18844	55.538790635847	0.007209805335
23	18849	55.562601494089	0.007209805335
23	18854	55.580177299532	0.007210548002
23	18859	55.588830074385	0.007210548002
23	18864	55.596040622387	0.008261298267
23	18869	55.608692709021	0.007211290821
23	18877	55.615903999842	0.012428815329
23	18879	55.623115290663	0.015380240879
23	18887	55.630327324457	0.012030090238
23	18895	55.637539358251	0.019147837229
23	18900	55.644751392045	0.021592310076
23	18905	55.651963425839	0.024938130058
23	18907	55.659175459633	0.022011169407
23	18909	55.666388236552	0.027594811839
23	18914	55.691305879655	0.007213520198
23	18919	55.731671520238	0.00721426363
23	18924	55.748079609595	0.007215007215
23	18929	55.785162856117	0.007215750954
23	18934	55.806992645132	0.007216494845
23	18939	55.817478693765	0.007216494845
23	18944	55.839209969982	0.007217238891
23	18949	55.868231245925	0.007217983089
23	18954	55.877417623523	0.007217983089
23	18959	55.884635606612	0.009298092982
23	18964	55.891853589701	0.01170463705
23	18969	55.915483571637	0.007218727441
23	18977	55.922702299078	0.012806872605
23	18982	55.929921771025	0.015597579433
23	18984	55.937141242972	0.015319527302
23	18989	55.944360714919	0.010591733838
23	18994	55.951580186866	0.007430241649
23	18999	55.958799658813	0.008830905359
23	19004	55.966019875419	0.010088836627
23	19009	55.973240092025	0.012163466526
23	19014	56.005544590561	0.007220961419
23	19019	56.019499446856	0.007221706386
23	19024	56.026721153242	0.009067563044
23	19032	56.033942859628	0.011687177621
23	19034	56.041164566014	0.01484144762
23	19039	56.051231706656	0.007222451506
23	19044	56.058454158162	0.009827730466
23	19050	56.120787140061	0.007223942208
23	19055	56.13949183246	0.00722468779
23	19060	56.14671652025	0.012367678698
23	19068	56.15394120804	0.014007015743
23	19070	56.16116589583	0.020985369658
23	19075	56.168391329356	0.013927558329
23	19080	56.175616762882	0.01025724944
23	19085	56.182842196408	0.00839173956
23	19090	56.213738137263	0.007226179416
23	19095	56.229562557425	0.007226925459
23	19100	56.248051358591	0.007226925459
23	19105	56.260064609564	0.007227671657
23	19110	56.289696235237	0.007228418009
23	19115	56.31139220943	0.007229164515
23	19120	56.32732201553	0.007229164515
23	19125	56.356020151629	0.007229911175
23	19130	56.36343698563	0.007229911175
23	19135	56.370666896805	0.013377739862
23	19140	56.377897554795	0.014354066627
23	19145	56.396838740297	0.00723065799
23	19150	56.415463284129	0.007231404959
23	19155	56.468712252998	0.007232899359
23	19160	56.490853761114	0.007233646791
23	19165	56.498336707163	0.007233646791
23	19170	56.524406211554	0.007234394378
23	19181	56.531640605932	0.013411638372
23	19186	56.53887500031	0.017373050281
23	19194	56.546109394688	0.023495351227
23	19199	56.553343789066	0.025193097501
23	19204	56.560578931185	0.022481626158
23	19206	56.567814073304	0.029344219783
23	19211	56.575049215423	0.031693058298
23	19216	56.582284357542	0.035406524684
23	19218	56.589520247556	0.026221690597
23	19223	56.59675613757	0.025096306114
23	19225	56.603992027584	0.017637859382
23	19230	56.617711336436	0.007236638065
23	19235	56.647243531246	0.00723738627
23	19240	56.687857497822	0.007238134629
23	19245	56.695095632451	0.014241268144
23	19250	56.712363491051	0.007238883144
23	19255	56.719602374195	0.013761510534
23	19260	56.728109409898	0.007238883144
23	19265	56.75784894038	0.007239631813
23	19270	56.770361283939	0.007240380637
23	19275	56.79645405666	0.007241129616
23	19280	56.803695186276	0.011555624193
23	19285	56.831963986923	0.00724187875
23	19290	56.851212219087	0.007242628039
23	19296	56.861236203498	0.007242628039
23	19301	56.877279866827	0.007242628039
23	19306	56.884522494866	0.011368618256
23	19311	56.892120753258	0.007243377483
23	19316	56.924242504732	0.007244127083
23	19321	56.934293025562	0.007244127083
23	19326	56.949838965478	0.007244876837
23	19331	56.96868184674	0.007245626747
23	19342	56.975927473487	0.012745729154
23	19344	56.983173100234	0.017737642005
23	19352	56.990418726981	0.023568157986
23	19360	56.997664353728	0.020928417105
23	19365	57.00491073054	0.022690614184
23	19367	57.012157107352	0.028233711377
23	19372	57.019403484164	0.032692781045
23	19374	57.026649860976	0.032110467078
23	19379	57.033896237788	0.024117011516
23	19381	57.04114336482	0.020659258206
23	19386	57.048390491852	0.011338848571
23	19391	57.069680999713	0.007247877407
23	19396	57.088692462029	0.007248627938
23	19401	57.095941089967	0.010125858963
23	19406	57.103189717905	0.010393778783
23	19411	57.115951864338	0.007248627938
23	19416	57.123200492276	0.01100267817
23	19421	57.148026945392	0.007250129467
23	19426	57.158611150402	0.007250129467
23	19437	57.165861279869	0.011043408415
23	19439	57.173111409336	0.0174730247
23	19441	57.180361538803	0.023570504133
23	19446	57.19545179274	0.007250880464
23	19451	57.212795144888	0.007251631617
23	19459	57.220046776505	0.012435642802
23	19461	57.227298408122	0.017153422151
23	19466	57.234550039739	0.00902789477
23	19474	57.241801671356	0.01407392509
23	19482	57.249054054282	0.016973382054
23	19484	57.256306437208	0.019244815958
23	19489	57.263558820134	0.024732122348
23	19494	57.27081120306	0.017244619309
23	19499	57.27806433745	0.020330877186
23	19501	57.28531747184	0.017073029294
23	19506	57.315880330752	0.00725388601
23	19511	57.323134216762	0.009717165213
23	19516	57.33133757447	0.007254637786
23	19521	57.338592212256	0.013842776424
23	19526	57.345846850042	0.014432924035
23	19531	57.359296170704	0.007255389718
23	19536	57.384024290415	0.007255389718
23	19541	57.391279680133	0.008845126578
23	19546	57.409359333525	0.007256141806
23	19551	57.416615475331	0.010931100793
23	19556	57.42387236938	0.00818311571
23	19561	57.435451243325	0.007256894049
23	19566	57.442708137374	0.014393165381
23	19571	57.449965031423	0.012699547071
23	19576	57.488781412099	0.007258399005
23	19581	57.496039811104	0.013169889238
23	19589	57.503298210109	0.011036022441
23	19591	57.510556609114	0.014731129451
23	19596	57.520561612386	0.007259151716
23	19601	57.558332556611	0.007259904584
23	19606	57.590874291013	0.007260657608
23	19611	57.614504804813	0.007261410788
23	19616	57.63371078102	0.007262164125
23	19621	57.640972945145	0.012325931273
23	19626	57.695698458851	0.007263671267
23	19631	57.702962130118	0.009815905474
23	19636	57.710225801385	0.010696322022
23	19641	57.717489472652	0.01313167878
23	19646	57.724753897725	0.009198209405
23	19651	57.733557228388	0.007264425073
23	19656	57.746332759076	0.007265179035
23	19661	57.777568761344	0.007265933153
23	19666	57.788165884813	0.007265933153
23	19671	57.79962175338	0.007265933153
23	19679	57.806887686533	0.013226299609
23	19681	57.814154373962	0.019346411004
23	19686	57.832383251773	0.007266687429
23	19691	57.874104493088	0.007268196449
23	19699	57.881372689537	0.014075345096
23	19704	57.888640885986	0.019313561175
23	19709	57.895909082435	0.021265114135
23	19711	57.903178033629	0.019569593533
23	19716	57.917125877406	0.007268951194
23	19721	57.934361099327	0.007269706096
23	19726	58.000332162679	0.007271216371
23	19731	58.015414336529	0.007271971743
23	19736	58.042964694414	0.007271971743
23	19741	58.050236666157	0.009023961647
23	19746	58.064766069974	0.007272727273
23	19751	58.077196435689	0.007273482959
23	19756	58.117188057679	0.007274238803
23	19761	58.130831719783	0.007274238803
23	19766	58.14009822713	0.007274994804
23	19771	58.147373221934	0.013539730098
23	19776	58.193642312278	0.007276507277
23	19781	58.224697167982	0.007277263749
23	19786	58.231974431731	0.008265884512
23	19791	58.23925169548	0.007987514719
23	19796	58.246528959229	0.01267589654
23	19801	58.253806222978	0.011399992228
23	19806	58.265520106259	0.007278020378
23	19811	58.275001229005	0.007278020378
23	19816	58.282279249383	0.012523251091
23	19821	58.302884659536	0.007278777165
23	19826	58.322915528196	0.00727953411
23	19831	58.33026294494	0.00727953411
23	19836	58.354205156009	0.007280291212
23	19841	58.398222274538	0.007281048471
23	19846	58.409003982233	0.007281805888
23	19851	58.4198845848	0.007281805888
23	19856	58.427343158878	0.007281805888
23	19861	58.447336241718	0.007282563462
23	19866	58.45461880518	0.007550270092
23	19871	58.476186651341	0.007283321194
23	19882	58.483469972535	0.014298885454
23	19884	58.490753293729	0.020118113542
23	19889	58.498036614923	0.024074467145
23	19892	58.505320694007	0.019056948235
23	19897	58.547432646119	0.007284837132
23	19902	58.554717483251	0.008524028509
23	19907	58.566066259403	0.007285595337
23	19912	58.576327495201	0.007285595337
23	19917	58.583613090538	0.011974829256
23	19925	58.590899444238	0.013849901068
23	19927	58.598185797938	0.020783235003
23	19932	58.660010484465	0.007287870901
23	19937	58.667833828386	0.007287870901
23	19942	58.675121699287	0.008923014942
23	19947	58.687310302653	0.007288629738
23	19952	58.694598932391	0.008536388108
23	19957	58.701887562129	0.013286928929
23	19962	58.709176950862	0.00816672614
23	19970	58.716466339595	0.012773651873
23	19975	58.723755728328	0.015896196544
23	19977	58.731045117061	0.020823730589
23	19982	58.765319504513	0.007290907197
23	19987	58.774891426329	0.007290907197
23	19992	58.830890343753	0.007292426294
23	19997	58.838182770047	0.011528006886
23	20002	58.847658044226	0.007292426294
23	20007	58.862752545455	0.00729318608
23	20012	58.889821307211	0.007293946025
23	20017	58.897115253236	0.012913960108
23	20022	58.904409199261	0.012605642994
23	20027	58.911703145286	0.012871525714
23	20032	58.918997851414	0.012124118513
23	20037	58.927014460107	0.007294706128
23	20042	58.934309166235	0.008101366922
23	20047	58.992566239898	0.007296226808
23	20052	59.02574758212	0.007296987387
23	20057	59.043532124707	0.007297748123
23	20062	59.067055888801	0.007298509019
23	20067	59.077211968205	0.007298509019
23	20072	59.084510477224	0.014271174164
23	20077	59.120630319769	0.007300031286
23	20082	59.127930351055	0.011755093431
23	20087	59.135230382341	0.010380077409
23	20092	59.142530413627	0.007987613938
23	20097	59.179042028987	0.007301554188
23	20102	59.190646969695	0.007301554188
23	20107	59.197948523883	0.013586233117
23	20112	59.205250078071	0.011517294161
23	20117	59.231544628679	0.007302315877
23	20122	59.238846944556	0.007890450383
23	20127	59.252383386139	0.007303077726
23	20132	59.259686463865	0.013504212974
23	20137	59.304245490111	0.007304601899
23	20142	59.31155009201	0.011348452957
23	20147	59.335436763182	0.007305364225
23	20152	59.376232461756	0.007306126709
23	20157	59.383538588465	0.013723445699
23	20162	59.393323219713	0.007306889353
23	20167	59.405565302378	0.007306889353
23	20172	59.412872191731	0.007478550455
23	20177	59.420179081084	0.00786403627
23	20182	59.42748673324	0.009945330782
23	20187	59.44488812005	0.007307652156
23	20192	59.452195772206	0.013586511462
23	20200	59.459504187324	0.014062868932
23	20202	59.466812602442	0.018848848067
23	20207	59.47412101756	0.00954458782
23	20212	59.501526574139	0.00730917824
23	20217	59.522996200813	0.00730994152
23	20222	59.530544144966	0.00730994152
23	20227	59.537854086486	0.009189607661
23	20232	59.548972850584	0.007310704961
23	20237	59.578539603501	0.007311468561
23	20242	59.585851072062	0.011254371797
23	20247	59.593162540623	0.008092269383
23	20252	59.615251635675	0.00731223232
23	20260	59.622563867995	0.013198121769
23	20268	59.629876100315	0.018198847504
23	20270	59.637189096554	0.020261012121
23	20272	59.644502092793	0.023060485719
23	20286	59.651815089032	0.011658823366
23	20288	59.659128085271	0.018686717006
23	20290	59.666441845589	0.023242994603
23	20292	59.673755605907	0.030003768024
23	20297	59.700393158297	0.007314524556
23	20302	59.707707682853	0.011264565126
23	20307	59.719650035938	0.007315288954
23	20312	59.733066958152	0.007315288954
23	20317	59.758543247662	0.007316053512
23	20322	59.782199612857	0.007316818229
23	20330	59.789516431086	0.013083173696
23	20332	59.796833249315	0.017314343435
23	20337	59.82104715418	0.007317583107
23	20345	59.828364737287	0.010829899799
23	20350	59.835682320394	0.016639061211
23	20355	59.843000668538	0.021108879738
23	20357	59.850319016682	0.018542808648
23	20362	59.857637364826	0.012952737174
23	20367	59.873175236298	0.007319113342
23	20372	59.931060562473	0.007320644217
23	20377	59.955357840569	0.007321409894
23	20382	59.966534700828	0.007321409894

