version 2
run Non-monitoring-9-20210208-19:10:42-20420
attr configname Non-monitoring
attr datetime 20210208-19:10:42
attr experiment Non-monitoring
attr inifile aerocom.ini
attr iterationvars ""
attr iterationvarsf ""
attr measurement ""
attr network Aerocom
attr processid 20420
attr repetition 9
attr replication #9
attr resultdir results
attr runnumber 9
attr seedset 9
param **.t 1s
param **.k 15ms
param **.nA 1
param **.nDL 10
param **.s "70 byte"
param **.X 5s
param **.dimPoolMax 10000
param **.dimPoolMin 8000
param **.tDistribution "\"lognormal\""
param **.m 1s
param **.DLMaxCapacity 0
param **.trasmitting false
param **.operationMode 1

vector 0 Aerocom.aircraft[0].packetGenerator arrivalTime:vector ETV
attr "" ""
attr source computeArrivalTime
vector 1 Aerocom.aircraft[0].dataLink[0] serviceTime:vector ETV
attr "" ""
attr source computeServiceTime
vector 2 Aerocom.aircraft[0].dataLink[0] tDistribution:vector ETV
attr "" ""
attr source computeTDistribution
vector 3 Aerocom.aircraft[0].dataLink[1] serviceTime:vector ETV
attr "" ""
attr source computeServiceTime
vector 4 Aerocom.aircraft[0].dataLink[1] tDistribution:vector ETV
attr "" ""
attr source computeTDistribution
vector 5 Aerocom.aircraft[0].dataLink[2] serviceTime:vector ETV
attr "" ""
attr source computeServiceTime
vector 6 Aerocom.aircraft[0].dataLink[2] tDistribution:vector ETV
attr "" ""
attr source computeTDistribution
vector 7 Aerocom.aircraft[0].dataLink[3] serviceTime:vector ETV
attr "" ""
attr source computeServiceTime
vector 8 Aerocom.aircraft[0].dataLink[3] tDistribution:vector ETV
attr "" ""
attr source computeTDistribution
vector 9 Aerocom.aircraft[0].dataLink[4] serviceTime:vector ETV
attr "" ""
attr source computeServiceTime
vector 10 Aerocom.aircraft[0].dataLink[4] tDistribution:vector ETV
attr "" ""
attr source computeTDistribution
vector 11 Aerocom.aircraft[0].dataLink[5] serviceTime:vector ETV
attr "" ""
attr source computeServiceTime
vector 12 Aerocom.aircraft[0].dataLink[5] tDistribution:vector ETV
attr "" ""
attr source computeTDistribution
vector 13 Aerocom.aircraft[0].dataLink[6] serviceTime:vector ETV
attr "" ""
attr source computeServiceTime
vector 14 Aerocom.aircraft[0].dataLink[6] tDistribution:vector ETV
attr "" ""
attr source computeTDistribution
vector 15 Aerocom.aircraft[0].dataLink[7] serviceTime:vector ETV
attr "" ""
attr source computeServiceTime
vector 16 Aerocom.aircraft[0].dataLink[7] tDistribution:vector ETV
attr "" ""
attr source computeTDistribution
vector 17 Aerocom.aircraft[0].dataLink[8] serviceTime:vector ETV
attr "" ""
attr source computeServiceTime
vector 18 Aerocom.aircraft[0].dataLink[8] tDistribution:vector ETV
attr "" ""
attr source computeTDistribution
vector 19 Aerocom.aircraft[0].dataLink[9] serviceTime:vector ETV
attr "" ""
attr source computeServiceTime
vector 20 Aerocom.aircraft[0].dataLink[9] tDistribution:vector ETV
attr "" ""
attr source computeTDistribution
vector 21 Aerocom.aircraft[0].dataLink[5] queueLength:vector ETV
attr "" ""
attr source computeQueueLength
vector 22 Aerocom.aircraft[0].dataLink[5] waitingTime:vector ETV
attr "" ""
attr source computeWaitingTime
vector 23 Aerocom.aircraft[0].dataLink[5] responseTime:vector ETV
attr "" ""
attr source computeResponseTime
0	0	0	0.008319609815
0	12	0.008319609815	0.006427796685
0	16	0.0147474065	0.029280266331
0	22	0.044027672831	0.025552194496
0	27	0.069579867327	0.020750213639
0	32	0.090330080966	7.376328e-005
0	36	0.090403844246	0.030620020401
0	42	0.121023864647	0.006624445962
0	46	0.127648310609	0.003100858485
0	51	0.130749169094	2.1866396e-005
0	54	0.13077103549	0.00590823791
0	59	0.1366792734	0.001046475806
0	62	0.137725749206	0.007000634503
0	67	0.144726383709	0.003455090353
0	70	0.148181474062	0.023677304909
0	81	0.171858778971	0.03624270438
0	87	0.208101483351	0.002456506288
0	91	0.210557989639	0.002791549309
0	94	0.213349538948	0.00279390805
0	99	0.216143446998	0.046530605999
0	107	0.262674052997	0.001269797532
0	111	0.263943850529	0.004107656169
0	114	0.268051506698	0.005461436467
0	119	0.273512943165	8.153812e-006
0	122	0.273521096977	0.022937914701
0	131	0.296459011678	0.012510281421
0	137	0.308969293099	0.002667286816
0	141	0.311636579915	0.014607557057
0	147	0.326244136972	0.00109890747
0	151	0.327343044442	0.00405164604
0	154	0.331394690482	0.01811324622
0	162	0.349507936702	0.072049615065
0	167	0.421557551767	0.002994699413
0	171	0.42455225118	0.003097361237
0	174	0.427649612417	0.013703812719
0	181	0.441353425136	0.0139651323
0	187	0.455318557436	0.008048913137
0	192	0.463367470573	0.010884899739
0	197	0.474252370312	0.010810003509
0	202	0.485062373821	0.00851416726
0	207	0.493576541081	0.003739544458
0	211	0.497316085539	0.003384868769
0	216	0.500700954308	0.019396050345
0	222	0.520097004653	0.01311693255
0	227	0.533213937203	0.0284004003
0	232	0.561614337503	0.028052460252
0	237	0.589666797755	0.039653505061
0	243	0.629320302816	0.000844430257
0	247	0.630164733073	0.009710773642
0	252	0.639875506715	0.015574959244
0	258	0.655450465959	0.010185498175
0	263	0.665635964134	0.000273455038
0	267	0.665909419172	0.013540266006
0	272	0.679449685178	0.002031602552
0	277	0.68148128773	0.001186248215
0	280	0.682667535945	0.019988634962
0	288	0.702656170907	0.001874555141
0	292	0.704530726048	0.003478903541
0	295	0.708009629589	0.050927780982
0	303	0.758937410571	0.032281120162
0	308	0.791218530733	0.013131633509
0	313	0.804350164242	0.01081327944
0	318	0.815163443682	0.001454635093
0	322	0.816618078775	0.005309246198
0	325	0.821927324973	0.000205848459
0	328	0.822133173432	0.02036184711
0	337	0.842495020542	0.02720364556
0	343	0.869698666102	0.015891726434
0	348	0.885590392536	0.036939177699
0	353	0.922529570235	0.009207621323
0	358	0.931737191558	0.018290676295
0	364	0.950027867853	0.004588130876
0	368	0.954615998729	0.01834702379
0	374	0.972963022519	0.01333371148
0	379	0.986296733999	0.038519985736
0	384	1.024816719735	0.016548092026
0	389	1.041364811761	0.005098381926
0	393	1.046463193687	0.025963279472
0	399	1.072426473159	0.01728113792
0	404	1.089707611079	0.013981622742
0	409	1.103689233821	0.011018681002
0	414	1.114707914823	0.003622599676
0	418	1.118330514499	0.03147823704
0	424	1.149808751539	0.057820526025
0	429	1.207629277564	0.038633498696
0	434	1.24626277626	0.004484418362
0	438	1.250747194622	0.010077542926
0	444	1.260824737548	0.001228593886
0	448	1.262053331434	0.013603052303
0	454	1.275656383737	0.009927137671
0	459	1.285583521408	0.004603491425
0	463	1.290187012833	0.030934132162
0	469	1.321121144995	0.071892200794
0	474	1.393013345789	0.00790943448
0	479	1.400922780269	0.003543393156
0	483	1.404466173425	0.014585959728
0	489	1.419052133153	0.013133353864
0	494	1.432185487017	0.036919261487
0	499	1.469104748504	0.015700261024
0	504	1.484805009528	0.002231835607
0	508	1.487036845135	0.036281932508
0	514	1.523318777643	0.001668687575
0	518	1.524987465218	0.001945787348
0	521	1.526933252566	0.070162644727
0	529	1.597095897293	0.016896907116
0	534	1.613992804409	0.008045453349
0	539	1.622038257758	0.021082243668
0	544	1.643120501426	0.02865948907
0	549	1.671779990496	0.03620867852
0	554	1.707988669016	0.013960231183
0	559	1.721948900199	0.004149904092
0	563	1.726098804291	0.027684761139
0	569	1.75378356543	0.055694833718
0	574	1.809478399148	0.028785266369
0	580	1.838263665517	0.034629093656
0	585	1.872892759173	0.000998301228
0	589	1.873891060401	0.001658277479
0	592	1.87554933788	0.001174900796
0	595	1.876724238676	0.016772425079
0	602	1.893496663755	0.008427461078
0	609	1.901924124833	0.03055065773
0	615	1.932474782563	0.017547122218
0	620	1.950021904781	0.012349780497
0	625	1.962371685278	0.021441700749
0	630	1.983813386027	0.009455922641
0	635	1.993269308668	0.040144999388
0	640	2.033414308056	0.000228043553
0	644	2.033642351609	0.011861629242
0	649	2.045503980851	0.007493685332
0	654	2.052997666183	0.025162977421
0	660	2.078160643604	0.003542055991
0	664	2.081702699595	0.014062085648
0	670	2.095764785243	0.003526683668
0	674	2.099291468911	0.003179392871
0	677	2.102470861782	0.00755089559
0	684	2.110021757372	0.003331314603
0	687	2.113353071975	0.059217098272
0	695	2.172570170247	0.006404748229
0	699	2.178974918476	0.003237085604
0	704	2.18221200408	0.006539083582
0	709	2.188751087662	0.028419902428
0	715	2.21717099009	0.014381586931
0	720	2.231552577021	0.009232934215
0	725	2.240785511236	0.004863755259
0	729	2.245649266495	0.003208776954
0	734	2.248858043449	0.004854006839
0	737	2.253712050288	0.002817812031
0	742	2.256529862319	0.011534426402
0	747	2.268064288721	0.009257605524
0	754	2.277321894245	0.003617067829
0	757	2.280938962074	0.003751711627
0	762	2.284690673701	0.053382177691
0	770	2.338072851392	0.010834624446
0	776	2.348907475838	0.013339521309
0	782	2.362246997147	0.00054089229
0	786	2.362787889437	0.000662732743
0	789	2.36345062218	0.060947080532
0	797	2.424397702712	0.020898364866
0	803	2.445296067578	0.003035273485
0	807	2.448331341063	0.018500219918
0	813	2.466831560981	0.026611431422
0	818	2.493442992403	0.027335167671
0	824	2.520778160074	0.018549969622
0	829	2.539328129696	0.0194919088
0	834	2.558820038496	0.019512384804
0	839	2.5783324233	0.002438326519
0	843	2.580770749819	0.042904338727
0	849	2.623675088546	0.005355005337
0	853	2.629030093883	0.007460441177
0	858	2.63649053506	0.021447510928
0	864	2.657938045988	0.042012429599
0	869	2.699950475587	0.012259040216
0	874	2.712209515803	0.009727555238
0	879	2.721937071041	0.018114711803
0	884	2.740051782844	0.035108467303
0	889	2.775160250147	0.004386407677
0	893	2.779546657824	0.021637151831
0	899	2.801183809655	0.000592574811
0	903	2.801776384466	0.007686675623
0	908	2.809463060089	0.006177321832
0	913	2.815640381921	0.001120099114
0	916	2.816760481035	0.026496645876
0	924	2.843257126911	0.007752184098
0	929	2.851009311009	0.001118877237
0	933	2.852128188246	0.01225596778
0	938	2.864384156026	0.005439819599
0	943	2.869823975625	0.012147348288
0	949	2.881971323913	0.002508758175
0	953	2.884480082088	0.003538255375
0	956	2.888018337463	0.008602281441
0	963	2.896620618904	0.042905338816
0	969	2.93952595772	0.003351040465
0	973	2.942876998185	0.014582489274
0	979	2.957459487459	0.005711855559
0	983	2.963171343018	0.018416126623
0	989	2.981587469641	0.001186119152
0	993	2.982773588793	0.01922481699
0	999	3.001998405783	0.014465670374
0	1004	3.016464076157	0.044088974072
0	1009	3.060553050229	0.008168510735
0	1014	3.068721560964	0.00560244115
0	1018	3.074324002114	0.010505749613
0	1024	3.084829751727	0.001765884215
0	1028	3.086595635942	0.004253587721
0	1031	3.090849223663	0.019513447277
0	1039	3.11036267094	0.015035500756
0	1044	3.125398171696	0.005657511077
0	1048	3.131055682773	0.028393185278
0	1054	3.159448868051	0.006053450081
0	1058	3.165502318132	0.003343877485
0	1063	3.168846195617	0.000924084707
0	1066	3.169770280324	0.038670094262
0	1074	3.208440374586	0.003022295816
0	1078	3.211462670402	0.030790557679
0	1084	3.242253228081	0.003935996287
0	1088	3.246189224368	0.003546448353
0	1093	3.249735672721	0.000531625321
0	1096	3.250267298042	0.001538971481
0	1099	3.251806269523	0.014963472605
0	1106	3.266769742128	0.047836702257
0	1114	3.314606444385	0.003807601047
0	1118	3.318414045432	0.001050345872
0	1121	3.319464391304	0.016570249606
0	1129	3.33603464091	0.007001432954
0	1133	3.343036073864	0.014645582498
0	1139	3.357681656362	0.012567178349
0	1144	3.370248834711	0.019530554071
0	1149	3.389779388782	0.039294385603
0	1154	3.429073774385	0.026927548572
0	1159	3.456001322957	0.007786079767
0	1164	3.463787402724	0.001802617886
0	1168	3.46559002061	0.009465380033
0	1173	3.475055400643	0.002509681609
0	1176	3.477565082252	0.00256708148
0	1181	3.480132163732	0.001522152524
0	1184	3.481654316256	0.034834499023
0	1194	3.516488815279	0.001781599541
0	1198	3.51827041482	0.003184033934
0	1201	3.521454448754	0.008906523963
0	1206	3.530360972717	0.017084560362
0	1214	3.547445533079	0.040974959029
0	1219	3.588420492108	0.00120347248
0	1223	3.589623964588	0.027559691043
0	1229	3.617183655631	0.005664105645
0	1233	3.622847761276	0.031013205159
0	1239	3.653860966435	0.020208921827
0	1244	3.674069888262	0.027979452669
0	1249	3.702049340931	0.013897667829
0	1254	3.71594700876	0.002545663422
0	1258	3.718492672182	0.00804010251
0	1263	3.726532774692	0.04006916795
0	1269	3.766601942642	0.000166934957
0	1273	3.766768877599	0.035875553792
0	1279	3.802644431391	0.004726559824
0	1283	3.807370991215	0.00662356221
0	1288	3.813994553425	0.04646171172
0	1294	3.860456265145	0.011360892681
0	1299	3.871817157826	0.018425258153
0	1304	3.890242415979	0.012802709262
0	1309	3.903045125241	0.013244192917
0	1314	3.916289318158	0.002911533828
0	1318	3.919200851986	0.020929021068
0	1324	3.940129873054	0.013412783809
0	1329	3.953542656863	0.023942156082
0	1334	3.977484812945	0.052929890789
0	1339	4.030414703734	0.001111398208
0	1343	4.031526101942	0.087582615208
0	1349	4.11910871715	0.003286075549
0	1353	4.122394792699	0.00148602948
0	1356	4.123880822179	0.058871980947
0	1364	4.182752803126	0.000436771999
0	1368	4.183189575125	0.005661188173
0	1371	4.188850763298	0.003918128767
0	1376	4.192768892065	0.005899040262
0	1381	4.198667932327	0.016620139021
0	1388	4.215288071348	0.000219266989
0	1391	4.215507338337	0.003698346799
0	1396	4.219205685136	0.002122934558
0	1399	4.221328619694	0.025207298754
0	1408	4.246535918448	0.018918867554
0	1414	4.265454786002	0.004673751998
0	1418	4.270128538	0.023628483471
0	1424	4.293757021471	0.017843627807
0	1429	4.311600649278	0.016986408013
0	1434	4.328587057291	0.020848904057
0	1439	4.349435961348	0.013041058506
0	1444	4.362477019854	0.012934799154
0	1449	4.375411819008	0.014142997914
0	1454	4.389554816922	0.007786688984
0	1459	4.397341505906	0.029688883049
0	1464	4.427030388955	0.018030408618
0	1469	4.445060797573	0.002126863752
0	1473	4.447187661325	0.011026317218
0	1478	4.458213978543	0.000686106101
0	1481	4.458900084644	0.021291332049
0	1489	4.480191416693	0.009917138557
0	1494	4.49010855525	0.046034406708
0	1499	4.536142961958	0.006394585922
0	1503	4.54253754788	0.04661292295
0	1509	4.58915047083	0.015728267879
0	1514	4.604878738709	0.011287690455
0	1519	4.616166429164	0.007055531531
0	1523	4.623221960695	0.000536860588
0	1528	4.623758821283	0.022516111621
0	1534	4.646274932904	0.015741075289
0	1539	4.662016008193	0.018853322734
0	1544	4.680869330927	0.023193443106
0	1549	4.704062774033	0.007733447162
0	1554	4.711796221195	0.031510667414
0	1559	4.743306888609	0.022384847681
0	1564	4.76569173629	0.001175507793
0	1568	4.766867244083	0.100489966048
0	1574	4.867357210131	0.002605309492
0	1578	4.869962519623	0.029991064799
0	1584	4.899953584422	0.011762219708
0	1589	4.91171580413	0.052433963538
0	1595	4.964149767668	0.01129872094
0	1600	4.975448488608	0.012017943854
0	1605	4.987466432462	0.011472710857
0	1610	4.998939143319	0.016504061076
0	1625	5.015443204395	0.043284644237
0	1630	5.058727848632	0.019924668676
0	1635	5.078652517308	0.013560374054
0	1640	5.092212891362	0.024584188634
0	1645	5.116797079996	0.009270294913
0	1650	5.126067374909	0.075214142149
0	1655	5.201281517058	0.004802050069
0	1659	5.206083567127	0.001496295842
0	1662	5.207579862969	0.016462501023
0	1670	5.224042363992	0.00900670535
0	1675	5.233049069342	0.026584500192
0	1680	5.259633569534	0.028802668214
0	1685	5.288436237748	0.003358235889
0	1689	5.291794473637	0.046925930478
0	1695	5.338720404115	0.000687436255
0	1699	5.33940784037	0.012217851082
0	1704	5.351625691452	0.016007559502
0	1710	5.367633250954	0.017948317611
0	1715	5.385581568565	0.000177778665
0	1719	5.38575934723	0.001575437121
0	1722	5.387334784351	0.041158489584
0	1730	5.428493273935	0.047869591661
0	1735	5.476362865596	0.015280798975
0	1740	5.491643664571	0.030417703129
0	1745	5.5220613677	0.010202860628
0	1750	5.532264228328	0.044099208655
0	1755	5.576363436983	0.0237298754
0	1760	5.600093312383	0.003826419708
0	1764	5.603919732091	0.049246556563
0	1770	5.653166288654	0.028042454835
0	1775	5.681208743489	0.021070548586
0	1780	5.702279292075	0.000896383673
0	1784	5.703175675748	0.040716415922
0	1790	5.74389209167	0.006608652205
0	1794	5.750500743875	0.029606465755
0	1800	5.78010720963	0.022625908462
0	1805	5.802733118092	0.009623799496
0	1810	5.812356917588	0.019959824102
0	1815	5.83231674169	0.002242747893
0	1819	5.834559489583	0.002398230817
0	1822	5.8369577204	0.00202085202
0	1825	5.83897857242	0.014324462071
0	1832	5.853303034491	0.001078262202
0	1837	5.854381296693	0.02051988517
0	1845	5.874901181863	0.007527712551
0	1850	5.882428894414	0.006653671214
0	1854	5.889082565628	0.05042416729
0	1860	5.939506732918	0.014057211025
0	1865	5.953563943943	0.020394556384
0	1870	5.973958500327	0.014756733581
0	1875	5.988715233908	0.008079049567
0	1880	5.996794283475	0.007347882939
0	1885	6.004142166414	0.062560216668
0	1890	6.066702383082	0.007891983281
0	1895	6.074594366363	0.039924093899
0	1900	6.114518460262	0.022537725125
0	1905	6.137056185387	0.0082221701
0	1910	6.145278355487	0.010945997311
0	1915	6.156224352798	0.006942684213
0	1919	6.163167037011	0.001190874241
0	1924	6.164357911252	0.021368110772
0	1930	6.185726022024	0.002189897556
0	1934	6.18791591958	0.005165847424
0	1939	6.193081767004	0.001073392682
0	1942	6.194155159686	0.033950164435
0	1950	6.228105324121	0.051821149856
0	1955	6.279926473977	0.000742987003
0	1959	6.28066946098	0.027309823279
0	1965	6.307979284259	0.002210039663
0	1969	6.310189323922	0.040495301545
0	1975	6.350684625467	0.011458503166
0	1980	6.362143128633	0.012198528585
0	1985	6.374341657218	0.002960867074
0	1989	6.377302524292	0.025518225808
0	1995	6.4028207501	0.001304945369
0	1999	6.404125695469	0.018773798045
0	2005	6.422899493514	0.007867355369
0	2010	6.430766848883	0.01568745911
0	2015	6.446454307993	0.010828850151
0	2021	6.457283158144	0.030970106209
0	2026	6.488253264353	0.035559239977
0	2031	6.52381250433	0.005148206661
0	2035	6.528960710991	0.036860428076
0	2041	6.565821139067	0.047745506223
0	2046	6.61356664529	0.002793349941
0	2050	6.616359995231	0.012389993933
0	2056	6.628749989164	0.002994726712
0	2060	6.631744715876	1.0633953e-005
0	2063	6.631755349829	0.014313983424
0	2070	6.646069333253	0.000348838146
0	2073	6.646418171399	0.033591277357
0	2081	6.680009448756	0.020949373831
0	2086	6.700958822587	0.005218581388
0	2090	6.706177403975	0.011443533738
0	2097	6.717620937713	0.000361237243
0	2101	6.717982174956	0.00667823297
0	2104	6.724660407926	0.040830946229
0	2112	6.765491354155	1.4108514e-005
0	2116	6.765505462669	0.018845318328
0	2122	6.784350780997	0.072323596173
0	2128	6.85667437717	0.008607900389
0	2133	6.865282277559	0.031713914008
0	2138	6.896996191567	0.030481364639
0	2144	6.927477556206	0.017817381713
0	2149	6.945294937919	0.012179819685
0	2154	6.957474757604	0.029140599404
0	2159	6.986615357008	0.029751223046
0	2164	7.016366580054	0.044548489841
0	2169	7.060915069895	0.004886687885
0	2173	7.06580175778	0.009308519314
0	2179	7.075110277094	0.0108338943
0	2184	7.085944171394	0.011856880561
0	2189	7.097801051955	0.000616956424
0	2193	7.098418008379	0.001250945889
0	2196	7.099668954268	0.030824186287
0	2204	7.130493140555	0.014426055891
0	2209	7.144919196446	0.010279900421
0	2214	7.155199096867	0.003487302664
0	2218	7.158686399531	0.009555540485
0	2223	7.168241940016	0.000248307639
0	2226	7.168490247655	0.001564399086
0	2231	7.170054646741	0.005239913568
0	2234	7.175294560309	0.020904528879
0	2243	7.196199089188	0.012971182844
0	2249	7.209170272032	0.008076887569
0	2254	7.217247159601	0.060024079557
0	2259	7.277271239158	0.005594788988
0	2263	7.282866028146	0.004779901572
0	2268	7.287645929718	0.008309607553
0	2273	7.295955537271	0.012016231145
0	2279	7.307971768416	0.036270478885
0	2284	7.344242247301	0.005045374243
0	2288	7.349287621544	0.080231405476
0	2294	7.42951902702	0.038807227026
0	2299	7.468326254046	0.003413880455
0	2303	7.471740134501	0.00587336922
0	2308	7.477613503721	0.00791279025
0	2313	7.485526293971	0.006286790533
0	2318	7.491813084504	0.00398893984
0	2321	7.495802024344	0.005125087931
0	2326	7.500927112275	0.011847153498
0	2333	7.512774265773	0.001482887461
0	2336	7.514257153234	0.018127510254
0	2344	7.532384663488	0.05262956373
0	2349	7.585014227218	0.003215213678
0	2353	7.588229440896	0.010624323422
0	2358	7.598853764318	0.01935425159
0	2365	7.618208015908	0.010854958379
0	2370	7.629062974287	0.00472165215
0	2374	7.633784626437	0.016946704196
0	2380	7.650731330633	0.000761983821
0	2384	7.651493314454	0.053554715977
0	2390	7.705048030431	0.001848819844
0	2394	7.706896850275	0.036725063373
0	2400	7.743621913648	0.005870481866
0	2404	7.749492395514	0.008292611485
0	2409	7.757785006999	0.02616439145
0	2415	7.783949398449	0.051148278141
0	2420	7.83509767659	0.00089180582
0	2424	7.83598948241	0.013361718333
0	2430	7.849351200743	0.000185247787
0	2434	7.84953644853	0.043293021513
0	2440	7.892829470043	0.014507741561
0	2445	7.907337211604	0.013197401053
0	2450	7.920534612657	0.006821678419
0	2454	7.927356291076	0.013032387935
0	2460	7.940388679011	0.022694363479
0	2465	7.96308304249	0.006672222576
0	2469	7.969755265066	0.015523109029
0	2475	7.985278374095	0.014420821711
0	2480	7.999699195806	0.039291280647
0	2485	8.038990476453	0.008731417136
0	2490	8.047721893589	0.004065689587
0	2494	8.051787583176	0.04404406063
0	2500	8.095831643806	0.010176800516
0	2505	8.106008444322	0.00313037314
0	2509	8.109138817462	0.011602806616
0	2515	8.120741624078	0.013765602512
0	2520	8.13450722659	0.009226512477
0	2525	8.143733739067	3.9376675e-005
0	2529	8.143773115742	0.008237087329
0	2534	8.152010203071	0.016851690119
0	2540	8.16886189319	0.011733715496
0	2545	8.180595608686	0.020636912028
0	2550	8.201232520714	0.015719322451
0	2555	8.216951843165	0.002566788436
0	2559	8.219518631601	0.027991302937
0	2565	8.247509934538	0.036677649842
0	2570	8.28418758438	0.003755692557
0	2574	8.287943276937	0.015623305538
0	2580	8.303566582475	0.003699233022
0	2584	8.307265815497	0.033584499111
0	2590	8.340850314608	0.007950873317
0	2595	8.348801187925	0.000774492519
0	2599	8.349575680444	0.011504646187
0	2604	8.361080326631	0.036082781906
0	2610	8.397163108537	0.00502180796
0	2614	8.402184916497	0.016671463363
0	2620	8.41885637986	0.053092131626
0	2625	8.471948511486	0.086571048945
0	2630	8.558519560431	0.006193985346
0	2634	8.564713545777	0.009000856904
0	2640	8.573714402681	0.016776831118
0	2645	8.590491233799	0.039564621226
0	2650	8.630055855025	0.043883302686
0	2655	8.673939157711	1.3974701e-005
0	2659	8.673953132412	0.006705926684
0	2662	8.680659059096	0.007628201065
0	2669	8.688287260161	0.035666807108
0	2675	8.723954067269	0.000826763617
0	2679	8.724780830886	0.009171428622
0	2684	8.733952259508	0.004198646763
0	2689	8.738150906271	0.030329767729
0	2695	8.768480674	0.024452480586
0	2700	8.792933154586	0.03130603787
0	2705	8.824239192456	0.031774142833
0	2710	8.856013335289	0.010003700915
0	2715	8.866017036204	0.006189159934
0	2719	8.872206196138	0.015567392746
0	2725	8.887773588884	0.008564431677
0	2730	8.896338020561	0.003420447408
0	2734	8.899758467969	0.013393273887
0	2740	8.913151741856	0.005146930912
0	2744	8.918298672768	0.01052162535
0	2750	8.928820298118	0.009881667847
0	2755	8.938701965965	0.033621118446
0	2760	8.972323084411	0.01923536714
0	2765	8.991558451551	0.029102211571
0	2770	9.020660663122	0.02466925804
0	2775	9.045329921162	0.001473202918
0	2779	9.04680312408	0.005676060303
0	2784	9.052479184383	0.022578316185
0	2790	9.075057500568	0.002541393146
0	2794	9.077598893714	0.034359711701
0	2800	9.111958605415	0.012401243624
0	2805	9.124359849039	0.004766280165
0	2809	9.129126129204	0.026299713726
0	2815	9.15542584293	0.001724593886
0	2819	9.157150436816	0.019911058158
0	2825	9.177061494974	0.002282744607
0	2829	9.179344239581	0.003662443332
0	2832	9.183006682913	0.018203889264
0	2840	9.201210572177	1.4714207e-005
0	2844	9.201225286384	0.001221477957
0	2847	9.202446764341	0.008090213991
0	2852	9.210536978332	0.010630259125
0	2857	9.221167237457	0.00318238018
0	2862	9.224349617637	0.024167794165
0	2870	9.248517411802	0.015775786479
0	2875	9.264293198281	0.01873106523
0	2880	9.283024263511	0.078508868844
0	2885	9.361533132355	0.004629956056
0	2889	9.366163088411	0.012637098877
0	2895	9.378800187288	0.002753761062
0	2899	9.38155394835	0.002788166477
0	2902	9.384342114827	0.020506274564
0	2910	9.404848389391	0.002481714067
0	2914	9.407330103458	0.007739891034
0	2919	9.415069994492	0.000253945532
0	2922	9.415323940024	0.015587271187
0	2929	9.430911211211	0.001994943035
0	2932	9.432906154246	0.004635235302
0	2937	9.437541389548	0.016819446781
0	2944	9.454360836329	0.033589179511
0	2950	9.48795001584	0.011015094774
0	2955	9.498965110614	0.008521822291
0	2960	9.507486932905	0.018461770538
0	2965	9.525948703443	0.001158696543
0	2969	9.527107399986	0.057751855683
0	2975	9.584859255669	0.003507135421
0	2979	9.58836639109	0.013773662821
0	2985	9.602140053911	0.016149596009
0	2990	9.61828964992	0.000479532847
0	2994	9.618769182767	0.005524686286
0	2997	9.624293869053	0.001797947456
0	3002	9.626091816509	0.014045179497
0	3009	9.640136996006	0.047947894607
0	3015	9.688084890613	0.003348229924
0	3019	9.691433120537	0.025101406339
0	3025	9.716534526876	0.026833541472
0	3030	9.743368068348	0.000498242895
0	3034	9.743866311243	0.01663150737
0	3040	9.760497818613	9.2106707e-005
0	3044	9.76058992532	0.006934093703
0	3047	9.767524019023	0.001603224121
0	3052	9.769127243144	0.023220015352
0	3060	9.792347258496	0.003235136304
0	3064	9.7955823948	0.002253243375
0	3067	9.797835638175	0.009268235147
0	3074	9.807103873322	0.004793724719
0	3077	9.811897598041	0.018629644679
0	3085	9.83052724272	0.016845188719
0	3090	9.847372431439	0.034022906002
0	3095	9.881395337441	0.00342813694
0	3099	9.884823474381	0.011840871884
0	3105	9.896664346265	0.003560809684
0	3109	9.900225155949	0.035441403902
0	3115	9.935666559851	0.004628306154
0	3119	9.940294866005	0.014779971657
0	3125	9.955074837662	0.011646278931
0	3130	9.966721116593	0.028410848375
0	3135	9.995131964968	0.009150486913
0	3140	10.004282451881	0.026511636745
0	3145	10.030794088626	0.070512191788
0	3150	10.101306280414	0.047282584653
0	3155	10.148588865067	0.020343593004
0	3160	10.168932458071	0.035039298602
0	3165	10.203971756673	0.012791207511
0	3170	10.216762964184	0.032131674602
0	3175	10.248894638786	0.000950313319
0	3179	10.249844952105	0.01570322169
0	3185	10.265548173795	0.00196140453
0	3189	10.267509578325	0.031394262645
0	3195	10.29890384097	0.021549864435
0	3201	10.320453705405	0.001105328003
0	3205	10.321559033408	0.023894391498
0	3211	10.345453424906	0.008421969604
0	3216	10.35387539451	0.081028579915
0	3221	10.434903974425	0.002554435996
0	3225	10.437458410421	0.006540623366
0	3230	10.443999033787	0.001307463043
0	3233	10.44530649683	0.021002292062
0	3241	10.466308788892	0.038794641782
0	3246	10.505103430674	0.006580925613
0	3250	10.511684356287	0.009431456302
0	3256	10.521115812589	0.08187998489
0	3261	10.602995797479	0.007119870036
0	3266	10.610115667515	0.003315532695
0	3270	10.61343120021	0.004388149096
0	3275	10.617819349306	0.01569421423
0	3281	10.633513563536	0.016135241199
0	3286	10.649648804735	0.001877357192
0	3290	10.651526161927	0.019382351535
0	3296	10.670908513462	0.007977001965
0	3301	10.678885515427	0.000574278515
0	3305	10.679459793942	0.032296915589
0	3311	10.711756709531	0.040022112269
0	3316	10.7517788218	0.01486507076
0	3321	10.76664389256	0.010474475371
0	3326	10.777118367931	0.007523812201
0	3331	10.784642180132	0.008482780675
0	3336	10.793124960807	0.015480526939
0	3341	10.808605487746	0.01262951724
0	3346	10.821235004986	0.019102850038
0	3351	10.840337855024	0.017260665323
0	3356	10.857598520347	0.027535571834
0	3361	10.885134092181	0.018386291164
0	3366	10.903520383345	0.014700373587
0	3371	10.918220756932	0.00301225831
0	3375	10.921233015242	0.001930744123
0	3378	10.923163759365	0.009834710029
0	3385	10.932998469394	0.017193796937
0	3391	10.950192266331	0.002936703265
0	3395	10.953128969596	0.009480380059
0	3400	10.962609349655	0.013090403489
0	3406	10.975699753144	0.011572167997
0	3411	10.987271921141	0.003004563093
0	3415	10.990276484234	0.002387041875
0	3418	10.992663526109	0.030067870206
0	3426	11.022731396315	0.014899555194
0	3431	11.037630951509	0.003566868409
0	3435	11.041197819918	0.006728738868
0	3440	11.047926558786	0.042785505703
0	3446	11.090712064489	4.090559e-005
0	3450	11.090752970079	0.006769276588
0	3453	11.097522246667	0.016494795849
0	3461	11.114017042516	0.018398512811
0	3466	11.132415555327	0.001734752642
0	3470	11.134150307969	0.008928670903
0	3475	11.143078978872	0.003382161504
0	3478	11.146461140376	0.008076309893
0	3485	11.154537450269	0.020034295457
0	3491	11.174571745726	0.008772400742
0	3496	11.183344146468	0.005720313374
0	3500	11.189064459842	0.006785624861
0	3505	11.195850084703	0.009969467253
0	3511	11.205819551956	0.017460266114
0	3516	11.22327981807	0.005258335917
0	3520	11.228538153987	0.011029247147
0	3526	11.239567401134	0.001705834304
0	3530	11.241273235438	0.039915397122
0	3536	11.28118863256	0.008533879688
0	3541	11.289722512248	0.020665432061
0	3546	11.310387944309	0.010688971799
0	3551	11.321076916108	0.002317131817
0	3555	11.323394047925	0.00582777233
0	3560	11.329221820255	0.001017508789
0	3563	11.330239329044	0.012904933919
0	3570	11.343144262963	0.001353618639
0	3573	11.344497881602	0.020698917392
0	3581	11.365196798994	0.005708785425
0	3585	11.370905584419	0.022203030817
0	3591	11.393108615236	0.021224932173
0	3596	11.414333547409	0.010445284128
0	3601	11.424778831537	0.008853289281
0	3606	11.433632120818	0.005661058079
0	3610	11.439293178897	0.025847666599
0	3616	11.465140845496	0.00728172888
0	3621	11.472422574376	0.008774556686
0	3626	11.481197131062	0.042920862652
0	3632	11.524117993714	0.015881891758
0	3637	11.539999885472	0.00757219763
0	3642	11.547572083102	0.000572680297
0	3646	11.548144763399	0.043686107063
0	3652	11.591830870462	0.011389461822
0	3657	11.603220332284	0.004759582745
0	3661	11.607979915029	0.020337071505
0	3667	11.628316986534	0.01257660843
0	3672	11.640893594964	0.004036903413
0	3676	11.644930498377	0.014028616688
0	3682	11.658959115065	0.020838609991
0	3687	11.679797725056	0.005169777374
0	3691	11.68496750243	0.003419515174
0	3696	11.688387017604	0.006856664082
0	3701	11.695243681686	0.007109390975
0	3706	11.702353072661	0.006694618269
0	3711	11.70904769093	0.002341921037
0	3714	11.711389611967	0.007464573885
0	3719	11.718854185852	0.009159836492
0	3724	11.728014022344	0.003178586002
0	3729	11.731192608346	0.007865984616
0	3734	11.739058592962	0.027057188158
0	3742	11.76611578112	0.015804279489
0	3747	11.781920060609	0.01644007997
0	3752	11.798360140579	0.041457073243
0	3757	11.839817213822	0.025994593598
0	3762	11.86581180742	0.007825670121
0	3767	11.873637477541	0.005673518102
0	3771	11.879310995643	0.007698292841
0	3776	11.887009288484	0.037310274187
0	3782	11.924319562671	0.030962157347
0	3788	11.955281720018	0.035399416655
0	3793	11.990681136673	0.029426000037
0	3798	12.02010713671	0.050957526684
0	3803	12.071064663394	0.025085208903
0	3808	12.096149872297	0.012830245548
0	3813	12.108980117845	0.005585631844
0	3817	12.114565749689	0.002339312869
0	3822	12.116905062558	0.013730110703
0	3828	12.130635173261	0.003874265135
0	3832	12.134509438396	0.006020846931
0	3837	12.140530285327	0.006354269942
0	3842	12.146884555269	0.000914320102
0	3845	12.147798875371	0.048915624605
0	3853	12.196714499976	0.01333647695
0	3858	12.210050976926	0.022621377182
0	3863	12.232672354108	0.014808359065
0	3868	12.247480713173	0.004456512239
0	3872	12.251937225412	0.003091108923
0	3877	12.255028334335	0.011259145493
0	3882	12.266287479828	0.004482541159
0	3887	12.270770020987	0.027024119649
0	3893	12.297794140636	0.002037247358
0	3897	12.299831387994	0.005293026749
0	3902	12.305124414743	0.006744346676
0	3905	12.311868761419	0.032357291492
0	3913	12.344226052911	0.011627941075
0	3918	12.355853993986	0.001939971925
0	3922	12.357793965911	0.031207428767
0	3928	12.389001394678	0.001092361077
0	3932	12.390093755755	0.015046647039
0	3939	12.405140402794	0.033774835768
0	3944	12.438915238562	0.006645189536
0	3948	12.445560428098	0.009618854559
0	3954	12.455179282657	0.016337635529
0	3959	12.471516918186	0.012568848333
0	3964	12.484085766519	0.02399121635
0	3969	12.508076982869	0.043145666227
0	3974	12.551222649096	0.007549388707
0	3979	12.558772037803	0.001771111896
0	3983	12.560543149699	0.018467360037
0	3989	12.579010509736	0.006311626997
0	3993	12.585322136733	0.002366530095
0	3998	12.587688666828	0.000367713978
0	4001	12.588056380806	0.014069991372
0	4008	12.602126372178	0.007516367636
0	4013	12.609642739814	0.008627011002
0	4018	12.618269750816	0.004950935983
0	4023	12.623220686799	0.009250927918
0	4028	12.632471614717	0.004133382756
0	4033	12.636604997473	0.024327712508
0	4039	12.660932709981	0.003143110403
0	4043	12.664075820384	0.001099054928
0	4046	12.665174875312	0.003011808528
0	4051	12.66818668384	0.006397326102
0	4054	12.674584009942	0.005174989188
0	4059	12.67975899913	0.0073581949
0	4064	12.68711719403	0.023011207469
0	4073	12.710128401499	0.001397454469
0	4078	12.711525855968	0.01148723827
0	4083	12.723013094238	0.020995844758
0	4089	12.744008938996	0.065961757781
0	4094	12.809970696777	0.011262030343
0	4099	12.82123272712	0.008814411279
0	4104	12.830047138399	0.017660202643
0	4109	12.847707341042	0.028089790389
0	4114	12.875797131431	0.000455523642
0	4118	12.876252655073	0.000936887321
0	4121	12.877189542394	0.00395632807
0	4124	12.881145870464	0.004432452971
0	4129	12.885578323435	0.005415294067
0	4134	12.890993617502	0.007230794567
0	4139	12.898224412069	6.500408e-006
0	4142	12.898230912477	0.00667274169
0	4147	12.904903654167	0.02838180511
0	4158	12.933285459277	0.004393297711
0	4161	12.937678756988	0.001923785775
0	4166	12.939602542763	0.072395305404
0	4174	13.011997848167	0.006602046524
0	4178	13.018599894691	4.2613811e-005
0	4181	13.018642508502	0.010058843839
0	4188	13.028701352341	0.016948469715
0	4194	13.045649822056	0.007272909671
0	4199	13.052922731727	0.05126054537
0	4204	13.104183277097	0.001814606467
0	4208	13.105997883564	0.035433492537
0	4214	13.141431376101	0.018860013976
0	4219	13.160291390077	0.008513727128
0	4224	13.168805117205	0.006038775817
0	4228	13.174843893022	0.030620146808
0	4235	13.20546403983	0.00127911909
0	4239	13.20674315892	0.007546745427
0	4244	13.214289904347	0.044682035762
0	4250	13.258971940109	0.02310133017
0	4255	13.282073270279	0.002734856424
0	4259	13.284808126703	0.007938666197
0	4264	13.2927467929	0.001114164929
0	4267	13.293860957829	0.028466656669
0	4275	13.322327614498	0.00259250964
0	4279	13.324920124138	0.016543849232
0	4285	13.34146397337	0.027173946713
0	4290	13.368637920083	0.036830896605
0	4296	13.405468816688	0.000636113584
0	4300	13.406104930272	0.000985174592
0	4303	13.407090104864	0.000368684288
0	4306	13.407458789152	0.001637598452
0	4309	13.409096387604	0.051847750594
0	4321	13.460944138198	0.009663124504
0	4326	13.470607262702	0.002759040944
0	4330	13.473366303646	0.041978184159
0	4336	13.515344487805	0.006738138007
0	4340	13.522082625812	0.009931874976
0	4346	13.532014500788	0.017672036247
0	4351	13.549686537035	0.005647353388
0	4355	13.555333890423	0.014156613989
0	4361	13.569490504412	0.00552986673
0	4365	13.575020371142	0.031826549316
0	4371	13.606846920458	0.008846764034
0	4376	13.615693684492	0.001311156523
0	4380	13.617004841015	0.005861094921
0	4385	13.622865935936	0.000626687432
0	4388	13.623492623368	0.017570389635
0	4395	13.641063013003	0.054053101136
0	4401	13.695116114139	0.013621323222
0	4406	13.708737437361	7.5612334e-005
0	4410	13.708813049695	0.006322132396
0	4413	13.715135182091	0.00305084145
0	4418	13.718186023541	0.019662914751
0	4426	13.737848938292	0.007738355984
0	4431	13.745587294276	0.003013928108
0	4435	13.748601222384	0.00436147312
0	4440	13.752962695504	0.000311734699
0	4443	13.753274430203	0.002093098416
0	4446	13.755367528619	0.000537184686
0	4449	13.755904713305	0.018857616781
0	4458	13.774762330086	0.000956796189
0	4461	13.775719126275	0.014706733015
0	4468	13.79042585929	0.000789136488
0	4471	13.791214995778	0.007152356347
0	4476	13.798367352125	0.026879855687
0	4486	13.825247207812	0.013095401304
0	4491	13.838342609116	0.022252478567
0	4496	13.860595087683	0.008125184455
0	4501	13.868720272138	0.003193501988
0	4505	13.871913774126	0.008595904335
0	4510	13.880509678461	0.004969447259
0	4515	13.88547912572	0.004973456296
0	4520	13.890452582016	0.02117734966
0	4526	13.911629931676	0.003852722299
0	4530	13.915482653975	0.016942411477
0	4536	13.932425065452	0.01334872826
0	4541	13.945773793712	0.01602644729
0	4546	13.961800241002	0.002974340998
0	4550	13.964774582	0.005616240343
0	4555	13.970390822343	0.001043225411
0	4558	13.971434047754	0.004322328466
0	4561	13.97575637622	0.003030207418
0	4566	13.978786583638	0.013902550767
0	4573	13.992689134405	0.016847884664
0	4580	14.009537019069	0.009558418206
0	4586	14.019095437275	0.005812978975
0	4590	14.02490841625	0.001031691807
0	4593	14.025940108057	0.003725561132
0	4598	14.029665669189	0.022460533101
0	4606	14.05212620229	0.010757602421
0	4611	14.062883804711	0.003054369528
0	4615	14.065938174239	0.017734143644
0	4621	14.083672317883	0.04600270971
0	4626	14.129675027593	0.004610439677
0	4630	14.13428546727	0.010163389792
0	4636	14.144448857062	0.020555659301
0	4641	14.165004516363	0.020062423366
0	4646	14.185066939729	0.009741687441
0	4651	14.19480862717	0.018408965267
0	4656	14.213217592437	0.027089559612
0	4662	14.240307152049	0.00874947812
0	4667	14.249056630169	0.003818518165
0	4671	14.252875148334	0.021696256539
0	4677	14.274571404873	0.014245659364
0	4682	14.288817064237	0.027459468896
0	4687	14.316276533133	0.029272656207
0	4692	14.34554918934	0.007253549595
0	4697	14.352802738935	0.008459392432
0	4702	14.361262131367	0.005073189997
0	4706	14.366335321364	0.015626070331
0	4712	14.381961391695	0.001081652682
0	4716	14.383043044377	0.000485115666
0	4719	14.383528160043	0.020291293409
0	4728	14.403819453452	0.026561058213
0	4733	14.430380511665	0.005628468459
0	4737	14.436008980124	0.017606462946
0	4743	14.45361544307	0.026739341308
0	4748	14.480354784378	0.004109511495
0	4752	14.484464295873	0.009702207453
0	4757	14.494166503326	0.011436938124
0	4763	14.50560344145	0.010772049097
0	4768	14.516375490547	0.007501131902
0	4773	14.523876622449	0.020820989179
0	4778	14.544697611628	0.013778179945
0	4783	14.558475791573	0.00954013088
0	4789	14.568015922453	0.040788780352
0	4794	14.608804702805	0.018259649765
0	4799	14.62706435257	0.044063100644
0	4805	14.671127453214	0.028040862986
0	4810	14.6991683162	0.03752938029
0	4816	14.73669769649	0.003802700228
0	4820	14.740500396718	0.002270821984
0	4823	14.742771218702	0.015703436484
0	4831	14.758474655186	0.027979198648
0	4836	14.786453853834	0.043780693779
0	4841	14.830234547613	0.004597588585
0	4845	14.834832136198	0.008512067846
0	4850	14.843344204044	0.022747191832
0	4856	14.866091395876	0.002547943238
0	4860	14.868639339114	0.000105077534
0	4863	14.868744416648	0.027667541635
0	4871	14.896411958283	0.003493736291
0	4875	14.899905694574	0.012983422968
0	4881	14.912889117542	0.01533622911
0	4886	14.928225346652	0.023925396019
0	4891	14.952150742671	0.025819093282
0	4896	14.977969835953	0.039538531109
0	4901	15.017508367062	0.013204134856
0	4906	15.030712501918	0.042171347724
0	4911	15.072883849642	0.00171756588
0	4915	15.074601415522	0.002044979808
0	4918	15.07664639533	0.00803406024
0	4923	15.08468045557	0.086150125148
0	4931	15.170830580718	0.007551816809
0	4936	15.178382397527	0.040157904883
0	4941	15.21854030241	0.056242769242
0	4946	15.274783071652	0.012022322264
0	4951	15.286805393916	0.000565459167
0	4955	15.287370853083	0.0121576778
0	4960	15.299528530883	0.00672762506
0	4965	15.306256155943	0.00034314217
0	4968	15.306599298113	0.008472203717
0	4973	15.31507150183	0.021715567644
0	4981	15.336787069474	0.012774599759
0	4986	15.349561669233	0.016076666275
0	4991	15.365638335508	0.010411421138
0	4996	15.376049756646	0.008253910619
0	5001	15.384303667265	0.001004966536
0	5005	15.385308633801	0.020469250312
0	5011	15.405777884113	0.005630663954
0	5015	15.411408548067	0.006936098191
0	5020	15.418344646258	0.001030891288
0	5023	15.419375537546	0.004383228524
0	5028	15.42375876607	0.014104953756
0	5035	15.437863719826	0.032430627501
0	5042	15.470294347327	0.019648837574
0	5047	15.489943184901	0.008360722817
0	5052	15.498303907718	0.027615943668
0	5057	15.525919851386	0.036210436708
0	5062	15.562130288094	0.03151286515
0	5067	15.593643153244	0.013935389376
0	5073	15.60757854262	0.047488593854
0	5078	15.655067136474	0.015665576621
0	5084	15.670732713095	0.007206239553
0	5089	15.677938952648	0.021107474456
0	5094	15.699046427104	0.027366581735
0	5099	15.726413008839	0.001056548525
0	5103	15.727469557364	0.000571973594
0	5106	15.728041530958	0.000566074883
0	5109	15.728607605841	0.006335473789
0	5114	15.73494307963	0.002283521257
0	5117	15.737226600887	0.008610676565
0	5122	15.745837277452	0.050416244833
0	5134	15.796253522285	0.000695592864
0	5138	15.796949115149	0.025434360778
0	5144	15.822383475927	0.000580044412
0	5148	15.822963520339	0.004045289318
0	5151	15.827008809657	0.029380664436
0	5159	15.856389474093	0.012993197748
0	5164	15.869382671841	0.007711279388
0	5169	15.877093951229	0.032070238857
0	5175	15.909164190086	0.023170276865
0	5180	15.932334466951	0.012546259754
0	5185	15.944880726705	0.038008130122
0	5190	15.982888856827	0.014004018499
0	5195	15.996892875326	0.012449946579
0	5200	16.009342821905	0.000647834985
0	5204	16.00999065689	0.016707642848
0	5210	16.026698299738	0.025341642511
0	5215	16.052039942249	0.039696875822
0	5220	16.091736818071	0.005438546149
0	5224	16.09717536422	0.01101344788
0	5230	16.1081888121	0.000349936653
0	5234	16.108538748753	0.066170506562
0	5240	16.174709255315	0.001314298
0	5244	16.176023553315	0.000951801946
0	5247	16.176975355261	0.001696681853
0	5250	16.178672037114	0.033970915416
0	5260	16.21264295253	0.027675505785
0	5265	16.240318458315	0.00575687568
0	5269	16.246075333995	0.00672270935
0	5274	16.252798043345	0.002017281343
0	5279	16.254815324688	0.008275905775
0	5284	16.263091230463	0.037571911421
0	5290	16.300663141884	0.002822466607
0	5294	16.303485608491	0.000174616111
0	5297	16.303660224602	0.010636975296
0	5302	16.314297199898	0.016788341619
0	5310	16.331085541517	0.004208832648
0	5314	16.335294374165	0.007478928186
0	5319	16.342773302351	0.000640141075
0	5322	16.343413443426	0.006195511576
0	5327	16.349608955002	0.003991274523
0	5332	16.353600229525	0.003905372003
0	5335	16.357505601528	0.007017310469
0	5340	16.364522911997	0.01999044332
0	5349	16.384513355317	0.011720143673
0	5355	16.39623349899	0.009703547482
0	5360	16.405937046472	0.018448921113
0	5365	16.424385967585	0.002016876145
0	5369	16.42640284373	0.022628032104
0	5375	16.449030875834	0.012693554103
0	5380	16.461724429937	0.012874073129
0	5385	16.474598503066	0.008432612046
0	5390	16.483031115112	0.012738603209
0	5395	16.495769718321	0.020337629695
0	5400	16.516107348016	0.008273740683
0	5405	16.524381088699	0.002317270087
0	5409	16.526698358786	0.002334651612
0	5412	16.529033010398	0.022497600794
0	5420	16.551530611192	0.038979166871
0	5425	16.590509778063	0.020819339557
0	5430	16.61132911762	0.017180253919
0	5435	16.628509371539	0.016351733674
0	5440	16.644861105213	0.005534899274
0	5444	16.650396004487	0.00687328289
0	5449	16.657269287377	0.049098904448
0	5455	16.706368191825	0.001353571931
0	5459	16.707721763756	0.04852864053
0	5465	16.756250404286	0.006903222565
0	5469	16.763153626851	0.011846018295
0	5475	16.774999645146	0.001506774644
0	5479	16.77650641979	0.001862980766
0	5482	16.778369400556	0.023971077195
0	5490	16.802340477751	0.062918149775
0	5495	16.865258627526	0.000263386663
0	5499	16.865522014189	0.003042727212
0	5502	16.868564741401	0.036397776253
0	5510	16.904962517654	0.054470265073
0	5515	16.959432782727	0.005864204192
0	5519	16.965296986919	0.018465392158
0	5525	16.983762379077	0.013037410074
0	5530	16.996799789151	0.028265418987
0	5535	17.025065208138	0.017535911967
0	5540	17.042601120105	0.001197639967
0	5544	17.043798760072	0.003312689581
0	5547	17.047111449653	0.02234506836
0	5555	17.069456518013	0.009243448998
0	5561	17.078699967011	0.021468931314
0	5566	17.100168898325	0.015754863557
0	5571	17.115923761882	0.007464352694
0	5576	17.123388114576	0.02653227479
0	5581	17.149920389366	0.005900581553
0	5585	17.155820970919	0.007343175307
0	5590	17.163164146226	0.008227963413
0	5596	17.171392109639	0.004452877239
0	5600	17.175844986878	0.00200996771
0	5603	17.177854954588	0.010284985537
0	5610	17.188139940125	0.002441529628
0	5613	17.190581469753	0.001137808302
0	5616	17.191719278055	0.019525462054
0	5625	17.211244740109	0.006862514064
0	5630	17.218107254173	0.021386595247
0	5636	17.23949384942	0.01430547312
0	5641	17.25379932254	0.009847883419
0	5646	17.263647205959	0.025745848874
0	5651	17.289393054833	0.02626675596
0	5656	17.315659810793	0.010932880959
0	5661	17.326592691752	0.004172878857
0	5665	17.330765570609	0.024331078676
0	5671	17.355096649285	0.001763883309
0	5675	17.356860532594	0.005959624947
0	5680	17.362820157541	0.014722015279
0	5686	17.37754217282	0.01104740197
0	5691	17.38858957479	0.002876459946
0	5695	17.391466034736	0.005313438227
0	5700	17.396779472963	0.005154016844
0	5703	17.401933489807	0.006112857924
0	5708	17.408046347731	0.002042288769
0	5713	17.4100886365	0.000488396355
0	5716	17.410577032855	0.010450269581
0	5721	17.421027302436	0.002448812872
0	5724	17.423476115308	0.005385253302
0	5729	17.42886136861	0.018515288745
0	5738	17.447376657355	0.011563995553
0	5743	17.458940652908	0.006851883047
0	5748	17.465792535955	0.006705345575
0	5753	17.47249788153	0.018517509854
0	5761	17.491015391384	0.017281126756
0	5766	17.50829651814	0.001760817904
0	5770	17.510057336044	0.003114290226
0	5773	17.51317162627	0.005252696818
0	5778	17.518424323088	0.052799448406
0	5786	17.571223771494	0.055339316797
0	5791	17.626563088291	0.004115641006
0	5795	17.630678729297	7.7421402e-005
0	5798	17.630756150699	0.004086524247
0	5803	17.634842674946	0.000854498571
0	5806	17.635697173517	0.00789053944
0	5811	17.643587712957	0.007994948894
0	5816	17.651582661851	0.008525638798
0	5822	17.660108300649	0.026272146763
0	5832	17.686380447412	0.070503317891
0	5837	17.756883765303	0.009142410044
0	5842	17.766026175347	0.054350814374
0	5848	17.820376989721	0.065043868356
0	5854	17.885420858077	0.009860935657
0	5859	17.895281793734	0.016356334916
0	5864	17.91163812865	0.027896197413
0	5869	17.939534326063	0.008089408127
0	5874	17.94762373419	0.00042712082
0	5878	17.94805085501	0.002050645648
0	5881	17.950101500658	0.007111185749
0	5886	17.957212686407	0.073310427545
0	5895	18.030523113952	0.011416912684
0	5900	18.041940026636	0.001664733307
0	5904	18.043604759943	0.003340980403
0	5907	18.046945740346	0.028958473103
0	5915	18.075904213449	0.012270534009
0	5920	18.088174747458	0.002112572047
0	5924	18.090287319505	0.036616953953
0	5930	18.126904273458	0.007582208965
0	5935	18.134486482423	0.012376481354
0	5940	18.146862963777	0.005375619891
0	5944	18.152238583668	0.033196876141
0	5950	18.185435459809	0.007705971024
0	5955	18.193141430833	0.012233799862
0	5960	18.205375230695	0.020139658785
0	5965	18.22551488948	0.020561505407
0	5970	18.246076394887	0.036315240899
0	5975	18.282391635786	0.025623868405
0	5980	18.308015504191	0.001927869663
0	5984	18.309943373854	0.010265657709
0	5989	18.320209031563	0.046877148317
0	5995	18.36708617988	0.064927624942
0	6000	18.432013804822	0.007049290626
0	6004	18.439063095448	0.013948655842
0	6010	18.45301175129	0.012050103624
0	6015	18.465061854914	0.005638243303
0	6019	18.470700098217	0.067675779385
0	6025	18.538375877602	0.02321708662
0	6030	18.561592964222	0.002603961787
0	6034	18.564196926009	0.005957929181
0	6039	18.57015485519	0.00669666679
0	6044	18.57685152198	0.034904387766
0	6050	18.611755909746	0.098953683807
0	6055	18.710709593553	0.011950945686
0	6060	18.722660539239	0.006927893703
0	6064	18.729588432942	3.8902211e-005
0	6067	18.729627335153	0.009016038639
0	6074	18.738643373792	0.048019438646
0	6080	18.786662812438	0.006091554818
0	6084	18.792754367256	0.03130966928
0	6090	18.824064036536	0.007906968701
0	6095	18.831971005237	0.006987876092
0	6099	18.838958881329	0.006008946455
0	6104	18.844967827784	0.012101761597
0	6110	18.857069589381	0.001091260045
0	6114	18.858160849426	0.000639323329
0	6117	18.858800172755	0.015284078295
0	6124	18.87408425105	0.011344924018
0	6130	18.885429175068	0.017052380649
0	6135	18.902481555717	0.006723092028
0	6139	18.909204647745	0.000261433766
0	6142	18.909466081511	0.01153267072
0	6149	18.920998752231	5.1473856e-005
0	6152	18.921050226087	0.014594333119
0	6159	18.935644559206	0.000305699498
0	6162	18.935950258704	0.006437727319
0	6167	18.942387986023	0.002271187746
0	6170	18.944659173769	0.043747794353
0	6180	18.988406968122	0.02238009514
0	6185	19.010787063262	0.01593114185
0	6190	19.026718205112	0.005179877257
0	6194	19.031898082369	0.003673937323
0	6199	19.035572019692	0.031517503519
0	6205	19.067089523211	0.005430465719
0	6209	19.07251998893	0.002039355577
0	6214	19.074559344507	0.013817416337
0	6220	19.088376760844	0.000802653947
0	6224	19.089179414791	0.008680709228
0	6229	19.097860124019	0.003994147193
0	6232	19.101854271212	0.010320656812
0	6239	19.112174928024	0.007881124625
0	6244	19.120056052649	0.051575059064
0	6250	19.171631111713	0.032328936557
0	6255	19.20396004827	0.02018290241
0	6260	19.22414295068	0.013794677361
0	6265	19.237937628041	0.005624992522
0	6269	19.243562620563	0.002493076234
0	6274	19.246055696797	0.019808393479
0	6280	19.265864090276	0.008578643668
0	6285	19.274442733944	0.030282131153
0	6290	19.304724865097	0.005199602936
0	6294	19.309924468033	0.038074599478
0	6300	19.347999067511	0.006494175662
0	6304	19.354493243173	0.001695767448
0	6309	19.356189010621	0.069663192077
0	6315	19.425852202698	0.022300312485
0	6320	19.448152515183	0.00345201362
0	6324	19.451604528803	0.008820859042
0	6329	19.460425387845	0.020700384746
0	6335	19.481125772591	0.001570087829
0	6339	19.48269586042	0.033210016819
0	6345	19.515905877239	0.000392657392
0	6349	19.516298534631	0.013183541337
0	6354	19.529482075968	0.008308880267
0	6360	19.537790956235	0.002563779964
0	6364	19.540354736199	0.000243434328
0	6367	19.540598170527	0.016600901061
0	6374	19.557199071588	0.010120207058
0	6380	19.567319278646	0.049251852284
0	6385	19.61657113093	0.020986274761
0	6390	19.637557405691	0.013722385845
0	6395	19.651279791536	0.021189094409
0	6400	19.672468885945	0.009934147676
0	6405	19.682403033621	0.010112021328
0	6410	19.692515054949	0.013914890141
0	6415	19.70642994509	0.030387322237
0	6420	19.736817267327	0.005794558594
0	6424	19.742611825921	0.010572878269
0	6430	19.75318470419	0.011461540114
0	6435	19.764646244304	0.023175946196
0	6440	19.7878221905	0.002191889925
0	6444	19.790014080425	0.026249262553
0	6450	19.816263342978	0.041027190722
0	6455	19.8572905337	0.03209418717
0	6460	19.88938472087	0.044079326876
0	6465	19.933464047746	0.004646592154
0	6469	19.9381106399	0.004653884529
0	6474	19.942764524429	0.001311805136
0	6477	19.944076329565	0.009660485528
0	6482	19.953736815093	0.021086025906
0	6490	19.974822840999	0.007111980971
0	6495	19.98193482197	0.017908299888
0	6500	19.999843121858	0.004451024846
0	6504	20.004294146704	0.012140667248
0	6510	20.016434813952	0.019598614459
0	6515	20.036033428411	0.008842432504
0	6520	20.044875860915	0.001479976758
0	6524	20.046355837673	0.03706247472
0	6530	20.083418312393	0.012460186377
0	6535	20.09587849877	0.016032628335
0	6540	20.111911127105	0.006798144461
0	6544	20.118709271566	0.016835221818
0	6550	20.135544493384	0.004596440121
0	6554	20.140140933505	0.02921966304
0	6560	20.169360596545	0.001034256888
0	6564	20.170394853433	0.025441094848
0	6570	20.195835948281	0.001417174902
0	6574	20.197253123183	0.001045004104
0	6577	20.198298127287	0.004135372563
0	6580	20.20243349985	0.005172583846
0	6585	20.207606083696	0.016495566601
0	6592	20.224101650297	0.014538272309
0	6600	20.238639922606	0.003286358891
0	6604	20.241926281497	0.001477175389
0	6607	20.243403456886	0.024146497186
0	6615	20.267549954072	0.015034598049
0	6620	20.282584552121	0.006736675836
0	6624	20.289321227957	0.047699927081
0	6630	20.337021155038	0.00482675517
0	6634	20.341847910208	0.033069416189
0	6640	20.374917326397	0.031344112382
0	6645	20.406261438779	0.00032837281
0	6649	20.406589811589	0.001840869118
0	6652	20.408430680707	0.033300644536
0	6660	20.441731325243	0.004459342963
0	6664	20.446190668206	0.001449860711
0	6667	20.447640528917	0.015859067398
0	6675	20.463499596315	0.008593456649
0	6680	20.472093052964	0.003692002388
0	6684	20.475785055352	0.006385778417
0	6689	20.482170833769	0.000388670643
0	6692	20.482559504412	0.002935262799
0	6695	20.485494767211	0.010477876037
0	6702	20.495972643248	0.014029211339
0	6709	20.510001854587	0.003715337973
0	6712	20.51371719256	0.050979386821
0	6720	20.564696579381	0.019808009515
0	6725	20.584504588896	0.019658068569
0	6730	20.604162657465	0.023609907388
0	6735	20.627772564853	0.000385337601
0	6739	20.628157902454	0.010808991312
0	6744	20.638966893766	0.016435709466
0	6750	20.655402603232	0.017179177156
0	6755	20.672581780388	0.014979977935
0	6760	20.687561758323	0.013258834263
0	6765	20.700820592586	0.000666665586
0	6769	20.701487258172	0.009586565126
0	6774	20.711073823298	0.013923771672
0	6780	20.72499759497	0.002061223189
0	6784	20.727058818159	0.015654636233
0	6790	20.742713454392	0.012280783434
0	6795	20.754994237826	0.005600249361
0	6799	20.760594487187	0.002243620842
0	6804	20.762838108029	0.049355862322
0	6810	20.812193970351	0.024986777372
0	6815	20.837180747723	0.011325883457
0	6820	20.84850663118	0.020479496652
0	6825	20.868986127832	0.003711264719
0	6829	20.872697392551	0.010434146975
0	6834	20.883131539526	0.006746467038
0	6839	20.889878006564	0.004605498619
0	6844	20.894483505183	0.001896675067
0	6847	20.89638018025	0.023774010986
0	6855	20.920154191236	0.007299512631
0	6860	20.927453703867	0.009999617401
0	6865	20.937453321268	0.033556965091
0	6870	20.971010286359	0.009179646329
0	6875	20.980189932688	0.023050973371
0	6880	21.003240906059	0.014237665353
0	6885	21.017478571412	0.014525754889
0	6890	21.032004326301	0.009183245112
0	6895	21.041187571413	0.039867496314
0	6900	21.081055067727	0.005526071909
0	6904	21.086581139636	0.007946546049
0	6909	21.094527685685	0.001714110161
0	6914	21.096241795846	0.007367545473
0	6919	21.103609341319	0.018346966059
0	6925	21.121956307378	0.022537479728
0	6930	21.144493787106	0.011599917844
0	6935	21.15609370495	0.001273269371
0	6939	21.157366974321	0.004304735169
0	6942	21.16167170949	0.00808810126
0	6947	21.16975981075	0.016660987448
0	6955	21.186420798198	0.030871314087
0	6960	21.217292112285	0.013643176864
0	6965	21.230935289149	0.027447082289
0	6970	21.258382371438	0.052721704976
0	6976	21.311104076414	0.010142461647
0	6981	21.321246538061	0.002701917387
0	6985	21.323948455448	0.006588814091
0	6990	21.330537269539	0.001104765598
0	6993	21.331642035137	0.008950020517
0	6998	21.340592055654	0.005086154481
0	7003	21.345678210135	0.007268898027
0	7008	21.352947108162	0.007660754407
0	7013	21.360607862569	0.023973487575
0	7021	21.384581350144	0.025088891128
0	7026	21.409670241272	0.003874099818
0	7030	21.41354434109	0.007918895726
0	7035	21.421463236816	0.021487776313
0	7041	21.442951013129	0.004108300605
0	7045	21.447059313734	0.000453943059
0	7048	21.447513256793	0.008207448226
0	7053	21.455720705019	0.055431905121
0	7062	21.51115261014	0.004934548915
0	7066	21.516087159055	0.000684220052
0	7069	21.516771379107	0.010334820664
0	7076	21.527106199771	0.000642389375
0	7079	21.527748589146	0.042349732125
0	7087	21.570098321271	0.002771711547
0	7091	21.572870032818	0.00868283306
0	7096	21.581552865878	0.014016288088
0	7102	21.595569153966	0.006567416872
0	7106	21.602136570838	0.015635072566
0	7112	21.617771643404	0.034204297712
0	7117	21.651975941116	0.005476421174
0	7121	21.65745236229	0.004091009898
0	7126	21.661543372188	0.008794220013
0	7131	21.670337592201	0.006122046335
0	7136	21.676459638536	0.003028978856
0	7139	21.679488617392	0.030326796969
0	7147	21.709815414361	0.012598499879
0	7152	21.72241391424	0.019309799029
0	7157	21.741723713269	0.009090011403
0	7162	21.750813724672	0.010665732808
0	7167	21.76147945748	0.000310034326
0	7171	21.761789491806	0.022387474878
0	7177	21.784176966684	0.00565198246
0	7181	21.789828949144	0.008019607657
0	7186	21.797848556801	0.004705347744
0	7191	21.802553904545	0.009534952825
0	7196	21.81208885737	0.000536578505
0	7201	21.812625435875	0.001071592476
0	7204	21.813697028351	0.004645055569
0	7207	21.81834208392	0.01504460473
0	7214	21.83338668865	0.006298629192
0	7219	21.839685317842	0.012919699536
0	7226	21.852605017378	0.019688650095
0	7232	21.872293667473	0.004377114105
0	7236	21.876670781578	0.014949488722
0	7242	21.8916202703	0.010184622688
0	7247	21.901804892988	0.003297598723
0	7251	21.905102491711	0.025889053909
0	7257	21.93099154562	0.015727973503
0	7262	21.946719519123	0.002106327242
0	7266	21.948825846365	0.005632597292
0	7271	21.954458443657	0.021998601014
0	7277	21.976457044671	0.019697029891
0	7282	21.996154074562	0.001319393632
0	7286	21.997473468194	0.003868658379
0	7289	22.001342126573	0.005630276323
0	7294	22.006972402896	0.004315529872
0	7299	22.011287932768	0.013451137813
0	7306	22.024739070581	0.006110172643
0	7309	22.030849243224	0.017097025562
0	7317	22.047946268786	0.005678646982
0	7321	22.053624915768	0.001430807764
0	7326	22.055055723532	0.007595971222
0	7331	22.062651694754	0.039831060022
0	7337	22.102482754776	0.022201117734
0	7342	22.12468387251	0.036209716987
0	7347	22.160893589497	0.000641309548
0	7351	22.161534899045	0.000583721191
0	7354	22.162118620236	0.025295406958
0	7362	22.187414027194	0.019295054169
0	7367	22.206709081363	0.002831832166
0	7371	22.209540913529	0.060629738985
0	7377	22.270170652514	0.000378671522
0	7381	22.270549324036	2.8298095e-005
0	7384	22.270577622131	0.004903095707
0	7387	22.275480717838	0.008837731113
0	7392	22.284318448951	0.010932034534
0	7399	22.295250483485	0.014788020117
0	7406	22.310038503602	0.00192375745
0	7409	22.311962261052	0.034785558402
0	7417	22.346747819454	0.009499354691
0	7422	22.356247174145	0.010895790896
0	7427	22.367142965041	0.050477530675
0	7432	22.417620495716	0.019105041403
0	7437	22.436725537119	0.034316415649
0	7442	22.471041952768	0.009409721201
0	7447	22.480451673969	0.011358392536
0	7452	22.491810066505	0.000844745352
0	7456	22.492654811857	0.018221347632
0	7462	22.510876159489	0.02497887802
0	7467	22.535855037509	0.020828374973
0	7472	22.556683412482	0.030066455343
0	7477	22.586749867825	0.002068973876
0	7481	22.588818841701	0.057115857791
0	7487	22.645934699492	0.010660278722
0	7492	22.656594978214	0.035416347663
0	7497	22.692011325877	0.001883672335
0	7501	22.693894998212	0.015307705325
0	7507	22.709202703537	0.008084103605
0	7512	22.717286807142	0.008349571402
0	7517	22.725636378544	0.061197486138
0	7522	22.786833864682	0.001536751742
0	7526	22.788370616424	0.01975868907
0	7532	22.808129305494	0.028763491814
0	7537	22.836892797308	0.000949039262
0	7541	22.83784183657	0.010352502771
0	7546	22.848194339341	0.019195928734
0	7552	22.867390268075	0.034920991673
0	7557	22.902311259748	0.013146072169
0	7562	22.915457331917	0.011509495037
0	7567	22.926966826954	0.004327861495
0	7571	22.931294688449	0.011684969833
0	7577	22.942979658282	0.03860909446
0	7582	22.981588752742	0.002704159337
0	7586	22.984292912079	0.02473834127
0	7592	23.009031253349	0.016979930867
0	7597	23.026011184216	0.006833068846
0	7601	23.032844253062	0.016504772491
0	7607	23.049349025553	0.056594961166
0	7612	23.105943986719	0.014523371454
0	7617	23.120467358173	0.024610364302
0	7622	23.145077722475	0.017385201791
0	7628	23.162462924266	0.003060995716
0	7632	23.165523919982	0.008894826508
0	7637	23.17441874649	0.016846209152
0	7643	23.191264955642	0.013937236008
0	7648	23.20520219165	0.008005921643
0	7653	23.213208113293	0.01248247221
0	7658	23.225690585503	0.002472048975
0	7662	23.228162634478	0.010589322117
0	7667	23.238751956595	0.024905624364
0	7673	23.263657580959	0.012586833465
0	7678	23.276244414424	0.012805407849
0	7683	23.289049822273	0.00751086258
0	7688	23.296560684853	0.025227544958
0	7693	23.321788229811	0.005339299317
0	7697	23.327127529128	0.035513506187
0	7703	23.362641035315	0.007074610957
0	7707	23.369715646272	0.033789026082
0	7713	23.403504672354	0.036051049131
0	7718	23.439555721485	0.009398862087
0	7723	23.448954583572	0.011475170425
0	7728	23.460429753997	0.005296648611
0	7732	23.465726402608	0.005307926012
0	7737	23.47103432862	0.008708180432
0	7742	23.479742509052	0.028499160235
0	7748	23.508241669287	0.006089241565
0	7752	23.514330910852	0.009081888577
0	7758	23.523412799429	0.0367277034
0	7763	23.560140502829	0.008866134521
0	7768	23.56900663735	0.000158638148
0	7772	23.569165275498	0.002838887902
0	7775	23.5720041634	0.015742576815
0	7782	23.587746740215	0.002934872853
0	7787	23.590681613068	0.006478879416
0	7790	23.597160492484	0.030165171406
0	7798	23.62732566389	0.010384923989
0	7803	23.637710587879	0.003553340929
0	7808	23.641263928808	0.004215949969
0	7813	23.645479878777	0.020155467481
0	7819	23.665635346258	0.026004265809
0	7824	23.691639612067	0.017152871999
0	7829	23.708792484066	0.004038008544
0	7833	23.71283049261	0.004716121476
0	7838	23.717546614086	0.005766740302
0	7843	23.723313354388	0.028498209194
0	7849	23.751811563582	0.021864156612
0	7854	23.773675720194	0.032867064154
0	7859	23.806542784348	0.000410623114
0	7863	23.806953407462	0.014123469215
0	7869	23.821076876677	0.002128621409
0	7873	23.823205498086	0.002329459029
0	7876	23.825534957115	0.039491820826
0	7884	23.865026777941	0.034770001938
0	7889	23.899796779879	0.024283206918
0	7894	23.924079986797	0.001239321027
0	7898	23.925319307824	0.000332874878
0	7901	23.925652182702	0.003180255885
0	7904	23.928832438587	0.009530653616
0	7911	23.938363092203	0.016882534487
0	7918	23.95524562669	0.016662085078
0	7924	23.971907711768	0.037294817623
0	7929	24.009202529391	0.013635637517
0	7934	24.022838166908	0.017758843158
0	7939	24.040597010066	0.034739153761
0	7944	24.075336163827	0.013685162079
0	7949	24.089021325906	0.050161426635
0	7954	24.139182752541	0.010451834186
0	7959	24.149634586727	0.004325569903
0	7963	24.15396015663	0.020012456342
0	7969	24.173972612972	0.018963598222
0	7974	24.192936211194	0.005839644735
0	7978	24.198775855929	0.008988524736
0	7984	24.207764380665	0.011272678406
0	7989	24.219037059071	0.006411829396
0	7993	24.225448888467	0.050941601452
0	7999	24.276390489919	0.059904007954
0	8004	24.336294497873	0.021547633106
0	8009	24.357842130979	0.002641669492
0	8013	24.360483800471	0.003511305792
0	8016	24.363995106263	0.002427208705
0	8021	24.366422314968	0.000658114844
0	8024	24.367080429812	0.000495015233
0	8027	24.367575445045	0.007713770269
0	8032	24.375289215314	0.028887406642
0	8043	24.404176621956	0.005625888381
0	8048	24.409802510337	0.005298444987
0	8053	24.415100955324	0.013924401044
0	8059	24.429025356368	0.00940913136
0	8064	24.438434487728	0.03699909397
0	8069	24.475433581698	0.017312161615
0	8074	24.492745743313	0.006761562246
0	8078	24.499507305559	0.007736652338
0	8084	24.507243957897	0.001613076059
0	8088	24.508857033956	0.008108484962
0	8093	24.516965518918	0.005233572712
0	8098	24.52219909163	0.004097696891
0	8101	24.526296788521	0.049266542958
0	8110	24.575563331479	0.010958695815
0	8115	24.586522027294	0.005905479018
0	8119	24.592427506312	0.007038055772
0	8124	24.599465562084	0.017287375052
0	8130	24.616752937136	0.006059423512
0	8134	24.622812360648	0.002580581436
0	8139	24.625392942084	0.008907859808
0	8144	24.634300801892	0.009447651186
0	8149	24.643748453078	0.004812908222
0	8154	24.6485613613	0.041136260691
0	8160	24.689697621991	0.024440774496
0	8165	24.714138396487	0.015517418383
0	8170	24.72965581487	0.023348371123
0	8175	24.753004185993	0.007093121129
0	8180	24.760097307122	0.009491095686
0	8185	24.769588402808	0.011795990548
0	8190	24.781384393356	0.009890217123
0	8195	24.791274610479	0.012288468934
0	8200	24.803563079413	0.02691589832
0	8205	24.830478977733	0.005470603276
0	8209	24.835949581009	0.015182566717
0	8215	24.851132147726	0.013658068
0	8220	24.864790215726	0.009202251072
0	8225	24.873992466798	0.007254134752
0	8230	24.88124660155	0.031429051009
0	8235	24.912675652559	0.018070743626
0	8240	24.930746396185	0.003856152318
0	8244	24.934602548503	0.012480520851
0	8250	24.947083069354	0.017573312148
0	8255	24.964656381502	0.003543780467
0	8259	24.968200161969	0.008840279502
0	8264	24.977040441471	0.003490869639
0	8269	24.98053131111	0.014479494872
0	8275	24.995010805982	0.003489062238
0	8279	24.99849986822	0.002711517335
0	8282	25.001211385555	0.022012336607
0	8290	25.023223722162	0.009517245364
0	8295	25.032740967526	0.005078879921
0	8299	25.037819847447	0.008839634123
0	8304	25.04665948157	0.003077150485
0	8309	25.049736632055	0.016670552293
0	8315	25.066407184348	0.00893914707
0	8320	25.075346331418	0.023085753743
0	8325	25.098432085161	0.012225783087
0	8330	25.110657868248	0.008750917668
0	8335	25.119408785916	0.042461694325
0	8340	25.161870480241	0.011710522513
0	8345	25.173581002754	0.000670573772
0	8349	25.174251576526	0.004597144413
0	8353	25.178848720939	0.020332092856
0	8361	25.199180813795	0.043077718946
0	8366	25.242258532741	0.002029003426
0	8370	25.244287536167	0.012730844528
0	8376	25.257018380695	0.027432641504
0	8381	25.284451022199	0.019248388147
0	8386	25.303699410346	0.004760986479
0	8390	25.308460396825	0.03228491103
0	8396	25.340745307855	0.00294254831
0	8400	25.343687856165	0.004991323576
0	8405	25.348679179741	0.061136736271
0	8411	25.409815916012	0.01204753717
0	8416	25.421863453182	0.028438580724
0	8421	25.450302033906	0.018945826353
0	8426	25.469247860259	0.008780908065
0	8431	25.478028768324	0.016474504179
0	8436	25.494503272503	0.003584132804
0	8440	25.498087405307	0.004411478776
0	8445	25.502498884083	0.001496935253
0	8448	25.503995819336	0.02094619638
0	8456	25.524942015716	0.002113140277
0	8460	25.527055155993	0.017052500608
0	8466	25.544107656601	0.053157382877
0	8471	25.597265039478	0.012489763782
0	8476	25.60975480326	0.053319283597
0	8481	25.663074086857	0.00120302167
0	8485	25.664277108527	0.002643597935
0	8488	25.666920706462	0.003776603934
0	8493	25.670697310396	0.025669809822
0	8501	25.696367120218	0.007882290013
0	8506	25.704249410231	0.024412556274
0	8511	25.728661966505	0.013147118567
0	8516	25.741809085072	0.005357667629
0	8520	25.747166752701	0.004215729699
0	8525	25.7513824824	0.027447190626
0	8531	25.778829673026	0.000749527902
0	8535	25.779579200928	0.009633923722
0	8540	25.78921312465	0.000336009219
0	8543	25.789549133869	0.04397244338
0	8551	25.833521577249	0.019485153841
0	8556	25.85300673109	0.011531460123
0	8561	25.864538191213	0.011121307138
0	8566	25.875659498351	0.005708179344
0	8570	25.881367677695	0.006447991693
0	8575	25.887815669388	0.003735030729
0	8580	25.891550700117	0.02383590946
0	8586	25.915386609577	0.001905032414
0	8590	25.917291641991	0.00011266832
0	8593	25.917404310311	0.010504026056
0	8598	25.927908336367	0.034054049488
0	8606	25.961962385855	0.002040606766
0	8610	25.964002992621	0.027138909551
0	8616	25.991141902172	0.004380476657
0	8620	25.995522378829	0.009775530974
0	8625	26.005297909803	0.013898559511
0	8631	26.019196469314	0.001186145905
0	8635	26.020382615219	0.012257937698
0	8640	26.032640552917	0.003657750842
0	8645	26.036298303759	0.032125184327
0	8651	26.068423488086	0.014980496299
0	8656	26.083403984385	0.000106495182
0	8660	26.083510479567	0.019268944
0	8666	26.102779423567	0.005363220198
0	8670	26.108142643765	0.046177435861
0	8676	26.154320079626	0.000259574326
0	8680	26.154579653952	0.012420253088
0	8685	26.16699990704	0.011664415163
0	8691	26.178664322203	0.000627917495
0	8695	26.179292239698	0.000505178053
0	8698	26.179797417751	0.017523579873
0	8705	26.197320997624	0.021686870085
0	8711	26.219007867709	0.017593882482
0	8716	26.236601750191	0.015433677474
0	8721	26.252035427665	1.0881603e-005
0	8725	26.252046309268	0.008866251966
0	8730	26.260912561234	0.011711833244
0	8735	26.272624394478	0.001879108637
0	8740	26.274503503115	0.020159507807
0	8746	26.294663010922	0.010000033069
0	8751	26.304663043991	0.037462455361
0	8756	26.342125499352	0.017641122784
0	8761	26.359766622136	0.012175719541
0	8766	26.371942341677	0.022790552413
0	8771	26.39473289409	0.00670696485
0	8775	26.40143985894	0.006382867657
0	8780	26.407822726597	0.013248493083
0	8786	26.42107121968	6.1087496e-005
0	8790	26.421132307176	0.014326288875
0	8796	26.435458596051	0.001179338342
0	8800	26.436637934393	2.6837465e-005
0	8803	26.436664771858	0.020574359539
0	8811	26.457239131397	0.008213104331
0	8816	26.465452235728	0.014552294073
0	8821	26.480004529801	0.019437570705
0	8826	26.499442100506	0.004686222124
0	8830	26.50412832263	0.02537032465
0	8836	26.52949864728	0.014953123599
0	8841	26.544451770879	0.004827759325
0	8845	26.549279530204	0.009491282838
0	8851	26.558770813042	0.025105889162
0	8856	26.583876702204	0.00802603903
0	8861	26.591902741234	0.025308515854
0	8866	26.617211257088	0.009949897162
0	8871	26.62716115425	0.011548944545
0	8876	26.638710098795	0.002809835765
0	8880	26.64151993456	0.03096513705
0	8886	26.67248507161	0.005951802988
0	8890	26.678436874598	0.012000202478
0	8896	26.690437077076	0.006075051712
0	8900	26.696512128788	0.02983888058
0	8906	26.726351009368	0.000546342667
0	8910	26.726897352035	0.036846645209
0	8916	26.763743997244	0.009606697793
0	8921	26.773350695037	0.008383905447
0	8926	26.781734600484	0.011640538846
0	8932	26.79337513933	0.019976254552
0	8937	26.813351393882	0.009066846532
0	8942	26.822418240414	0.009689774455
0	8947	26.832108014869	0.025360154971
0	8952	26.85746816984	0.011861053523
0	8957	26.869329223363	0.005924829632
0	8961	26.875254052995	0.051851082592
0	8967	26.927105135587	0.032338023495
0	8972	26.959443159082	0.017876343241
0	8977	26.977319502323	0.035828125086
0	8982	27.013147627409	0.003805380884
0	8986	27.016953008293	0.007630123197
0	8991	27.02458313149	0.011962924919
0	8997	27.036546056409	0.008773320101
0	9002	27.04531937651	0.006055906727
0	9006	27.051375283237	0.030244978108
0	9012	27.081620261345	0.016279209418
0	9017	27.097899470763	0.002393252159
0	9021	27.100292722922	0.006626116808
0	9026	27.10691883973	0.002778264982
0	9029	27.109697104712	0.020953760678
0	9037	27.13065086539	0.002110838759
0	9041	27.132761704149	0.007913058277
0	9046	27.140674762426	0.003693330123
0	9049	27.144368092549	0.063727072355
0	9057	27.208095164904	0.009978181836
0	9062	27.21807334674	0.021806886851
0	9067	27.239880233591	0.018568231324
0	9072	27.258448464915	0.008479852189
0	9077	27.266928317104	0.008107308626
0	9082	27.27503562573	0.024537622116
0	9087	27.299573247846	0.020108680882
0	9093	27.319681928728	0.010212189365
0	9098	27.329894118093	0.024187921508
0	9103	27.354082039601	0.020489435167
0	9108	27.374571474768	0.01077591191
0	9114	27.385347386678	0.011681827504
0	9119	27.397029214182	0.020261983035
0	9124	27.417291197217	0.0053339756
0	9128	27.422625172817	0.008862579363
0	9134	27.43148775218	0.018080412695
0	9139	27.449568164875	0.050169952756
0	9144	27.499738117631	0.017825689105
0	9149	27.517563806736	0.018805963777
0	9154	27.536369770513	0.00936730969
0	9159	27.545737080203	0.003190702088
0	9163	27.548927782291	0.000636534071
0	9166	27.549564316362	0.106507657558
0	9174	27.65607197392	0.027161206437
0	9179	27.683233180357	0.007468092528
0	9184	27.690701272885	0.006634086863
0	9188	27.697335359748	0.015463467424
0	9194	27.712798827172	0.004956086028
0	9198	27.7177549132	0.023421568395
0	9204	27.741176481595	0.026914303324
0	9209	27.768090784919	0.006713136585
0	9213	27.774803921504	0.003711826201
0	9218	27.778515747705	0.02879378926
0	9224	27.807309536965	0.029966935435
0	9229	27.8372764724	0.014153255879
0	9234	27.851429728279	0.003108348564
0	9238	27.854538076843	0.035473624985
0	9244	27.890011701828	0.027149754638
0	9249	27.917161456466	0.002051060109
0	9253	27.919212516575	0.013334554269
0	9259	27.932547070844	0.023145993304
0	9264	27.955693064148	0.009409143497
0	9269	27.965102207645	0.023214671826
0	9274	27.988316879471	0.003224530078
0	9278	27.991541409549	0.024799998058
0	9284	28.016341407607	0.00107486575
0	9288	28.017416273357	0.00309113884
0	9291	28.020507412197	0.025448609593
0	9299	28.04595602179	0.006975067373
0	9303	28.052931089163	0.007284505071
0	9309	28.060215594234	0.018144418755
0	9314	28.078360012989	0.005280380218
0	9318	28.083640393207	0.000923761578
0	9321	28.084564154785	0.00568533737
0	9326	28.090249492155	0.059060837983
0	9334	28.149310330138	0.00145773084
0	9338	28.150768060978	0.022496719105
0	9344	28.173264780083	0.011218596963
0	9349	28.184483377046	0.014557363185
0	9354	28.199040740231	0.00036305173
0	9358	28.199403791961	0.021175844787
0	9364	28.220579636748	0.003048783949
0	9368	28.223628420697	1.2236998e-005
0	9371	28.223640657695	0.019958181916
0	9379	28.243598839611	0.002355552649
0	9383	28.24595439226	0.00492877676
0	9388	28.25088316902	0.000801932589
0	9391	28.251685101609	0.009715943661
0	9396	28.26140104527	0.026958478294
0	9404	28.288359523564	0.00035261069
0	9408	28.288712134254	0.047720142965
0	9414	28.336432277219	0.069845239642
0	9420	28.406277516861	0.012837462041
0	9425	28.419114978902	0.014728635049
0	9430	28.433843613951	0.025977961934
0	9435	28.459821575885	0.003352789787
0	9439	28.463174365672	0.006872266701
0	9444	28.470046632373	0.010451472222
0	9449	28.480498104595	0.001355337014
0	9454	28.481853441609	0.012255586302
0	9459	28.494109027911	0.007621586067
0	9464	28.501730613978	0.000328652903
0	9467	28.502059266881	0.071567385698
0	9475	28.573626652579	0.008763116177
0	9480	28.582389768756	0.011052664474
0	9485	28.59344243323	0.039582344909
0	9490	28.633024778139	0.021975487189
0	9495	28.655000265328	0.00791694219
0	9500	28.662917207518	0.032064770497
0	9505	28.694981978015	0.007292250103
0	9510	28.702274228118	0.002441553144
0	9514	28.704715781262	0.008075587806
0	9519	28.712791369068	0.007428043354
0	9524	28.720219412422	0.004094324456
0	9529	28.724313736878	0.057416436841
0	9535	28.781730173719	0.007058839446
0	9539	28.788789013165	0.000693537721
0	9544	28.789482550886	0.001386550307
0	9547	28.790869101193	0.02175967046
0	9555	28.812628771653	0.106827669866
0	9560	28.919456441519	0.011006225809
0	9565	28.930462667328	0.001928571474
0	9569	28.932391238802	0.001341489502
0	9572	28.933732728304	0.0016454542
0	9575	28.935378182504	0.009757979413
0	9582	28.945136161917	0.00102836361
0	9585	28.946164525527	0.000103172846
0	9588	28.946267698373	0.004089345018
0	9591	28.950357043391	0.006151465027
0	9596	28.956508508418	0.017459850106
0	9605	28.973968358524	0.013541880207
0	9612	28.987510238731	0.00501943421
0	9615	28.992529672941	0.011424675927
0	9622	29.003954348868	0.010886689323
0	9627	29.014841038191	0.001215815963
0	9632	29.016056854154	0.009934310971
0	9637	29.025991165125	0.027277672862
0	9645	29.053268837987	0.002938195128
0	9649	29.056207033115	0.002522779416
0	9652	29.058729812531	0.00205577976
0	9657	29.060785592291	0.002369935858
0	9660	29.063155528149	0.03139288759
0	9670	29.094548415739	0.011411349556
0	9675	29.105959765295	0.008584876794
0	9680	29.114544642089	0.00356146401
0	9684	29.118106106099	0.013791787362
0	9690	29.131897893461	0.001462840344
0	9694	29.133360733805	0.041913571736
0	9700	29.175274305541	0.014001053693
0	9705	29.189275359234	0.007517210072
0	9710	29.196792569306	0.020018241521
0	9715	29.216810810827	0.055164143618
0	9720	29.271974954445	0.003223342726
0	9724	29.275198297171	0.015706589111
0	9730	29.290904886282	0.02942232067
0	9735	29.320327206952	0.00605537907
0	9739	29.326382586022	0.039015999876
0	9745	29.365398585898	0.062977616459
0	9750	29.428376202357	0.008035021933
0	9755	29.43641122429	0.00245810017
0	9759	29.43886932446	0.002331735466
0	9762	29.441201059926	0.015981849364
0	9769	29.45718290929	0.012714281836
0	9775	29.469897191126	0.056756046705
0	9780	29.526653237831	0.000657787064
0	9784	29.527311024895	0.025120255653
0	9790	29.552431280548	0.004897103963
0	9794	29.557328384511	0.000405668957
0	9797	29.557734053468	0.016742227229
0	9805	29.574476280697	0.003797860695
0	9809	29.578274141392	0.011496905743
0	9815	29.589771047135	0.012486060542
0	9820	29.602257107677	0.01087290953
0	9825	29.613130017207	0.008869253295
0	9830	29.621999270502	0.018744473939
0	9835	29.640743744441	0.0109054822
0	9840	29.651649226641	0.007495941287
0	9845	29.659145167928	0.00580603532
0	9849	29.664951203248	0.008999787548
0	9855	29.673950990796	0.019920094064
0	9860	29.69387108486	0.002481991385
0	9864	29.696353076245	0.002208907567
0	9867	29.698561983812	0.022373748345
0	9875	29.720935732157	0.014495944311
0	9880	29.735431676468	0.003338172666
0	9884	29.738769849134	0.010324208191
0	9889	29.749094057325	0.032013400707
0	9895	29.781107458032	0.002972558504
0	9899	29.784080016536	0.004974468063
0	9904	29.789054484599	0.008388183322
0	9909	29.797442667921	0.009799516135
0	9914	29.807242184056	0.017631122711
0	9920	29.824873306767	0.040074065399
0	9925	29.864947372166	0.002627090943
0	9929	29.867574463109	0.00499053333
0	9934	29.872564996439	0.038506721967
0	9940	29.911071718406	0.005877813306
0	9944	29.916949531712	0.00728942454
0	9949	29.924238956252	0.033372393142
0	9955	29.957611349394	0.006111775046
0	9959	29.96372312444	0.040437516556
0	9965	30.004160640996	0.068467177212
0	9970	30.072627818208	0.001966522286
0	9974	30.074594340494	0.002920308795
0	9977	30.077514649289	0.007810188873
0	9982	30.085324838162	0.019842837716
0	9990	30.105167675878	0.002545132714
0	9994	30.107712808592	0.012500043173
0	10000	30.120212851765	0.010998535583
0	10005	30.131211387348	0.007750246449
0	10010	30.138961633797	0.003766710588
0	10014	30.142728344385	0.020060757205
0	10020	30.16278910159	0.007723066293
0	10025	30.170512167883	0.005139498942
0	10029	30.175651666825	0.007312801749
0	10034	30.182964468574	0.009573290309
0	10040	30.192537758883	0.007333181893
0	10045	30.199870940776	0.009888808593
0	10050	30.209759749369	0.009145140597
0	10055	30.218904889966	0.003883397047
0	10059	30.222788287013	0.003238335297
0	10064	30.22602662231	0.010501675142
0	10069	30.236528297452	0.010048366145
0	10074	30.246576663597	0.007228489339
0	10079	30.253805152936	0.008373596552
0	10085	30.262178749488	0.032485776884
0	10090	30.294664526372	0.008784766698
0	10095	30.30344929307	0.000578312426
0	10099	30.304027605496	0.08030687694
0	10105	30.384334482436	0.005640307089
0	10109	30.389974789525	0.00401165626
0	10114	30.393986445785	0.012551149777
0	10120	30.406537595562	0.016434744439
0	10125	30.422972340001	0.04703136875
0	10131	30.470003708751	0.010072090504
0	10136	30.480075799255	0.012866753237
0	10141	30.492942552492	0.008507754781
0	10146	30.501450307273	0.001659078214
0	10150	30.503109385487	0.002696048558
0	10153	30.505805434045	0.08099470681
0	10161	30.586800140855	0.019054400515
0	10166	30.60585454137	0.017948851611
0	10171	30.623803392981	0.022328874988
0	10176	30.646132267969	0.017779903954
0	10181	30.663912171923	0.005159811134
0	10185	30.669071983057	0.01073740705
0	10191	30.679809390107	0.001792882047
0	10195	30.681602272154	0.001513111938
0	10198	30.683115384092	0.039857071676
0	10207	30.722972455768	0.017230750912
0	10212	30.74020320668	0.003536956729
0	10216	30.743740163409	0.026686166164
0	10222	30.770426329573	0.013446399851
0	10227	30.783872729424	0.012473005377
0	10232	30.796345734801	0.000501261617
0	10236	30.796846996418	0.001387540752
0	10240	30.79823453717	0.004774210019
0	10243	30.803008747189	0.006688078777
0	10248	30.809696825966	0.004763290948
0	10253	30.814460116914	0.02083342982
0	10262	30.835293546734	0.006006770479
0	10267	30.841300317213	0.002168561994
0	10270	30.843468879207	0.002590701758
0	10275	30.846059580965	0.017170884565
0	10283	30.86323046553	0.003472872945
0	10286	30.866703338475	0.007381454662
0	10291	30.874084793137	0.013996217426
0	10298	30.888081010563	0.008052260604
0	10304	30.896133271167	0.039705073598
0	10309	30.935838344765	0.009937875438
0	10314	30.945776220203	0.003969872342
0	10318	30.949746092545	0.001684547831
[...]
23	17465	52.547819877407	0.012109601409
23	17476	52.554884875388	0.015571828199
23	17478	52.561949873369	0.022441749443
23	17480	52.56901487135	0.028024242021
23	17482	52.576079869331	0.035006859016
23	17484	52.583144867312	0.038942606219
23	17489	52.590209865293	0.007164789497
23	17494	52.597274863274	0.0109421016
23	17499	52.605623285017	0.007064997981
23	17504	52.647072832279	0.007064997981
23	17509	52.65413783026	0.012692877632
23	17514	52.661202828241	0.007158339844
23	17519	52.671330154672	0.007064997981
23	17525	52.709130210607	0.007064997981
23	17530	52.726444888968	0.007064997981
23	17535	52.737720726517	0.007064997981
23	17540	52.766975099331	0.007064997981
23	17545	52.842485151893	0.007064997981
23	17553	52.849550149874	0.013171168202
23	17555	52.856615147855	0.01733392321
23	17560	52.871233773	0.007064997981
23	17565	52.884146488362	0.007064997981
23	17570	52.895427933672	0.007064997981
23	17575	52.908636960428	0.007064997981
23	17580	52.920407292106	0.007064997981
23	17588	52.927472290087	0.014025598641
23	17591	52.934537288068	0.020161163921
23	17596	52.945416705978	0.007064997981
23	17601	52.977688637309	0.007064997981
23	17606	52.98475363529	0.009950715706
23	17611	53.025344838691	0.007064997981
23	17616	53.049809140223	0.007064997981
23	17622	53.056874138204	0.008862091218
23	17630	53.063939136185	0.013837625292
23	17632	53.071004134166	0.015991463745
23	17637	53.078069132147	0.010734620843
23	17642	53.085680338092	0.007064997981
23	17647	53.105858148701	0.007064997981
23	17655	53.112923146682	0.009832156998
23	17657	53.119988144663	0.014700511513
23	17662	53.130068429641	0.007064997981
23	17667	53.138398436862	0.007064997981
23	17672	53.162512686442	0.007064997981
23	17677	53.212086007705	0.007064997981
23	17688	53.219151005686	0.011835717839
23	17690	53.226216003667	0.016019644138
23	17698	53.233281001648	0.022850347323
23	17703	53.240345999629	0.016089408343
23	17705	53.24741099761	0.021942610688
23	17707	53.254475995591	0.027018699417
23	17712	53.261540993572	0.011655145852
23	17717	53.268605991553	0.010138564901
23	17722	53.306885770858	0.007064997981
23	17727	53.325379568492	0.007064997981
23	17732	53.339066716738	0.007064997981
23	17737	53.37232022418	0.007064997981
23	17745	53.379385222161	0.013568550381
23	17747	53.386450220142	0.020372675701
23	17752	53.395909452535	0.007064997981
23	17757	53.402974450516	0.010301531643
23	17762	53.423209706649	0.007064997981
23	17767	53.435138706721	0.007064997981
23	17775	53.442203704702	0.012589539695
23	17777	53.449268702683	0.019013701509
23	17782	53.481983004687	0.007064284993
23	17787	53.48904728968	0.01171107823
23	17792	53.521280936959	0.007064284993
23	17797	53.528345221952	0.007168612526
23	17802	53.54674621626	0.007064284993
23	17807	53.578291061786	0.007064284993
23	17812	53.585915106627	0.007064284993
23	17817	53.628697544161	0.007064284993
23	17822	53.65443346027	0.007064284993
23	17827	53.661497745263	0.009686909537
23	17835	53.668562030256	0.013579556613
23	17837	53.675626315249	0.020408526202
23	17842	53.682792287747	0.007064284993
23	17847	53.68985657274	0.011710136219
23	17852	53.696920857733	0.011836609424
23	17857	53.719632324331	0.007064284993
23	17862	53.726696609324	0.01207757348
23	17867	53.738735672944	0.007064284993
23	17872	53.745799957937	0.012386235365
23	17877	53.755371497865	0.007064284993
23	17882	53.762435782858	0.009908642586
23	17887	53.776619685969	0.007064284993
23	17892	53.783683970962	0.010320583326
23	17897	53.795882202408	0.007064284993
23	17902	53.808276159635	0.007064284993
23	17907	53.815340444628	0.013023062453
23	17912	53.822404729621	0.011313774608
23	17917	53.839651448437	0.007064284993
23	17922	53.890959581054	0.007064284993
23	17927	53.898023866047	0.009229021288
23	17932	53.90508815104	0.008991669934
23	17937	53.913708443507	0.007064284993
23	17945	53.9207727285	0.01090372583
23	17950	53.927837013493	0.017721866638
23	17952	53.934901298486	0.019610944467
23	17957	53.958806462566	0.007064284993
23	17962	53.965870747559	0.009219593952
23	17967	54.006539899133	0.007064284993
23	17972	54.013604184126	0.00877063931
23	17977	54.022153158219	0.007064284993
23	17982	54.058803790769	0.007064284993
23	17987	54.080861687641	0.007064284993
23	17992	54.087925972634	0.012071916258
23	17997	54.097972304882	0.007064284993
23	18002	54.105582653839	0.007064284993
23	18007	54.150887241777	0.007064284993
23	18012	54.180895347754	0.007064284993
23	18017	54.187959632747	0.008933156041
23	18022	54.198028098887	0.007064284993
23	18027	54.20509238388	0.011285306397
23	18032	54.243739268463	0.007064284993
23	18037	54.250803553456	0.007154068523
23	18042	54.260337291431	0.007064284993
23	18047	54.267401576424	0.009033498825
23	18052	54.294371513063	0.007064284993
23	18057	54.301435798056	0.009871827662
23	18065	54.308500083049	0.013781761832
23	18070	54.315564368042	0.015928488105
23	18072	54.322628653035	0.015371859944
23	18078	54.329692938028	0.013533861907
23	18089	54.336757223021	0.011536743895
23	18091	54.343821508014	0.017457173759
23	18093	54.350885793007	0.023734731102
23	18098	54.361748322335	0.007064284993
23	18103	54.368812607328	0.013114251083
23	18108	54.379157068645	0.007064284993
23	18113	54.386221353638	0.012613140654
23	18118	54.414476927472	0.007064284993
23	18123	54.422511034098	0.007064284993
23	18128	54.429575319091	0.013523743712
23	18133	54.447247288292	0.007064284993
23	18138	54.454473542176	0.007064284993
23	18143	54.46360745311	0.007064284993
23	18148	54.470671738103	0.011349299852
23	18153	54.478610313187	0.007064284993
23	18158	54.51326380475	0.007064284993
23	18163	54.520328089743	0.01137654283
23	18168	54.527392374736	0.011043925867
23	18173	54.534456659729	0.009750577842
23	18178	54.553238129981	0.007064284993
23	18183	54.563623109246	0.007064284993
23	18188	54.581118970954	0.007064284993
23	18193	54.603061741395	0.007064284993
23	18198	54.634957388108	0.007064284993
23	18203	54.655245090028	0.007064284993
23	18208	54.670393218035	0.007064284993
23	18213	54.677457503028	0.01345570841
23	18218	54.706565911544	0.007064284993
23	18223	54.713630196537	0.011021460745
23	18228	54.723265461033	0.007064284993
23	18233	54.731272440096	0.007064284993
23	18238	54.738336725089	0.009575014089
23	18243	54.785143385809	0.007064284993
23	18249	54.85814405512	0.007166990888
23	18254	54.865311046008	0.01216089517
23	18259	54.897686227665	0.007232899359
23	18264	54.904919127024	0.009789855077
23	18269	54.912164003861	0.012235060161
23	18274	54.91942089791	0.009059083714
23	18280	54.984261996333	0.007349853003
23	18285	54.995819211015	0.007351396765
23	18290	55.006723958384	0.00735216889
23	18295	55.014076127274	0.009561116422
23	18300	55.033677381908	0.007354486237
23	18305	55.041031868145	0.012457369677
23	18310	55.051891191015	0.00735525901
23	18315	55.059246450025	0.014358939257
23	18320	55.073947026494	0.007357578306
23	18325	55.0813046048	0.010876778508
23	18333	55.088662183106	0.013025987843
23	18335	55.096020534835	0.019179698828
23	18340	55.114879628643	0.007360672976
23	18345	55.160738779306	0.007364544976
23	18350	55.168103324282	0.010788446783
23	18358	55.175467869258	0.01460246593
23	18360	55.182833189123	0.021713342466
23	18365	55.190446899797	0.007366870133
23	18370	55.205208416848	0.007367645511
23	18375	55.212576062359	0.009884052639
23	18380	55.224372287973	0.007369196758
23	18385	55.234777671634	0.007369972626
23	18390	55.24214764426	0.009601169223
23	18395	55.273821974281	0.007373077733
23	18400	55.281195052014	0.012635760839
23	18405	55.290278533226	0.007374631268
23	18410	55.314986805602	0.007376962799
23	18415	55.331441206745	0.007377740304
23	18420	55.338818947049	0.012591686168
23	18425	55.346197465021	0.009952840082
23	18430	55.353576760825	0.008253065033
23	18435	55.371747098335	0.007381630286
23	18440	55.391268669696	0.007383187427
23	18445	55.398651857123	0.011588388602
23	18450	55.426069860238	0.007385524372
23	18455	55.43345538461	0.014046530351
23	18460	55.440841688293	0.008025066242
23	18465	55.44822877145	0.013388324973
23	18470	55.476657027352	0.007389422569
23	18475	55.509103486621	0.007392544091
23	18480	55.520259415228	0.007393324884
23	18485	55.535590471022	0.007394886964
23	18490	55.558576108084	0.007396449704
23	18495	55.591261232027	0.007398795053
23	18503	55.59866002708	0.009831014934
23	18505	55.606059604247	0.015638911861
23	18510	55.619537634898	0.00740114189
23	18515	55.638531884944	0.007402707276
23	18520	55.650369886612	0.007403490217
23	18525	55.657773376829	0.013155114398
23	18530	55.66564766287	0.007405056596
23	18535	55.673052719466	0.008477749286
23	18540	55.704078254792	0.007408191343
23	18545	55.751203931561	0.007412113511
23	18550	55.766164289874	0.007412898443
23	18555	55.779361036814	0.007414468806
23	18560	55.78677550562	0.011066391107
23	18565	55.811132362183	0.007416825599
23	18570	55.821453783792	0.007417611529
23	18575	55.835496045191	0.00741918389
23	18580	55.847848739358	0.00741997032
23	18585	55.857868786584	0.007420756917
23	18590	55.868706314498	0.007421543681
23	18595	55.883166730213	0.007423117709
23	18600	55.89245944907	0.007423117709
23	18605	55.920680146451	0.007425480004
23	18610	55.938166271088	0.007427055703
23	18615	55.974881251205	0.007430209107
23	18620	55.991494045875	0.007431786814
23	18625	55.998925832689	0.008915236066
23	18630	56.006358408607	0.012619528646
23	18635	56.019327897605	0.00743415463
23	18640	56.050242120048	0.007436523956
23	18645	56.057678644004	0.009815959526
23	18650	56.07032891499	0.007438104346
23	18655	56.077767019336	0.011869228751
23	18660	56.085205914129	0.011418142989
23	18665	56.116617057213	0.007442058261
23	18670	56.133275356605	0.007442849548
23	18675	56.140718206153	0.013507899926
23	18680	56.188106502067	0.007447600809
23	18685	56.219252717082	0.007449978714
23	18693	56.226702695796	0.012526351476
23	18695	56.234153467483	0.017582398168
23	18700	56.283745953068	0.007455533071
23	18705	56.291201486139	0.012651248532
23	18710	56.298657813365	0.014645727581
23	18718	56.306114934916	0.011676328002
23	18720	56.313572056467	0.016763228636
23	18725	56.321029972512	0.008328774326
23	18730	56.328488683221	0.00827352896
23	18738	56.335948188762	0.013298282387
23	18740	56.343407694303	0.016749756903
23	18745	56.35644593346	0.007461891056
23	18750	56.363907824516	0.011904811321
23	18755	56.397212909585	0.007465074118
23	18760	56.421288383654	0.007466666667
23	18765	56.428755050321	0.011287265251
23	18770	56.44243026791	0.007468259895
23	18775	56.449898527805	0.009774030506
23	18780	56.474971514825	0.007471448394
23	18785	56.487273831115	0.007472245944
23	18790	56.501634611162	0.007473841555
23	18795	56.520026414656	0.007474639616
23	18800	56.533763392221	0.007476236249
23	18805	56.54123962847	0.013118239502
23	18813	56.548716663292	0.013517113479
23	18815	56.556193698114	0.018925340954
23	18820	56.599023009796	0.007481829842
23	18825	56.606504839638	0.013554491936
23	18830	56.614463837898	0.00748262961
23	18835	56.671726592612	0.007487431811
23	18840	56.679214024423	0.011052693428
23	18845	56.719820049835	0.007491438356
23	18850	56.733309270817	0.007493042175
23	18855	56.744816833291	0.007493844342
23	18863	56.752310677633	0.010790860628
23	18868	56.759805324314	0.015730375704
23	18874	56.767299970995	0.021597999131
23	18876	56.774795420187	0.017336012734
23	18887	56.782291672061	0.01162635299
23	18889	56.789788726789	0.017611739146
23	18891	56.797285781517	0.024326410103
23	18896	56.804783639272	0.010533551006
23	18901	56.812282300225	0.014431019147
23	18906	56.900314154107	0.007506702413
23	18911	56.909491627658	0.007507507508
23	18919	56.916999135166	0.008824172952
23	18921	56.924507447941	0.015342841408
23	18926	56.932015760716	0.013351286385
23	18931	56.952475163148	0.007510729614
23	18936	56.968526748459	0.007512341704
23	18941	56.982841542328	0.007513148009
23	18946	57.006252891002	0.007515567962
23	18951	57.041934394062	0.007518796992
23	18956	57.049453191054	0.009851263699
23	18961	57.065587292654	0.007520412548
23	18966	57.100125250215	0.007523645744
23	18971	57.1179683583	0.007524454477
23	18977	57.160280044994	0.007528500753
23	18982	57.167808545747	0.010988347367
23	18987	57.193882296154	0.007530930608
23	18992	57.221826582687	0.007533362032
23	18997	57.229359944719	0.014422407393
23	19002	57.236894117574	0.007873976354
23	19007	57.244429101428	0.01455686042
23	19012	57.267053668749	0.007537417896
23	19017	57.284853443648	0.007539041465
23	19022	57.306455062211	0.007540665733
23	19027	57.316679479552	0.00754147813
23	19032	57.333484170396	0.007543103448
23	19037	57.341027273844	0.010471095932
23	19045	57.348571190214	0.014370645359
23	19050	57.356115106584	0.018545919851
23	19052	57.363659836052	0.015354469339
23	19057	57.387504163571	0.007547169811
23	19062	57.395051333382	0.008066234622
23	19067	57.408441095931	0.007549611734
23	19073	57.454430504525	0.007552870091
23	19078	57.463022247537	0.007553685119
23	19083	57.470575932656	0.0078302602
23	19088	57.48935264473	0.007556131261
23	19093	57.537051941792	0.007560211686
23	19098	57.549469836796	0.0075610283
23	19103	57.561998461035	0.00756184509
23	19108	57.574677903039	0.0075634792
23	19113	57.605463589971	0.00756593169
23	19118	57.613029521661	0.010840027919
23	19123	57.636019197614	0.007568385771
23	19128	57.643587583385	0.012069537074
23	19133	57.651156787537	0.010909021165
23	19138	57.658726810247	0.01285265903
23	19143	57.694202822202	0.007573298713
23	19148	57.742862402201	0.007577397705
23	19153	57.777927790875	0.007580680095
23	19158	57.78550847097	0.010297271986
23	19163	57.794707900429	0.007582322357
23	19171	57.802290222786	0.011175529159
23	19176	57.809872545143	0.017681121163
23	19178	57.817455688898	0.019480353392
23	19183	57.834395638292	0.007585609016
23	19188	57.847546726601	0.007586431126
23	19193	57.855133157727	0.01233519654
23	19198	57.86766714203	0.007588075881
23	19203	57.876857024373	0.007588898526
23	19208	57.895196347581	0.00759054435
23	19213	57.914192748115	0.007592190889
23	19218	57.934803686017	0.007593838143
23	19223	57.955869948654	0.007595486111
23	19228	57.965970722071	0.007596310364
23	19233	57.982948922902	0.007597959405
23	19238	57.990546882307	0.00875627045
23	19252	57.998145666502	0.013324873234
23	19254	58.005745275665	0.02068914244
23	19259	58.013344884828	0.026903500253
23	19261	58.020945319139	0.032008739457
23	19263	58.028546578776	0.028853750428
23	19268	58.078574735409	0.007606215365
23	19273	58.10646313462	0.007608695652
23	19278	58.114741496633	0.007609522774
23	19283	58.143340559562	0.00761200522
23	19288	58.151181010226	0.00761200522
23	19293	58.208384122827	0.007616974973
23	19298	58.236815284686	0.007619462284
23	19303	58.24443474697	0.008116940099
23	19308	58.252055038718	0.01405327235
23	19316	58.259676160112	0.012515637023
23	19324	58.267298111332	0.01975999986
23	19326	58.274920062552	0.022648822255
23	19328	58.282542843778	0.024082176792
23	19333	58.290166455192	0.011307221853
23	19338	58.300095243495	0.007625272331
23	19346	58.307720515826	0.013064174272
23	19348	58.315346618887	0.018696481302
23	19356	58.322972721948	0.009936056871
23	19361	58.330599655921	0.015395884476
23	19363	58.338227420986	0.022446896401
23	19368	58.363399864628	0.007630259429
23	19376	58.371030124057	0.014828271237
23	19378	58.378661215303	0.017676265522
23	19383	58.388853296749	0.007632755425
23	19388	58.396486052174	0.012238773803
23	19393	58.410477879503	0.007634420329
23	19398	58.427596311538	0.007636085961
23	19403	58.435232397499	0.011081058739
23	19408	58.452962062855	0.00763858577
23	19413	58.471519995723	0.00764025322
23	19418	58.489393867596	0.007641921397
23	19423	58.506337517782	0.007642755759
23	19428	58.513980273541	0.013864814517
23	19433	58.521623863845	0.009670126944
23	19438	58.542594913328	0.00764609503
23	19443	58.567812298336	0.007648601399
23	19448	58.575460899735	0.010968124164
23	19453	58.583109501134	0.012519070646
23	19458	58.614044784936	0.00765194578
23	19463	58.626042538975	0.007653619068
23	19468	58.680703751784	0.007657805492
23	19476	58.688361557276	0.013609472214
23	19478	58.696020200602	0.019437069237
23	19483	58.72683992515	0.007661996497
23	19488	58.734501921647	0.015092588088
23	19493	58.74781794559	0.007663674184
23	19498	58.76743882024	0.007665352606
23	19509	58.775104172846	0.014267555573
23	19511	58.782770364939	0.018266326662
23	19516	58.790437396702	0.024122676239
23	19518	58.79810526832	0.017807761315
23	19523	58.813066363757	0.007669551879
23	19528	58.820735915636	0.01368919635
23	19533	58.832957501138	0.007671232877
23	19538	58.840628734015	0.007917018485
23	19543	58.850052814783	0.007672914611
23	19548	58.882721117155	0.007675438596
23	19553	58.908127175641	0.007677964243
23	19558	58.92332401401	0.007678806494
23	19563	58.935257465017	0.007680491551
23	19568	58.973152692381	0.007683863886
23	19573	58.981485998323	0.007683863886
23	19578	58.992922455418	0.007685551164
23	19586	59.000608006582	0.013264531875
23	19588	59.008293557746	0.015504847616
23	19593	59.02537538441	0.007688083471
23	19598	59.053025126147	0.007690617447
23	19603	59.068015900845	0.007691462477
23	19608	59.075707363322	0.009546056573
23	19613	59.085511730231	0.007693153094
23	19618	59.117485121101	0.007696536559
23	19623	59.12518165766	0.012758046005
23	19628	59.132878194219	0.014482573678
23	19633	59.167844351179	0.007700770077
23	19638	59.175545121256	0.014090046911
23	19643	59.201490712264	0.007703312424
23	19648	59.209194024688	0.009369811743
23	19659	59.216898184935	0.011880581328
23	19661	59.22460319319	0.019257557862
23	19663	59.232309049641	0.025349896324
23	19668	59.251157674484	0.007707553402
23	19673	59.258865227886	0.011917788123
23	19681	59.266573630044	0.012281048922
23	19683	59.274282881145	0.016327429955
23	19691	59.281992981376	0.014579952832
23	19693	59.289703930924	0.015462442933
23	19698	59.297414880472	0.011127687366
23	19703	59.322350510001	0.007714348689
23	19708	59.340048881489	0.007716049383
23	19713	59.367837325361	0.00771860183
23	19718	59.388195471671	0.007720304401
23	19726	59.395915776072	0.012445962568
23	19731	59.403636080473	0.018666750137
23	19733	59.41135723644	0.022083853074
23	19738	59.419079244162	0.014458199912
23	19743	59.448293004182	0.007725416621
23	19748	59.47845887267	0.00772797527
23	19753	59.48618684794	0.013707837282
23	19758	59.49391567647	0.009814234612
23	19763	59.501645358449	0.01190911453
23	19768	59.513029715283	0.007731389441
23	19773	59.526508643476	0.007732243455
23	19778	59.544497561476	0.007733952049
23	19783	59.552231513525	0.008401655437
23	19788	59.56415101608	0.007735661399
23	19793	59.575682767326	0.007736516357
23	19801	59.583419283683	0.01385946986
23	19806	59.591156655187	0.015510141878
23	19808	59.598894882028	0.019979737327
23	19813	59.606633108869	0.011585054673
23	19818	59.618010265615	0.00773993808
23	19823	59.627965964297	0.007740793984
23	19828	59.654992949575	0.007743362832
23	19833	59.662736312407	0.011591941885
23	19838	59.677478762572	0.007745933385
23	19846	59.685224695957	0.012026319772
23	19848	59.692970629342	0.019192537568
23	19853	59.700717419957	0.007825872149
23	19858	59.709510803617	0.007748505645
23	19866	59.717259309262	0.008916889448
23	19868	59.725008672707	0.015843915179
23	19873	59.732758894142	0.013762643061
23	19878	59.749299094764	0.007751937984
23	19883	59.757051032748	0.012896211546
23	19891	59.764803829292	0.014431287002
23	19893	59.772557484587	0.019288924433
23	19901	59.780311139882	0.011392988513
23	19906	59.788065654117	0.016000029547
23	19908	59.795821027483	0.020830943392
23	19913	59.824475086582	0.007758811793
23	19918	59.835823553405	0.007759671877
23	19923	59.850847380355	0.007761392616
23	19928	59.879383915412	0.007763114118
23	19933	59.88714702953	0.007868372543
23	19938	59.894911004685	0.014178423491
23	19946	59.902675841069	0.010575678484
23	19951	59.910441538872	0.017255835899
23	19953	59.918208098286	0.019267440885
23	19958	59.945743905831	0.007769145394
23	19963	59.953719668975	0.00777000777
23	19968	59.971226913842	0.007771733096
23	19973	59.989197545992	0.007773459189

