version 2
run Non-monitoring-3-20210208-19:10:39-19752
attr configname Non-monitoring
attr datetime 20210208-19:10:39
attr experiment Non-monitoring
attr inifile aerocom.ini
attr iterationvars ""
attr iterationvarsf ""
attr measurement ""
attr network Aerocom
attr processid 19752
attr repetition 3
attr replication #3
attr resultdir results
attr runnumber 3
attr seedset 3
param **.t 1s
param **.k 15ms
param **.nA 1
param **.nDL 10
param **.s "70 byte"
param **.X 5s
param **.dimPoolMax 10000
param **.dimPoolMin 8000
param **.tDistribution "\"lognormal\""
param **.m 1s
param **.DLMaxCapacity 0
param **.trasmitting false
param **.operationMode 1

vector 0 Aerocom.aircraft[0].packetGenerator arrivalTime:vector ETV
attr "" ""
attr source computeArrivalTime
vector 1 Aerocom.aircraft[0].dataLink[0] serviceTime:vector ETV
attr "" ""
attr source computeServiceTime
vector 2 Aerocom.aircraft[0].dataLink[0] tDistribution:vector ETV
attr "" ""
attr source computeTDistribution
vector 3 Aerocom.aircraft[0].dataLink[1] serviceTime:vector ETV
attr "" ""
attr source computeServiceTime
vector 4 Aerocom.aircraft[0].dataLink[1] tDistribution:vector ETV
attr "" ""
attr source computeTDistribution
vector 5 Aerocom.aircraft[0].dataLink[2] serviceTime:vector ETV
attr "" ""
attr source computeServiceTime
vector 6 Aerocom.aircraft[0].dataLink[2] tDistribution:vector ETV
attr "" ""
attr source computeTDistribution
vector 7 Aerocom.aircraft[0].dataLink[3] serviceTime:vector ETV
attr "" ""
attr source computeServiceTime
vector 8 Aerocom.aircraft[0].dataLink[3] tDistribution:vector ETV
attr "" ""
attr source computeTDistribution
vector 9 Aerocom.aircraft[0].dataLink[4] serviceTime:vector ETV
attr "" ""
attr source computeServiceTime
vector 10 Aerocom.aircraft[0].dataLink[4] tDistribution:vector ETV
attr "" ""
attr source computeTDistribution
vector 11 Aerocom.aircraft[0].dataLink[5] serviceTime:vector ETV
attr "" ""
attr source computeServiceTime
vector 12 Aerocom.aircraft[0].dataLink[5] tDistribution:vector ETV
attr "" ""
attr source computeTDistribution
vector 13 Aerocom.aircraft[0].dataLink[6] serviceTime:vector ETV
attr "" ""
attr source computeServiceTime
vector 14 Aerocom.aircraft[0].dataLink[6] tDistribution:vector ETV
attr "" ""
attr source computeTDistribution
vector 15 Aerocom.aircraft[0].dataLink[7] serviceTime:vector ETV
attr "" ""
attr source computeServiceTime
vector 16 Aerocom.aircraft[0].dataLink[7] tDistribution:vector ETV
attr "" ""
attr source computeTDistribution
vector 17 Aerocom.aircraft[0].dataLink[8] serviceTime:vector ETV
attr "" ""
attr source computeServiceTime
vector 18 Aerocom.aircraft[0].dataLink[8] tDistribution:vector ETV
attr "" ""
attr source computeTDistribution
vector 19 Aerocom.aircraft[0].dataLink[9] serviceTime:vector ETV
attr "" ""
attr source computeServiceTime
vector 20 Aerocom.aircraft[0].dataLink[9] tDistribution:vector ETV
attr "" ""
attr source computeTDistribution
vector 21 Aerocom.aircraft[0].dataLink[9] queueLength:vector ETV
attr "" ""
attr source computeQueueLength
vector 22 Aerocom.aircraft[0].dataLink[9] waitingTime:vector ETV
attr "" ""
attr source computeWaitingTime
vector 23 Aerocom.aircraft[0].dataLink[9] responseTime:vector ETV
attr "" ""
attr source computeResponseTime
0	0	0	0.000156425172
0	12	0.000156425172	0.005690577289
0	16	0.005847002461	0.031624911183
0	22	0.037471913644	0.007024903876
0	26	0.04449681752	0.045228017349
0	33	0.089724834869	0.051585394605
0	38	0.141310229474	0.018015027917
0	43	0.159325257391	0.018137215013
0	48	0.177462472404	0.012756134176
0	53	0.19021860658	0.002182760854
0	57	0.192401367434	0.03424278463
0	63	0.226644152064	0.002192858821
0	67	0.228837010885	0.016489641563
0	73	0.245326652448	0.045180107421
0	79	0.290506759869	0.018181456623
0	84	0.308688216492	0.043051543158
0	89	0.35173975965	0.007328066935
0	94	0.359067826585	0.014895593478
0	99	0.373963420063	0.017784071747
0	104	0.39174749181	0.012481646504
0	109	0.404229138314	0.026133440352
0	115	0.430362578666	0.021723720499
0	120	0.452086299165	0.042332840125
0	125	0.49441913929	0.00705507951
0	129	0.5014742188	0.024424707022
0	136	0.525898925822	0.001654891664
0	140	0.527553817486	0.002788371553
0	143	0.530342189039	0.001239576069
0	146	0.531581765108	0.011043473297
0	153	0.542625238405	0.001051019704
0	156	0.543676258109	0.043648112851
0	167	0.58732437096	0.00352571493
0	171	0.59085008589	0.029581093173
0	177	0.620431179063	0.038898764503
0	182	0.659329943566	0.053027450735
0	187	0.712357394301	0.059145392924
0	192	0.771502787225	0.003078480497
0	196	0.774581267722	0.01661315831
0	202	0.791194426032	0.004178172678
0	206	0.79537259871	0.013075188934
0	212	0.808447787644	0.031000940732
0	217	0.839448728376	0.023721319155
0	222	0.863170047531	0.035511219993
0	228	0.898681267524	0.013021804725
0	233	0.911703072249	0.006390420218
0	237	0.918093492467	0.001161500136
0	242	0.919254992603	0.009341301476
0	247	0.928596294079	0.002616551508
0	250	0.931212845587	0.014144824854
0	257	0.945357670441	0.008560989433
0	262	0.953918659874	0.010286071858
0	268	0.964204731732	0.013512321934
0	273	0.977717053666	0.009750568671
0	278	0.987467622337	0.002265102231
0	282	0.989732724568	0.008578697152
0	287	0.99831142172	0.034378088327
0	293	1.032689510047	0.030650497198
0	298	1.063340007245	0.057749478607
0	303	1.121089485852	0.00311198103
0	307	1.124201466882	0.039832839596
0	313	1.164034306478	0.017455620954
0	318	1.181489927432	0.007482989525
0	323	1.188972916957	0.018237097052
0	328	1.207210014009	0.005123405834
0	332	1.212333419843	0.038894076633
0	338	1.251227496476	0.00571347147
0	342	1.256940967946	0.00060381382
0	345	1.257544781766	0.065020711809
0	354	1.322565493575	0.015243903337
0	359	1.337809396912	0.002797006612
0	363	1.340606403524	0.00929002362
0	368	1.349896427144	0.004921891884
0	373	1.354818319028	0.000817784074
0	376	1.355636103102	0.007748054172
0	381	1.363384157274	0.00059001715
0	384	1.363974174424	0.016799729422
0	391	1.380773903846	0.002786477688
0	396	1.383560381534	0.004108821095
0	399	1.387669202629	0.023738134709
0	409	1.411407337338	0.002930378932
0	413	1.41433771627	0.002661909745
0	416	1.416999626015	0.002060617585
0	421	1.4190602436	0.002240360039
0	424	1.421300603639	0.001089940441
0	427	1.42239054408	0.006529209452
0	432	1.428919753532	0.01514142836
0	439	1.444061181892	0.009939224655
0	444	1.454000406547	0.030617049684
0	454	1.484617456231	0.017946836212
0	459	1.502564292443	0.006560059667
0	463	1.50912435211	0.024228553274
0	469	1.533352905384	0.000531021901
0	473	1.533883927285	0.004654527264
0	476	1.538538454549	0.02265823446
0	484	1.561196689009	0.036032138831
0	489	1.59722882784	0.009713859873
0	494	1.606942687713	0.000346986898
0	498	1.607289674611	0.001108245846
0	501	1.608397920457	0.007053000872
0	506	1.615450921329	0.035036916134
0	514	1.650487837463	0.003340279697
0	518	1.65382811716	0.02446314384
0	524	1.678291261	0.00629662286
0	528	1.68458788386	6.8614381e-005
0	531	1.684656498241	0.00880783472
0	538	1.693464332961	0.003682324989
0	541	1.69714665795	0.010341499585
0	548	1.707488157535	0.019615856644
0	554	1.727104014179	0.008025399995
0	559	1.735129414174	0.005779539916
0	563	1.74090895409	0.003616862875
0	568	1.744525816965	0.011939950758
0	573	1.756465767723	0.003662438366
0	578	1.760128206089	0.000561978917
0	581	1.760690185006	0.003965482952
0	586	1.764655667958	0.025493061447
0	594	1.790148729405	0.019589286762
0	599	1.809738016167	0.010945519433
0	604	1.8206835356	0.008065725528
0	609	1.828749261128	0.010994356692
0	614	1.83974361782	0.013152379165
0	619	1.852895996985	0.027150537287
0	624	1.880046534272	0.010228261029
0	629	1.890274795301	0.000122675939
0	633	1.89039747124	0.008433015722
0	638	1.898830486962	0.006166142742
0	643	1.904996629704	0.019907131925
0	649	1.924903761629	0.012822939453
0	654	1.937726701082	0.012186276367
0	659	1.949912977449	0.002174133644
0	663	1.952087111093	0.005406601297
0	668	1.95749371239	0.002381212451
0	671	1.959874924841	0.053002873197
0	679	2.012877798038	0.000838454813
0	683	2.013716252851	0.003820337802
0	686	2.017536590653	0.012205171123
0	693	2.029741761776	0.002240890466
0	696	2.031982652242	0.04942484833
0	704	2.081407500572	0.01431504839
0	709	2.095722548962	0.018909892935
0	714	2.114632441897	0.01015700925
0	719	2.124789451147	0.012598579313
0	724	2.13738803046	0.003034547088
0	728	2.140422577548	0.023262186933
0	734	2.163684764481	0.001736391181
0	738	2.165421155662	0.072267188066
0	744	2.237688343728	0.011634096697
0	749	2.249322440425	0.000606539305
0	753	2.24992897973	0.005122558014
0	756	2.255051537744	0.004957541266
0	761	2.26000907901	0.001631395071
0	764	2.261640474081	0.018058636859
0	773	2.27969911094	0.010117871309
0	778	2.289816982249	0.002424364212
0	781	2.292241346461	0.014998822727
0	788	2.307240169188	0.025108240552
0	794	2.33234840974	0.000580632523
0	798	2.332929042263	0.000454941934
0	801	2.333383984197	0.010400445596
0	806	2.343784429793	0.027163921919
0	814	2.370948351712	0.00130860906
0	818	2.372256960772	0.006564960133
0	823	2.378821920905	0.023504172342
0	829	2.402326093247	0.013460592285
0	834	2.415786685532	0.021284496564
0	839	2.437071182096	0.000109686416
0	843	2.437180868512	0.00456272607
0	846	2.441743594582	0.025023060411
0	854	2.466766654993	0.001594724377
0	858	2.46836137937	0.042044679414
0	864	2.510406058784	0.037368587224
0	869	2.547774646008	0.002597899931
0	873	2.550372545939	0.010930379197
0	878	2.561302925136	0.059093323415
0	884	2.620396248551	0.002150084294
0	888	2.622546332845	0.034583780431
0	894	2.657130113276	0.001790930105
0	898	2.658921043381	0.001071541345
0	901	2.659992584726	0.027643374077
0	909	2.687635958803	0.019720674387
0	914	2.70735663319	0.011847340766
0	919	2.719203973956	0.009113125664
0	924	2.72831709962	0.004537196868
0	928	2.732854296488	0.021430783512
0	935	2.75428508	0.005649942222
0	939	2.759935022222	0.02480164285
0	945	2.784736665072	0.02352610841
0	950	2.808262773482	0.006788205465
0	954	2.815050978947	0.010191348303
0	960	2.82524232725	0.038252802619
0	965	2.863495129869	0.050354053487
0	971	2.913849183356	0.000638446809
0	975	2.914487630165	0.03499900348
0	981	2.949486633645	0.032129784498
0	986	2.981616418143	0.004311322858
0	990	2.985927741001	0.012592768649
0	996	2.99852050965	0.011056088019
0	1001	3.009576597669	0.000214460629
0	1005	3.009791058298	0.01057057622
0	1010	3.020361634518	0.012673989789
0	1016	3.033035624307	0.025155434383
0	1021	3.05819105869	0.027959474683
0	1026	3.086150533373	0.001140168816
0	1030	3.087290702189	0.001191028682
0	1033	3.088481730871	0.027137277212
0	1041	3.115619008083	0.022552811221
0	1047	3.138171819304	0.007821254454
0	1052	3.145993073758	0.025067396765
0	1057	3.171060470523	0.000556982928
0	1061	3.171617453451	0.019783186122
0	1067	3.191400639573	0.021867120334
0	1073	3.213267759907	0.023542485346
0	1078	3.236810245253	0.037686428912
0	1083	3.274496674165	0.012851817975
0	1088	3.28734849214	0.012321037709
0	1093	3.299669529849	0.009914505473
0	1098	3.309584035322	0.051499130767
0	1103	3.361083166089	0.001864960003
0	1107	3.362948126092	0.005530873427
0	1112	3.368478999519	0.045589796499
0	1118	3.414068796018	0.006207524774
0	1122	3.420276320792	0.005222091545
0	1127	3.425498412337	0.019689069558
0	1133	3.445187481895	0.002775732156
0	1137	3.447963214051	0.01812824442
0	1143	3.466091458471	0.004558738168
0	1147	3.470650196639	0.019383806949
0	1153	3.490034003588	0.005353078433
0	1157	3.495387082021	0.033656642697
0	1163	3.529043724718	0.001100547139
0	1167	3.530144271857	0.01891603783
0	1173	3.549060309687	0.004994909088
0	1177	3.554055218775	0.017192766207
0	1183	3.571247984982	0.048783330445
0	1188	3.620031315427	0.02778380944
0	1193	3.647815124867	0.057784620636
0	1199	3.705599745503	0.005408069288
0	1203	3.711007814791	0.000499755782
0	1206	3.711507570573	0.026472195051
0	1214	3.737979765624	0.055361043112
0	1219	3.793340808736	0.004209992057
0	1223	3.797550800793	0.017390119912
0	1229	3.814940920705	0.01824982799
0	1234	3.833190748695	0.014661178979
0	1239	3.847851927674	0.011514448472
0	1244	3.859366376146	0.00240164743
0	1248	3.861768023576	0.007190134919
0	1253	3.868958158495	0.007843443141
0	1258	3.876801601636	0.002951503667
0	1261	3.879753105303	0.008619066432
0	1268	3.888372171735	0.032551211992
0	1274	3.920923383727	0.006178273623
0	1278	3.92710165735	0.001254531567
0	1283	3.928356188917	0.003441780354
0	1286	3.931797969271	0.024413161201
0	1294	3.956211130472	0.009161608243
0	1299	3.965372738715	0.017255075259
0	1304	3.982627813974	0.023162620122
0	1309	4.005790434096	0.009298741855
0	1314	4.015089175951	0.020397444593
0	1319	4.035486620544	0.01636186323
0	1324	4.051848483774	0.013491261649
0	1329	4.065339745423	0.004983211234
0	1333	4.070322956657	0.010626240592
0	1339	4.080949197249	0.029661374618
0	1344	4.110610571867	0.023704636442
0	1349	4.134315208309	0.002948976779
0	1353	4.137264185088	0.009993843655
0	1358	4.147258028743	0.013002182891
0	1364	4.160260211634	3.9707924e-005
0	1368	4.160299919558	0.009344088416
0	1373	4.169644007974	0.00863375091
0	1378	4.178277758884	0.01677710569
0	1384	4.195054864574	0.000337984634
0	1388	4.195392849208	0.009697516953
0	1393	4.205090366161	0.010894896083
0	1398	4.215985262244	0.045708904888
0	1404	4.261694167132	0.037636784974
0	1409	4.299330952106	0.028786152058
0	1414	4.328117104164	0.012082215418
0	1419	4.340199319582	0.034316497134
0	1424	4.374515816716	0.006584584776
0	1428	4.381100401492	0.000388525074
0	1431	4.381488926566	0.046944545103
0	1439	4.428433471669	0.002551559678
0	1443	4.430985031347	0.011568438118
0	1448	4.442553469465	0.009719686522
0	1454	4.452273155987	0.003416822056
0	1458	4.455689978043	0.019904645457
0	1464	4.4755946235	0.003588838559
0	1468	4.479183462059	0.006608058379
0	1473	4.485791520438	0.01074388368
0	1478	4.496535404118	0.012467310461
0	1484	4.509002714579	0.002250454177
0	1488	4.511253168756	0.000698035132
0	1491	4.511951203888	0.019941684569
0	1499	4.531892888457	0.015343167711
0	1504	4.547236056168	0.046495219999
0	1509	4.593731276167	0.01714817002
0	1515	4.610879446187	0.000318130734
0	1519	4.611197576921	0.002204426313
0	1522	4.613402003234	0.039160531512
0	1530	4.652562534746	0.008079576459
0	1535	4.660642111205	0.005411238455
0	1539	4.66605334966	0.020117683133
0	1545	4.686171032793	0.025142615094
0	1550	4.711313647887	0.013167146966
0	1555	4.724480794853	0.005881043551
0	1559	4.730361838404	0.032239364986
0	1565	4.76260120339	0.008827345963
0	1570	4.771428549353	0.012967918076
0	1575	4.784396467429	0.036513029749
0	1581	4.820909497178	0.013438195234
0	1586	4.834347692412	0.022965799289
0	1591	4.857313491701	0.000830752219
0	1595	4.85814424392	0.006369900066
0	1598	4.864514143986	0.020404320139
0	1606	4.884918464125	0.016188058293
0	1611	4.901106522418	0.003366622151
0	1615	4.904473144569	0.002724753933
0	1618	4.907197898502	0.035257002096
0	1626	4.942454900598	0.000678427802
0	1630	4.9431333284	0.009624493126
0	1635	4.952757821526	0.042137471672
0	1641	4.994895293198	0.008741624488
0	1656	5.003636917686	0.042721385991
0	1661	5.046358303677	0.002194121469
0	1665	5.048552425146	0.008792502996
0	1670	5.057344928142	0.024730136438
0	1676	5.08207506458	0.0002857607
0	1680	5.08236082528	0.03733891773
0	1686	5.11969974301	0.006229468889
0	1690	5.125929211899	0.017791428166
0	1696	5.143720640065	0.005325316301
0	1700	5.149045956366	0.016518737055
0	1706	5.165564693421	0.014356133083
0	1711	5.179920826504	0.018394184155
0	1716	5.198315010659	0.049829303271
0	1721	5.24814431393	0.02048641534
0	1726	5.26863072927	0.006330188772
0	1730	5.274960918042	0.018807699145
0	1736	5.293768617187	0.017390034708
0	1741	5.311158651895	0.002314104472
0	1745	5.313472756367	0.002804441384
0	1748	5.316277197751	0.016465298345
0	1755	5.332742496096	0.023852148256
0	1761	5.356594644352	0.036178867565
0	1767	5.392773511917	0.005544705489
0	1771	5.398318217406	0.003065091441
0	1776	5.401383308847	0.010144119353
0	1781	5.4115274282	0.021554475607
0	1787	5.433081903807	0.01819382692
0	1792	5.451275730727	0.00064152633
0	1796	5.451917257057	0.000457241104
0	1799	5.452374498161	0.004906460694
0	1802	5.457280958855	0.012072828806
0	1809	5.469353787661	0.029274742299
0	1817	5.49862852996	0.009021464336
0	1822	5.507649994296	0.006907692071
0	1826	5.514557686367	0.030268533476
0	1832	5.544826219843	0.034388315126
0	1837	5.579214534969	5.124921e-006
0	1841	5.57921965989	0.005118306886
0	1844	5.584337966776	0.00125786089
0	1847	5.585595827666	0.007178365143
0	1852	5.592774192809	0.010913260919
0	1859	5.603687453728	0.00173745023
0	1862	5.605424903958	0.004722757656
0	1867	5.610147661614	0.025280585574
0	1876	5.635428247188	0.010004932269
0	1882	5.645433179457	0.040655017637
0	1888	5.686088197094	0.03820896077
0	1893	5.724297157864	0.005592033617
0	1897	5.729889191481	0.013704384643
0	1903	5.743593576124	0.016845298078
0	1908	5.760438874202	0.021443160136
0	1913	5.781882034338	0.001236074418
0	1917	5.783118108756	0.002674969807
0	1920	5.785793078563	0.000499070999
0	1923	5.786292149562	0.002726136991
0	1926	5.789018286553	0.005930693406
0	1931	5.794948979959	0.012869256441
0	1938	5.8078182364	0.007331368669
0	1943	5.815149605069	0.006193786553
0	1948	5.821343391622	0.011943232949
0	1955	5.833286624571	0.024556460765
0	1963	5.857843085336	0.012075640695
0	1968	5.869918726031	0.01834761498
0	1973	5.888266341011	0.006010011001
0	1977	5.894276352012	0.003467240045
0	1982	5.897743592057	0.008317773408
0	1987	5.906061365465	0.019442047521
0	1993	5.925503412986	0.004352414349
0	1997	5.929855827335	0.007704300191
0	2002	5.937560127526	0.003396643644
0	2007	5.94095677117	0.001105108718
0	2010	5.942061879888	0.022544142405
0	2018	5.964606022293	0.026208166185
0	2023	5.990814188478	0.002255243595
0	2027	5.993069432073	0.001818201687
0	2030	5.99488763376	0.009000419396
0	2035	6.003888053156	0.004923089291
0	2040	6.008811142447	0.00196056163
0	2043	6.010771704077	0.004318965117
0	2048	6.015090669194	0.025415618417
0	2057	6.040506287611	0.001568657342
0	2062	6.042074944953	0.027819523804
0	2068	6.069894468757	0.026692415621
0	2073	6.096586884378	0.001828702475
0	2077	6.098415586853	0.008400714373
0	2082	6.106816301226	0.019147168788
0	2088	6.125963470014	0.040347648087
0	2093	6.166311118101	0.038520832679
0	2098	6.20483195078	0.003712032569
0	2102	6.208543983349	0.00731716096
0	2107	6.215861144309	0.015801276359
0	2113	6.231662420668	0.022516342395
0	2118	6.254178763063	0.003166463248
0	2122	6.257345226311	0.038632788343
0	2128	6.295978014654	0.003431784863
0	2132	6.299409799517	7.4455573e-005
0	2135	6.29948425509	0.053964725093
0	2144	6.353448980183	0.000558039509
0	2148	6.354007019692	0.01716409336
0	2154	6.371171113052	0.003332006242
0	2158	6.374503119294	0.022436377196
0	2164	6.39693949649	0.000169066897
0	2168	6.397108563387	0.016647940128
0	2174	6.413756503515	0.000752033743
0	2178	6.414508537258	0.004619879633
0	2181	6.419128416891	0.015719184438
0	2188	6.434847601329	0.006248026677
0	2193	6.441095628006	0.005110411284
0	2198	6.44620603929	0.026305107089
0	2204	6.472511146379	0.027907986644
0	2209	6.500419133023	0.000843614887
0	2213	6.50126274791	0.006081156138
0	2216	6.507343904048	0.007890246195
0	2223	6.515234150243	0.038133015269
0	2229	6.553367165512	0.015579455244
0	2234	6.568946620756	0.002112858618
0	2238	6.571059479374	0.050807871618
0	2244	6.621867350992	0.011944484985
0	2249	6.633811835977	0.003084639113
0	2253	6.63689647509	0.005231335009
0	2258	6.642127810099	0.025644859955
0	2264	6.667772670054	0.024610307009
0	2269	6.692382977063	0.00280895106
0	2273	6.695191928123	0.006180019927
0	2278	6.70137194805	0.012719069671
0	2284	6.714091017721	0.001935057538
0	2288	6.716026075259	0.002924660218
0	2291	6.718950735477	0.009120997339
0	2296	6.728071732816	0.003637700052
0	2301	6.731709432868	0.004312864615
0	2306	6.736022297483	0.011626677162
0	2311	6.747648974645	0.02051109449
0	2319	6.768160069135	0.001966533248
0	2323	6.770126602383	0.019972550259
0	2329	6.790099152642	0.017875958496
0	2334	6.807975111138	0.000153859263
0	2338	6.808128970401	0.016917665129
0	2344	6.82504663553	4.4946819e-005
0	2348	6.825091582349	0.006592420426
0	2351	6.831684002775	0.037516713872
0	2359	6.869200716647	0.016875634126
0	2364	6.886076350773	0.005848492169
0	2368	6.891924842942	0.001445133812
0	2373	6.893369976754	0.005272732273
0	2376	6.898642709027	0.002030814308
0	2381	6.900673523335	0.004739703476
0	2384	6.905413226811	0.062546799701
0	2394	6.967960026512	0.004229952787
0	2398	6.972189979299	0.011262183157
0	2404	6.983452162456	0.022399464236
0	2410	7.005851626692	0.018083333047
0	2415	7.023934959739	0.019040321049
0	2420	7.042975280788	0.033790230689
0	2425	7.076765511477	0.016780178986
0	2430	7.093545690463	0.024379268058
0	2435	7.117924958521	0.011995419173
0	2440	7.129920377694	0.002092093129
0	2444	7.132012470823	0.017222066355
0	2450	7.149234537178	0.005661280793
0	2454	7.154895817971	0.002868005466
0	2459	7.157763823437	0.024453778629
0	2465	7.182217602066	0.009368821981
0	2470	7.191586424047	0.038101303572
0	2475	7.229687727619	0.010217061105
0	2480	7.239904788724	0.020799410508
0	2485	7.260704199232	0.000416909575
0	2489	7.261121108807	0.002327236443
0	2492	7.26344834525	0.003693080396
0	2495	7.267141425646	0.038111324968
0	2505	7.305252750614	0.040637748257
0	2510	7.345890498871	0.001354669547
0	2514	7.347245168418	0.016122452855
0	2520	7.363367621273	0.025485944515
0	2525	7.388853565788	0.05770932799
0	2530	7.446562893778	0.037778389939
0	2535	7.484341283717	0.006914208355
0	2539	7.491255492072	0.014400560658
0	2545	7.50565605273	0.02155689321
0	2550	7.52721294594	0.01371502696
0	2555	7.5409279729	0.013731809681
0	2560	7.554659782581	0.005575711391
0	2564	7.560235493972	0.013823031675
0	2570	7.574058525647	0.000380114402
0	2574	7.574438640049	0.001803857883
0	2577	7.576242497932	0.002504375545
0	2580	7.578746873477	0.003769303026
0	2585	7.582516176503	0.011881821874
0	2590	7.594397998377	0.001125097191
0	2593	7.595523095568	0.020311811336
0	2602	7.615834906904	0.010557141498
0	2609	7.626392048402	0.009457071471
0	2614	7.635849119873	0.006349071997
0	2619	7.64219819187	0.000481774017
0	2622	7.642679965887	0.003285789229
0	2627	7.645965755116	0.026186112616
0	2635	7.672151867732	0.007042788251
0	2639	7.679194655983	0.008455311085
0	2645	7.687649967068	0.011211095779
0	2650	7.698861062847	0.006147965447
0	2654	7.705009028294	0.018610948602
0	2660	7.723619976896	0.053306628035
0	2665	7.776926604931	0.013372923163
0	2670	7.790299528094	0.000477226577
0	2674	7.790776754671	0.015286941264
0	2680	7.806063695935	0.000855366393
0	2684	7.806919062328	0.013886100121
0	2690	7.820805162449	0.049438349233
0	2695	7.870243511682	0.007015890956
0	2699	7.877259402638	0.028083929218
0	2705	7.905343331856	0.005907961812
0	2709	7.911251293668	0.013433783927
0	2715	7.924685077595	0.012353693754
0	2720	7.937038771349	0.009006861929
0	2725	7.946045633278	0.020774239083
0	2730	7.966819872361	0.011936874454
0	2735	7.978756746815	0.037734972549
0	2740	8.016491719364	0.010211525509
0	2745	8.026703244873	0.026375087539
0	2750	8.053078332412	0.042966962745
0	2755	8.096045295157	0.0121023783
0	2760	8.108147673457	0.009368393264
0	2766	8.117516066721	0.000429573634
0	2770	8.117945640355	0.001088726425
0	2773	8.11903436678	0.023956797909
0	2781	8.142991164689	0.006596239674
0	2785	8.149587404363	0.003337569508
0	2790	8.152924973871	0.021867750246
0	2796	8.174792724117	0.017367838807
0	2801	8.192160562924	0.006289253518
0	2805	8.198449816442	0.02616081356
0	2811	8.224610630002	0.00514499395
0	2815	8.229755623952	0.005674238323
0	2820	8.235429862275	0.001538004436
0	2823	8.236967866711	0.007656070885
0	2828	8.244623937596	0.004707705816
0	2833	8.249331643412	0.063596345665
0	2841	8.312927989077	0.014742980563
0	2846	8.32767096964	0.004386694787
0	2850	8.332057664427	0.016948893984
0	2856	8.349006558411	0.021118244938
0	2861	8.370124803349	0.040499966654
0	2866	8.410624770003	0.007814643855
0	2871	8.418439413858	0.016850455157
0	2876	8.435289869015	0.005680082475
0	2880	8.44096995149	0.024341275081
0	2886	8.465311226571	0.022078824234
0	2891	8.487390050805	0.009051095284
0	2896	8.496441146089	0.008963753029
0	2901	8.505404899118	0.011466949752
0	2906	8.51687184887	0.018572562645
0	2911	8.535444411515	0.000855084399
0	2915	8.536299495914	0.003769296403
0	2918	8.540068792317	0.002210728132
0	2921	8.542279520449	0.026045176025
0	2931	8.568324696474	0.014409014983
0	2936	8.582733711457	0.018922657737
0	2941	8.601656369194	0.013125540477
0	2946	8.614781909671	0.010374464683
0	2951	8.625156374354	0.000845799493
0	2955	8.626002173847	0.023520914184
0	2961	8.649523088031	0.002695938483
0	2965	8.652219026514	0.037830779314
0	2971	8.690049805828	0.000207398148
0	2975	8.690257203976	0.023224360818
0	2981	8.713481564794	0.001005229329
0	2985	8.714486794123	0.005303842138
0	2988	8.719790636261	0.002646483628
0	2993	8.722437119889	0.018952395754
0	3001	8.741389515643	0.067091780756
0	3007	8.808481296399	0.027613270573
0	3012	8.836094566972	0.012790779344
0	3017	8.848885346316	0.007777020757
0	3022	8.856662367073	0.001508538746
0	3026	8.858170905819	0.009059509456
0	3031	8.867230415275	0.006384062067
0	3036	8.873614477342	0.001476842505
0	3039	8.875091319847	0.010351979641
0	3044	8.885443299488	0.003700859441
0	3049	8.889144158929	0.016836032623
0	3056	8.905980191552	0.011304369067
0	3062	8.917284560619	0.010047422108
0	3067	8.927331982727	0.011289201288
0	3072	8.938621184015	0.028115126031
0	3077	8.966736310046	0.018728091976
0	3082	8.985464402022	0.053764846559
0	3088	9.039229248581	0.001850692095
0	3092	9.041079940676	0.00915458699
0	3097	9.050234527666	0.003110005605
0	3100	9.053344533271	0.007576814693
0	3105	9.060921347964	0.008529975733
0	3112	9.069451323697	0.006112162047
0	3117	9.075563485744	0.003078493108
0	3120	9.078641978852	0.018547463425
0	3127	9.097189442277	0.001976692762
0	3132	9.099166135039	0.034628814717
0	3138	9.133794949756	0.019366150286
0	3143	9.153161100042	0.001050948164
0	3147	9.154212048206	0.036147169946
0	3153	9.190359218152	0.004461359474
0	3157	9.194820577626	0.000942691204
0	3160	9.19576326883	0.001638371493
0	3163	9.197401640323	0.00064086374
0	3168	9.198042504063	0.002922622438
0	3171	9.200965126501	0.005047075755
0	3176	9.206012202256	0.035826573523
0	3188	9.241838775779	0.01299978381
0	3193	9.254838559589	0.027879554721
0	3198	9.28271811431	0.041772692257
0	3203	9.324490806567	0.002233787725
0	3207	9.326724594292	0.013072816671
0	3213	9.339797410963	0.006948966166
0	3217	9.346746377129	0.017090753148
0	3223	9.363837130277	0.002295017235
0	3227	9.366132147512	0.015746420878
0	3234	9.38187856839	0.020277574877
0	3239	9.402156143267	0.029143132583
0	3244	9.43129927585	0.012834895693
0	3249	9.444134171543	0.00671794845
0	3253	9.450852119993	0.013045707732
0	3259	9.463897827725	0.025904147439
0	3264	9.489801975164	0.004225599476
0	3268	9.49402757464	0.004541263292
0	3273	9.498568837932	0.006935788653
0	3278	9.505504626585	0.064068742035
0	3284	9.56957336862	0.005038256193
0	3288	9.574611624813	0.007657218272
0	3293	9.582268843085	0.000712399338
0	3296	9.582981242423	0.012126694166
0	3303	9.595107936589	0.033152086972
0	3309	9.628260023561	0.015652526712
0	3314	9.643912550273	0.008865783861
0	3319	9.652778334134	0.005653184186
0	3323	9.65843151832	0.000283267578
0	3326	9.658714785898	0.030624832664
0	3334	9.689339618562	0.010220819406
0	3339	9.699560437968	0.068769110869
0	3344	9.768329548837	0.008569352252
0	3349	9.776898901089	0.012642415673
0	3354	9.789541316762	0.003947439808
0	3358	9.79348875657	0.003780301806
0	3363	9.797269058376	0.011110283212
0	3368	9.808379341588	0.005048938708
0	3373	9.813428280296	0.068109657179
0	3380	9.881537937475	0.012349699775
0	3385	9.89388763725	0.051201145131
0	3390	9.945088782381	0.011726151684
0	3395	9.956814934065	0.004243372129
0	3399	9.961058306194	0.002430030113
0	3402	9.963488336307	0.018077722629
0	3410	9.981566058936	0.020220237528
0	3415	10.001786296464	0.01931276609
0	3420	10.021099062554	0.002553206378
0	3424	10.023652268932	0.010645487914
0	3429	10.034297756846	0.003100709987
0	3434	10.037398466833	0.004069810669
0	3437	10.041468277502	0.013232481494
0	3444	10.054700758996	0.010566506497
0	3449	10.065267265493	0.014480141213
0	3455	10.079747406706	0.032401416863
0	3460	10.112148823569	0.003156831877
0	3464	10.115305655446	0.03671597925
0	3471	10.152021634696	0.018471151251
0	3476	10.170492785947	0.011130205305
0	3481	10.181622991252	0.02427086144
0	3486	10.205893852692	0.001838979103
0	3490	10.207732831795	0.022763501815
0	3496	10.23049633361	0.001417995744
0	3500	10.231914329354	0.011113187302
0	3505	10.243027516656	0.00498603523
0	3510	10.248013551886	0.01498579113
0	3516	10.262999343016	0.051956698296
0	3521	10.314956041312	0.000283764866
0	3525	10.315239806178	0.000714615555
0	3528	10.315954421733	0.013120514462
0	3533	10.329074936195	0.007739244217
0	3538	10.336814180412	0.014113942748
0	3545	10.35092812316	0.029776716316
0	3552	10.380704839476	0.003415182816
0	3556	10.384120022292	0.042328343484
0	3562	10.426448365776	0.005802450563
0	3566	10.432250816339	0.02906973697
0	3572	10.461320553309	0.054449229099
0	3577	10.515769782408	0.062279135233
0	3582	10.578048917641	0.004799131895
0	3586	10.582848049536	0.003173265691
0	3591	10.586021315227	0.018058657544
0	3597	10.604079972771	0.043909160764
0	3602	10.647989133535	0.004624502263
0	3606	10.652613635798	0.023694223421
0	3612	10.676307859219	0.012753944724
0	3617	10.689061803943	0.006555031645
0	3621	10.695616835588	0.030852557362
0	3627	10.72646939295	0.010199941037
0	3632	10.736669333987	0.025480814122
0	3637	10.762150148109	0.003790509196
0	3641	10.765940657305	0.000444988004
0	3644	10.766385645309	0.022757168403
0	3652	10.789142813712	0.008284119673
0	3657	10.797426933385	0.006251996476
0	3661	10.803678929861	0.007503482205
0	3666	10.811182412066	0.003777396345
0	3671	10.814959808411	0.034587700643
0	3677	10.849547509054	0.019443149335
0	3682	10.868990658389	0.000546941317
0	3686	10.869537599706	0.003311246851
0	3689	10.872848846557	0.009098871219
0	3694	10.881947717776	0.015917226714
0	3701	10.89786494449	0.059717446397
0	3707	10.957582390887	0.007423294746
0	3711	10.965005685633	0.000556265217
0	3716	10.96556195085	0.032356825038
0	3722	10.997918775888	0.016664272856
0	3727	11.014583048744	0.03809028536
0	3732	11.052673334104	0.019904332311
0	3737	11.072577666415	0.011193992784
0	3742	11.083771659199	0.00166207961
0	3746	11.085433738809	0.013752550538
0	3752	11.099186289347	0.004541265882
0	3756	11.103727555229	0.075984763748
0	3762	11.179712318977	0.009668858269
0	3767	11.189381177246	0.011123684061
0	3772	11.200504861307	0.003367700099
0	3776	11.203872561406	0.001664340584
0	3779	11.20553690199	0.0404751376
0	3787	11.24601203959	0.019470276111
0	3792	11.265482315701	0.018894641695
0	3797	11.284376957396	0.044565864427
0	3802	11.328942821823	0.001598607095
0	3806	11.330541428918	0.003146734097
0	3809	11.333688163015	0.031054433995
0	3817	11.36474259701	0.013835754742
0	3822	11.378578351752	0.00509946932
0	3826	11.383677821072	6.1996351e-005
0	3829	11.383739817423	0.007783360271
0	3834	11.391523177694	0.020410063076
0	3842	11.41193324077	0.01450008485
0	3847	11.42643332562	0.003693113982
0	3851	11.430126439602	0.010240441893
0	3856	11.440366881495	0.000263724068
0	3859	11.440630605563	0.011504034377
0	3866	11.45213463994	0.020155094436
0	3872	11.472289734376	0.042437231709
0	3877	11.514726966085	0.035573512169
0	3882	11.550300478254	0.007342319751
0	3886	11.557642798005	0.013969449666
0	3892	11.571612247671	0.011051772548
0	3897	11.582664020219	0.002629699991
0	3901	11.58529372021	0.003220464157
0	3904	11.588514184367	0.011506825527
0	3911	11.600021009894	0.000513617528
0	3914	11.600534627422	0.046936056348
0	3922	11.64747068377	0.011032410535
0	3927	11.658503094305	0.005945423715
0	3931	11.66444851802	0.001579464666
0	3934	11.666027982686	0.015330231008
0	3941	11.681358213694	0.016965654589
0	3947	11.698323868283	0.012019433652
0	3952	11.710343301935	0.003970804294
0	3956	11.714314106229	0.055349358931
0	3962	11.76966346516	0.010641189505
0	3967	11.780304654665	0.001941163026
0	3971	11.782245817691	0.025348932841
0	3977	11.807594750532	0.009897524862
0	3982	11.817492275394	0.017784267161
0	3987	11.835276542555	0.012261417543
0	3992	11.847537960098	0.008360985992
0	3997	11.85589894609	0.00404720177
0	4001	11.85994614786	0.017176928358
0	4007	11.877123076218	0.018562124907
0	4012	11.895685201125	0.005808626733
0	4016	11.901493827858	0.115626244142
0	4022	12.017120072	0.036042847682
0	4027	12.053162919682	0.038873501419
0	4032	12.092036421101	0.00556724851
0	4036	12.097603669611	9.8326822e-005
0	4039	12.097701996433	0.014338302082
0	4046	12.112040298515	0.008514350966
0	4051	12.120554649481	0.00881860884
0	4056	12.129373258321	9.8701575e-005
0	4059	12.129471959896	0.000800933589
0	4062	12.130272893485	0.039279940572
0	4072	12.169552834057	0.007803298719
0	4077	12.177356132776	0.019974783825
0	4082	12.197330916601	0.013352060149
0	4087	12.21068297675	0.003364132405
0	4091	12.214047109155	0.009619907029
0	4097	12.223667016184	0.03639366132
0	4103	12.260060677504	0.002056883577
0	4107	12.262117561081	0.015362122819
0	4113	12.2774796839	0.020876548258
0	4118	12.298356232158	0.005726741762
0	4122	12.30408297392	0.014625707447
0	4128	12.318708681367	0.027435037585
0	4133	12.346143718952	0.006590669268
0	4137	12.35273438822	0.005035188554
0	4142	12.357769576774	0.012077261511
0	4148	12.369846838285	0.021069870158
0	4153	12.390916708443	0.00208580309
0	4157	12.393002511533	0.023806105261
0	4163	12.416808616794	0.013489649513
0	4168	12.430298266307	0.027328259069
0	4173	12.457626525376	0.002219817803
0	4177	12.459846343179	0.000251669206
0	4180	12.460098012385	0.01335853357
0	4187	12.473456545955	0.004783455954
0	4190	12.478240001909	0.026730864571
0	4198	12.50497086648	0.008012549621
0	4203	12.512983416101	0.007872165021
0	4208	12.520855581122	0.000530710444
0	4212	12.521386291566	0.000886881555
0	4215	12.522273173121	0.021614944663
0	4222	12.543888117784	0.003803579483
0	4227	12.547691697267	0.004800082952
0	4232	12.552491780219	0.012575123758
0	4237	12.565066903977	0.01288662252
0	4243	12.577953526497	0.014299180092
0	4248	12.592252706589	0.013875004499
0	4253	12.606127711088	0.044431871186
0	4258	12.650559582274	0.01562663892
0	4263	12.666186221194	0.034189893231
0	4268	12.700376114425	0.007432200809
0	4272	12.707808315234	0.005162949469
0	4277	12.712971264703	0.015002072911
0	4283	12.727973337614	0.001818560611
0	4287	12.729791898225	0.006545824758
0	4292	12.736337722983	0.025781071575
0	4298	12.762118794558	0.125219631077
0	4303	12.887338425635	0.01112503561
0	4308	12.898463461245	0.004289066809
0	4312	12.902752528054	0.050467969937
0	4319	12.953220497991	0.023961795723
0	4324	12.977182293714	0.00650974076
0	4328	12.983692034474	0.007869639756
0	4333	12.99156167423	0.020386394074
0	4339	13.011948068304	0.003321100295
0	4343	13.015269168599	0.012408896394
0	4348	13.027678064993	0.002083429274
0	4353	13.029761494267	0.02541881032
0	4359	13.055180304587	0.022149446574
0	4364	13.077329751161	0.020552615831
0	4369	13.097882366992	0.010648190646
0	4374	13.108530557638	0.00661675809
0	4378	13.115147315728	0.02286919273
0	4384	13.138016508458	0.007213975148
0	4388	13.145230483606	0.00348017786
0	4393	13.148710661466	0.003872729564
0	4396	13.15258339103	0.000701147022
0	4399	13.153284538052	0.024775605057
0	4409	13.178060143109	0.001657239481
0	4413	13.17971738259	0.0085667446
0	4418	13.18828412719	0.012913131419
0	4423	13.201197258609	0.028118267107
0	4429	13.229315525716	0.032413005091
0	4434	13.261728530807	0.044391498381
0	4439	13.306120029188	0.009061042243
0	4444	13.315181071431	0.00627127026
0	4448	13.321452341691	0.001569372539
0	4451	13.32302171423	0.006872204423
0	4456	13.329893918653	0.002395259921
0	4461	13.332289178574	0.009755491508
0	4466	13.342044670082	0.004415165582
0	4469	13.346459835664	0.020722278043
0	4478	13.367182113707	0.004566722121
0	4483	13.371748835828	0.000254803141
0	4486	13.372003638969	0.00039750291
0	4489	13.372401141879	0.008413926129
0	4494	13.380815068008	0.003406683099
0	4497	13.384221751107	0.024343617728
0	4506	13.408565368835	0.019372798537
0	4514	13.427938167372	0.002404114049
0	4518	13.430342281421	0.017106778775
0	4524	13.447449060196	0.021185555321
0	4529	13.468634615517	0.001818769665
0	4533	13.470453385182	0.006431680483
0	4538	13.476885065665	0.020656879145
0	4544	13.49754194481	0.000660531926
0	4548	13.498202476736	0.012442528443
0	4553	13.510645005179	0.019337023158
0	4559	13.529982028337	0.00306257268
0	4563	13.533044601017	0.029240749941
0	4569	13.562285350958	0.000755610104
0	4573	13.563040961062	0.056627673538
0	4579	13.6196686346	0.022849406206
0	4584	13.642518040806	0.002473046928
0	4588	13.644991087734	0.007358648162
0	4593	13.652349735896	0.013429384862
0	4598	13.665779120758	0.049636357984
0	4604	13.715415478742	0.004768806965
0	4608	13.720184285707	0.05111283709
0	4614	13.771297122797	0.032285348385
0	4619	13.803582471182	0.01795553241
0	4624	13.821538003592	0.001437956889
0	4628	13.822975960481	0.033874077234
0	4634	13.856850037715	0.002997643692
0	4638	13.859847681407	0.010586271735
0	4643	13.870433953142	0.001223282318
0	4646	13.87165723546	0.000264229332
0	4649	13.871921464792	0.005274757509
0	4654	13.877196222301	0.02535627339
0	4663	13.902552495691	0.045864489222
0	4669	13.948416984913	0.003840981804
0	4673	13.952257966717	0.006863027189
0	4678	13.959120993906	0.010474688797
0	4683	13.969595682703	0.012349033567
0	4689	13.98194471627	0.006134891092
0	4693	13.988079607362	0.007568799497
0	4698	13.995648406859	0.03454295894
0	4704	14.030191365799	0.059135820172
0	4709	14.089327185971	0.00597239
0	4713	14.095299575971	0.018846827992
0	4719	14.114146403963	0.023750431244
0	4724	14.137896835207	0.027649303343
0	4729	14.16554613855	0.004074940277
0	4733	14.169621078827	0.00204533799
0	4736	14.171666416817	0.000240698988
0	4739	14.171907115805	0.041426699413
0	4749	14.213333815218	0.006415437492
0	4753	14.21974925271	0.00481385323
0	4758	14.22456310594	0.008205282116
0	4763	14.232768388056	0.01745197421
0	4769	14.250220362266	0.03748034209
0	4774	14.287700704356	0.005293434739
0	4778	14.292994139095	0.002639844073
0	4783	14.295633983168	0.015713388177
0	4788	14.311347371345	0.002039374554
0	4793	14.313386745899	0.000547593573
0	4796	14.313934339472	0.02068592998
0	4803	14.334620269452	0.007420184349
0	4808	14.342040453801	0.019961025681
0	4814	14.362001479482	0.045287194606
0	4819	14.407288674088	0.003574308323
0	4823	14.410862982411	0.002309543084
0	4826	14.413172525495	0.016042516954
0	4833	14.429215042449	0.00690890599
0	4838	14.436123948439	0.016476575923
0	4844	14.452600524362	0.040300381851
0	4849	14.492900906213	0.000284258945
0	4853	14.493185165158	0.000126634715
0	4856	14.493311799873	0.005454173263
0	4859	14.498765973136	0.027354354635
0	4869	14.526120327771	0.000247028495
0	4873	14.526367356266	0.027300423354
0	4879	14.55366777962	0.005597020068
0	4883	14.559264799688	0.022805815456
0	4889	14.582070615144	0.005960525999
0	4893	14.588031141143	0.032119612738
0	4899	14.620150753881	0.0197501635
0	4904	14.639900917381	0.007166698287
0	4908	14.647067615668	0.003089917756
0	4913	14.650157533424	0.005291919145
0	4916	14.655449452569	0.002652048152
0	4921	14.658101500721	0.011180380484
0	4926	14.669281881205	0.004128894029
0	4931	14.673410775234	0.005216482144
0	4934	14.678627257378	0.039566753332
0	4944	14.71819401071	0.004251048864
0	4948	14.722445059574	0.053446723159
0	4954	14.775891782733	0.000955719986
0	4958	14.776847502719	0.034142758507
0	4964	14.810990261226	0.006539870454
0	4968	14.81753013168	0.014422174166
0	4974	14.831952305846	0.002560035831
0	4978	14.834512341677	0.000103937152
0	4981	14.834616278829	0.02140062119
0	4989	14.856016900019	0.013338754928
0	4994	14.869355654947	0.017014260689
0	4999	14.886369915636	0.023733434349
0	5004	14.910103349985	0.029718489679
0	5009	14.939821839664	0.01472452326
0	5014	14.954546362924	0.009759024473
0	5019	14.964305387397	0.038636350956
0	5024	15.002941738353	0.004181316798
0	5028	15.007123055151	0.001369704488
0	5031	15.008492759639	0.021422558881
0	5039	15.02991531852	0.000667902475
0	5043	15.030583220995	0.003169771959
0	5046	15.033752992954	0.022578348739
0	5054	15.056331341693	0.007240156876
0	5058	15.063571498569	0.025652143648
0	5064	15.089223642217	0.014623919798
0	5069	15.103847562015	0.002781033278
0	5073	15.106628595293	0.015109975407
0	5079	15.1217385707	0.000119173938
0	5083	15.121857744638	0.009861621779
0	5088	15.131719366417	0.079658929432
0	5094	15.211378295849	0.01517792153
0	5100	15.226556217379	0.035706332201
0	5105	15.26226254958	0.009837571469
0	5110	15.272100121049	0.005214119359
0	5114	15.277314240408	0.00567636977
0	5119	15.282990610178	0.006394182274
0	5124	15.289384792452	0.002791999939
0	5127	15.292176792391	0.031072632394
0	5135	15.323249424785	0.001086909734
0	5139	15.324336334519	0.016751005781
0	5145	15.3410873403	0.003397695832
0	5149	15.344485036132	0.005499572243
0	5154	15.349984608375	0.007837845179
0	5159	15.357822453554	0.013712826682
0	5164	15.371535280236	0.01638207869
0	5170	15.387917358926	0.000118351839
0	5174	15.388035710765	0.00461113063
0	5177	15.392646841395	0.002644398377
0	5180	15.395291239772	0.031746213076
0	5190	15.427037452848	0.011249155754
0	5195	15.438286608602	0.001075061608
0	5199	15.43936167021	0.032952811559
0	5205	15.472314481769	0.024387465589
0	5210	15.496701947358	0.007073278707
0	5214	15.503775226065	0.009488603093
0	5220	15.513263829158	0.000666703716
0	5224	15.513930532874	0.00572623096
0	5227	15.519656763834	0.000414917757
0	5230	15.520071681591	0.002273243636
0	5235	15.522344925227	0.005346188146
0	5238	15.527691113373	0.013609666216
0	5245	15.541300779589	0.007297292779
0	5250	15.548598072368	0.01266405738
0	5257	15.561262129748	0.005386819169
0	5260	15.566648948917	0.017444108447
0	5267	15.584093057364	0.001039384196
0	5272	15.58513244156	0.02890384688
0	5280	15.61403628844	0.005840353265
0	5284	15.619876641705	0.009271597631
0	5289	15.629148239336	0.007320180886
0	5294	15.636468420222	0.04458017833
0	5300	15.681048598552	0.007651210783
0	5304	15.688699809335	0.06338904254
0	5310	15.752088851875	8.7856269e-005
0	5314	15.752176708144	0.001897336301
0	5317	15.754074044445	0.00956208287
0	5322	15.763636127315	0.011864159244
0	5327	15.775500286559	0.00694741866
0	5332	15.782447705219	0.013710775992
0	5339	15.796158481211	0.004540657607
0	5344	15.800699138818	0.000225643725
0	5347	15.800924782543	0.000567870094
0	5350	15.801492652637	0.002392777568
0	5353	15.803885430205	0.002793918665
0	5356	15.80667934887	0.02037403777
0	5365	15.82705338664	0.018322982156
0	5372	15.845376368796	0.007000644044
0	5377	15.85237701284	0.008595122029
0	5382	15.860972134869	0.025215611325
0	5390	15.886187746194	0.025622584269
0	5395	15.911810330463	0.074191292303
0	5400	15.986001622766	0.027220990034
0	5405	16.0132226128	0.013250014871
0	5410	16.026472627671	0.009087738924
0	5415	16.035560366595	0.00031483717
0	5419	16.035875203765	0.076036358641
0	5425	16.111911562406	0.002525752381
0	5429	16.114437314787	0.000428838979
0	5432	16.114866153766	0.016353697086
0	5439	16.131219850852	0.004570057741
0	5444	16.135789908593	0.022027630989
0	5450	16.157817539582	0.001763437885
0	5454	16.159580977467	0.000139825019
0	5457	16.159720802486	0.030166482624
0	5465	16.18988728511	0.015140819652
0	5470	16.205028104762	0.018971528222
0	5475	16.223999632984	0.011513978435
0	5480	16.235513611419	0.022730626603
0	5485	16.258244238022	0.002109152465
0	5489	16.260353390487	0.003017258259
0	5492	16.263370648746	0.001329500751
0	5495	16.264700149497	0.013454084142
0	5502	16.278154233639	0.046000925253
0	5510	16.324155158892	0.035328883772
0	5515	16.359484042664	0.047996671659
0	5520	16.407480714323	0.034434000053
0	5525	16.441914714376	0.005756873357
0	5529	16.447671587733	0.007239338159
0	5534	16.454910925892	0.007514074828
0	5539	16.46242500072	0.020760475967
0	5545	16.483185476687	0.001766421153
0	5549	16.48495189784	0.019963108843
0	5555	16.504915006683	0.004291254203
0	5559	16.509206260886	0.005798796584
0	5564	16.51500505747	0.005857342983
0	5569	16.520862400453	0.006613273604
0	5572	16.527475674057	0.017618759737
0	5580	16.545094433794	0.00243603787
0	5584	16.547530471664	0.008404475582
0	5589	16.555934947246	0.006422893224
0	5594	16.56235784047	0.014705437042
0	5600	16.577063277512	0.009233861846
0	5605	16.586297139358	0.015883978352
0	5610	16.60218111771	0.005866715331
0	5614	16.608047833041	0.011347538895
0	5620	16.619395371936	0.011891238591
0	5625	16.631286610527	0.011631351592
0	5630	16.642917962119	0.005911175058
0	5634	16.648829137177	9.22831e-007
0	5637	16.648830060008	0.001353014135
0	5640	16.650183074143	0.015103774216
0	5647	16.665286848359	0.012563340685
0	5654	16.677850189044	0.017609813847
0	5660	16.695460002891	0.011123502423
0	5665	16.706583505314	0.065602594076
0	5670	16.77218609939	0.024793315222
0	5675	16.796979414612	0.009368959598
0	5680	16.80634837421	0.028854935005
0	5685	16.835203309215	0.017214391319
0	5690	16.852417700534	0.006935760405
0	5694	16.859353460939	0.008178693512
0	5699	16.867532154451	0.005894179188
0	5704	16.873426333639	0.003572122115
0	5709	16.876998455754	0.020593175414
0	5715	16.897591631168	0.002289540719
0	5719	16.899881171887	0.030419757745
0	5725	16.930300929632	0.00142208363
0	5729	16.931723013262	0.010415599004
0	5734	16.942138612266	0.003784135967
0	5737	16.945922748233	0.002597426345
0	5742	16.948520174578	0.008052850684
0	5747	16.956573025262	0.004555958786
0	5750	16.961128984048	0.000843067943
0	5755	16.961972051991	0.022104942571
0	5762	16.984076994562	9.1714497e-005
0	5765	16.984168709059	0.00395113516
0	5770	16.988119844219	0.022388519093
0	5779	17.010508363312	0.045839560977
0	5785	17.056347924289	0.033177231527
0	5790	17.089525155816	0.010109436869
0	5795	17.099634592685	0.00525724051
0	5799	17.104891833195	0.011339530845
0	5805	17.11623136404	0.007662460863
0	5809	17.123893824903	0.019644608341
0	5815	17.143538433244	0.03905672137
0	5820	17.182595154614	0.000883108867
0	5824	17.183478263481	0.007647160639
0	5829	17.19112542412	0.005183771628
0	5832	17.196309195748	0.010112778336
0	5839	17.206421974084	0.030000113018
0	5845	17.236422087102	0.001047455084
0	5849	17.237469542186	0.008299622062
0	5854	17.245769164248	0.010609698598
0	5859	17.256378862846	0.051320171721
0	5865	17.307699034567	0.018674254633
0	5870	17.3263732892	0.000994630822
0	5874	17.327367920022	0.004932851802
0	5877	17.332300771824	2.6713975e-005
0	5880	17.332327485799	0.009277454135
0	5885	17.341604939934	0.000295782886
0	5888	17.34190072282	0.000940297061
0	5893	17.342841019881	0.049217820946
0	5905	17.392058840827	0.013890864595
0	5910	17.405949705422	0.020604972327
0	5915	17.426554677749	0.018343086169
0	5920	17.444897763918	0.033271323697
0	5925	17.478169087615	0.000356731397
0	5929	17.478525819012	0.08810588395
0	5935	17.566631702962	0.009744444713
0	5940	17.576376147675	0.006815977653
0	5944	17.583192125328	0.00134682164
0	5949	17.584538946968	4.9044866e-005
0	5952	17.584587991834	0.058771385624
0	5960	17.643359377458	0.033877728072
0	5965	17.67723710553	0.008532553234
0	5970	17.685769658764	0.012756212855
0	5975	17.698525871619	0.010366727125
0	5980	17.708892598744	0.024667045192
0	5985	17.733559643936	0.010119939276
0	5990	17.743679583212	0.006481168653
0	5994	17.750160751865	0.040442995227
0	6000	17.790603747092	0.005952572439
0	6004	17.796556319531	0.015352484702
0	6010	17.811908804233	0.019902496683
0	6015	17.831811300916	0.019549824439
0	6020	17.851361125355	0.00469235921
0	6024	17.856053484565	0.013454219896
0	6030	17.869507704461	0.012338095927
0	6035	17.881845800388	0.011062884128
0	6040	17.892908684516	0.00892720507
0	6045	17.901835889586	0.025692285427
0	6050	17.927528175013	0.002596629908
0	6054	17.930124804921	0.02697726425
0	6060	17.957102069171	0.015424284705
0	6065	17.972526353876	0.013480887949
0	6070	17.986007241825	0.027824925379
0	6075	18.013832167204	0.0108799293
0	6080	18.024712096504	0.000573213152
0	6084	18.025285309656	0.00795497818
0	6089	18.033240287836	0.005836833023
0	6092	18.039077120859	0.010783858973
0	6099	18.049860979832	0.001073471284
0	6102	18.050934451116	0.000891138243
0	6105	18.051825589359	0.0070978793
0	6110	18.058923468659	0.004674867635
0	6113	18.063598336294	0.000667610407
0	6118	18.064265946701	0.024197069019
0	6127	18.08846301572	0.000906310796
0	6130	18.089369326516	0.040525117184
0	6140	18.1298944437	0.02079969566
0	6145	18.15069413936	0.000181134154
0	6149	18.150875273514	0.016457704037
0	6155	18.167332977551	0.000256086124
0	6159	18.167589063675	0.014890397571
0	6164	18.182479461246	0.040032581507
0	6170	18.222512042753	0.005366567003
0	6174	18.227878609756	0.028010496525
0	6180	18.255889106281	0.003210524505
0	6184	18.259099630786	0.010201269153
0	6189	18.269300899939	0.001815083251
0	6192	18.27111598319	0.042615471016
0	6200	18.313731454206	0.014347180294
0	6205	18.3280786345	0.004321947473
0	6209	18.332400581973	0.012945597587
0	6215	18.34534617956	0.005704066381
0	6219	18.351050245941	0.028165978214
0	6225	18.379216224155	0.042752970318
0	6230	18.421969194473	0.03195770151
0	6235	18.453926895983	0.006156877814
0	6239	18.460083773797	0.039562364546
0	6245	18.499646138343	0.057767117787
0	6250	18.55741325613	0.003156624676
0	6254	18.560569880806	0.002290671069
0	6257	18.562860551875	0.008285085246
0	6262	18.571145637121	0.014077569417
0	6269	18.585223206538	0.002694905311
0	6272	18.587918111849	0.013957432859
0	6279	18.601875544708	0.01153115699
0	6285	18.613406701698	0.00263572617
0	6289	18.616042427868	0.006417184376
0	6294	18.622459612244	0.003398052858
0	6297	18.625857665102	0.000173443748
0	6300	18.62603110885	0.00785296188
0	6305	18.63388407073	0.002206729706
0	6308	18.636090800436	0.010418440343
0	6315	18.646509240779	0.00491677873
0	6318	18.651426019509	0.006037036572
0	6323	18.657463056081	0.017672340342
0	6330	18.675135396423	0.016710598818
0	6337	18.691845995241	0.00850109749
0	6344	18.700347092731	0.044253791049
0	6350	18.74460088378	0.015521161143
0	6355	18.760122044923	0.028977956762
0	6360	18.789100001685	0.015456749749
0	6365	18.804556751434	0.002879270582
0	6369	18.807436022016	0.01694854448
0	6375	18.824384566496	0.010648246708
0	6380	18.835032813204	0.007738802364
0	6384	18.842771615568	0.077338855968
0	6390	18.920110471536	0.044072687224
0	6395	18.96418315876	0.009346940388
0	6400	18.973530099148	0.013370250374
0	6405	18.986900349522	0.030148079309
0	6410	19.017048428831	0.017734727877
0	6415	19.034783156708	0.001262508283
0	6419	19.036045664991	0.001371866271
0	6422	19.037417531262	0.018013121102
0	6429	19.055430652364	0.004787249667
0	6434	19.060217902031	0.002574417796
0	6437	19.062792319827	0.024353125001
0	6445	19.087145444828	0.037620683324
0	6450	19.124766128152	0.002815008399
0	6454	19.127581136551	0.007683583173
0	6459	19.135264719724	0.003308877225
0	6462	19.138573596949	0.007946428534
0	6467	19.146520025483	0.000815715389
0	6470	19.147335740872	0.001503387896
0	6475	19.148839128768	0.008694420973
0	6480	19.157533549741	0.001191456256
0	6483	19.158725005997	0.001832987349
0	6486	19.160557993346	0.014198756022
0	6493	19.174756749368	0.00889381835
0	6498	19.183650567718	0.01163826984
0	6503	19.195288837558	0.002684003246
0	6508	19.197972840804	0.006427824915
0	6513	19.204400665719	0.015074993754
0	6520	19.219475659473	0.051018040828
0	6530	19.270493700301	0.028786688446
0	6535	19.299280388747	0.008757402822
0	6540	19.308037791569	0.010443593737
0	6545	19.318481385306	0.017339283987
0	6550	19.335820669293	0.005177247308
0	6554	19.340997916601	0.00406337315
0	6559	19.345061289751	0.008327920029
0	6564	19.35338920978	0.010500066809
0	6569	19.363889276589	0.006252185142
0	6574	19.370141461731	0.041766706185
0	6580	19.411908167916	0.004747339992
0	6584	19.416655507908	0.007839596746
0	6589	19.424495104654	0.004842985915
0	6594	19.429338090569	0.011653028497
0	6599	19.440991119066	0.025597966652
0	6605	19.466589085718	0.005291743832
0	6609	19.47188082955	0.002059660274
0	6612	19.473940489824	0.005872800096
0	6617	19.47981328992	0.00134369739
0	6620	19.48115698731	0.007475436761
0	6625	19.488632424071	0.002085647861
0	6630	19.490718071932	0.004435725882
0	6633	19.495153797814	0.005434801127
0	6638	19.500588598941	0.022207590916
0	6647	19.522796189857	0.00675714419
0	6650	19.529553334047	0.010650620724
0	6657	19.540203954771	0.000525545702
0	6660	19.540729500473	0.044081268751
0	6670	19.584810769224	0.038254354927
0	6675	19.623065124151	0.012830733014
0	6680	19.635895857165	0.009662974984
0	6685	19.645558832149	0.018973738544
0	6690	19.664532570693	0.00944935739
0	6695	19.673981928083	0.009352535014
0	6700	19.683334463097	0.000754531692
0	6704	19.684088994789	0.004451000304
0	6707	19.688539995093	0.013851244601
0	6714	19.702391239694	0.005596108657
0	6719	19.707987348351	0.007416556096
0	6724	19.715403904447	0.003878062294
0	6727	19.719281966741	0.01720400594
0	6734	19.736485972681	0.001027312501
0	6737	19.737513285182	0.008668300071
0	6742	19.746181585253	0.018278633946
0	6750	19.764460219199	0.011379561885
0	6755	19.775839781084	0.01106943064
0	6760	19.786909211724	0.005630800704
0	6764	19.792540012428	0.004174079019
0	6769	19.796714091447	0.005819258803
0	6772	19.80253335025	0.001542257728
0	6777	19.804075607978	0.004986597555
0	6780	19.809062205533	0.00704656167
0	6785	19.816108767203	0.014065793362
0	6792	19.830174560565	0.016242101223
0	6799	19.846416661788	0.006223960575
0	6804	19.852640622363	0.006246501737
0	6809	19.8588871241	0.029020683379
0	6815	19.887907807479	0.008053812968
0	6820	19.895961620447	0.00323627336
0	6824	19.899197893807	0.009499183905
0	6829	19.908697077712	0.005518005753
0	6834	19.914215083465	0.008627921486
0	6839	19.922843004951	0.006472153143
0	6844	19.929315158094	0.008142654766
0	6849	19.93745781286	0.008357973821
0	6854	19.945815786681	0.007099654285
0	6859	19.952915440966	0.001327426055
0	6862	19.954242867021	0.006776752315
0	6867	19.961019619336	0.04388259249
0	6875	20.004902211826	0.017978399566
0	6880	20.022880611392	0.001958383046
0	6884	20.024838994438	0.02085342586
0	6890	20.045692420298	0.000546155015
0	6894	20.046238575313	0.006218411144
0	6897	20.052456986457	0.01375536305
0	6904	20.066212349507	0.022477438617
0	6910	20.088689788124	0.012325216782
0	6915	20.101015004906	0.010349217425
0	6920	20.111364222331	0.016372241373
0	6925	20.127736463704	0.009012713366
0	6930	20.13674917707	0.029858613981
0	6935	20.166607791051	0.037815768385
0	6940	20.204423559436	0.012462475977
0	6945	20.216886035413	0.012146493535
0	6950	20.229032528948	0.007459036459
0	6954	20.236491565407	0.016012852321
0	6960	20.252504417728	0.007247096553
0	6964	20.259751514281	0.003876365414
0	6969	20.263627879695	0.008029643634
0	6974	20.271657523329	0.006391509843
0	6979	20.278049033172	0.005490723253
0	6983	20.283539756425	0.014242385158
0	6990	20.297782141583	0.015528981723
0	6996	20.313311123306	0.019820573376
0	7001	20.333131696682	0.007483098011
0	7005	20.340614794693	0.027795026834
0	7011	20.368409821527	0.007882366027
0	7015	20.376292187554	0.018185108491
0	7021	20.394477296045	0.003373059079
0	7025	20.397850355124	0.01419024761
0	7031	20.412040602734	0.025907947718
0	7036	20.437948550452	0.009957847706
0	7041	20.447906398158	2.0814172e-005
0	7045	20.44792721233	0.008042796002
0	7050	20.455970008332	0.039833957579
0	7056	20.495803965911	0.022826379291
0	7061	20.518630345202	0.002156733301
0	7065	20.520787078503	0.009853427644
0	7070	20.530640506147	0.025100393893
0	7076	20.55574090004	0.002854540338
0	7080	20.558595440378	0.005473506291
0	7085	20.564068946669	0.004385797335
0	7088	20.568454744004	0.018185491809
0	7095	20.586640235813	0.004166211071
0	7100	20.590806446884	0.049410747252
0	7107	20.640217194136	0.088782775133
0	7112	20.728999969269	0.001984468996
0	7116	20.730984438265	0.024592501131
0	7122	20.755576939396	0.00086212428
0	7126	20.756439063676	0.018920943874
0	7132	20.77536000755	0.050154257513
0	7137	20.825514265063	0.013786555357
0	7142	20.83930082042	0.021882524715
0	7147	20.861183345135	0.007215824634
0	7151	20.868399169769	0.021288763138
0	7157	20.889687932907	0.018295403759
0	7162	20.907983336666	0.013397176614
0	7168	20.92138051328	0.006176513041
0	7172	20.927557026321	0.015043281511
0	7178	20.942600307832	0.001289361129
0	7182	20.943889668961	0.004723963652
0	7185	20.948613632613	0.003490699184
0	7190	20.952104331797	0.00427407111
0	7193	20.956378402907	0.058793500765
0	7203	21.015171903672	0.011738603778
0	7208	21.02691050745	0.0062346727
0	7212	21.03314518015	0.026693785957
0	7218	21.059838966107	0.019217794464
0	7223	21.079056760571	0.003437608627
0	7227	21.082494369198	0.009751381325
0	7232	21.092245750523	0.000278352136
0	7235	21.092524102659	0.013188577076
0	7242	21.105712679735	0.074681656858
0	7248	21.180394336593	0.005007523358
0	7252	21.185401859951	0.030062187689
0	7258	21.21546404764	0.015667748832
0	7263	21.231131796472	0.015447351564
0	7268	21.246579148036	0.001385756151
0	7272	21.247964904187	0.004710580706
0	7275	21.252675484893	0.01537277657
0	7282	21.268048261463	0.020062438985
0	7288	21.288110700448	0.030174698897
0	7293	21.318285399345	0.000856044871
0	7297	21.319141444216	0.033888880793
0	7303	21.353030325009	3.1522194e-005
0	7307	21.353061847203	0.01370795546
0	7312	21.366769802663	0.014422576255
0	7318	21.381192378918	0.002304548583
0	7322	21.383496927501	0.001265924284
0	7325	21.384762851785	0.028040600948
0	7333	21.412803452733	0.015075697759
0	7338	21.427879150492	0.008417619872
0	7343	21.436296770364	0.031008357249
0	7348	21.467305127613	0.011958273338
0	7353	21.479263400951	0.003179327468
0	7357	21.482442728419	0.017258797583
0	7363	21.499701526002	0.00106660017
0	7367	21.500768126172	0.012954584893
0	7372	21.513722711065	0.039882275809
0	7378	21.553604986874	0.026444737761
0	7383	21.580049724635	0.00368027049
0	7387	21.583729995125	0.016565952877
0	7393	21.600295948002	0.001808959976
0	7397	21.602104907978	0.044949631913
0	7403	21.647054539891	0.008759150156
0	7408	21.655813690047	0.004408131515
0	7412	21.660221821562	0.006563291416
0	7417	21.666785112978	0.014841783176
0	7423	21.681626896154	0.014280017704
0	7428	21.695906913858	0.014169367943
0	7433	21.710076281801	0.011732878677
0	7438	21.721809160478	0.017857782816
0	7443	21.739666943294	0.018689169442
0	7448	21.758356112736	0.003802049443
0	7452	21.762158162179	0.004857851054
0	7457	21.767016013233	0.001173530038
0	7460	21.768189543271	0.003385566926
0	7463	21.771575110197	0.000321893542
0	7466	21.771897003739	0.009877432283
0	7471	21.781774436022	0.00941323973
0	7478	21.791187675752	0.017682636598
0	7485	21.80887031235	0.013022421681
0	7492	21.821892734031	0.010978542958
0	7497	21.832871276989	0.000516966106
0	7500	21.833388243095	0.004984630863
0	7505	21.838372873958	0.011428004172
0	7510	21.84980087813	0.019602739854
0	7518	21.869403617984	0.013028740554
0	7523	21.882432358538	0.032033657005
0	7528	21.914466015543	0.001093175379
0	7532	21.915559190922	0.003548498483
0	7535	21.919107689405	0.033471813264
0	7543	21.952579502669	0.020269141303
0	7548	21.972848643972	0.001696813124
0	7552	21.974545457096	0.003648999185
0	7555	21.978194456281	0.003349957461
0	7560	21.981544413742	0.041707041474
0	7568	22.023251455216	0.006677774646
0	7572	22.029929229862	0.001893804072
0	7577	22.031823033934	0.014745275529
0	7582	22.046568309463	0.008079941155
0	7587	22.054648250618	0.006264477299
0	7592	22.060912727917	0.000592497511
0	7595	22.061505225428	0.011904012198
0	7602	22.073409237626	0.016620855392
0	7608	22.090030093018	0.011985059708
0	7613	22.102015152726	0.006823370142
0	7617	22.108838522868	0.00525216594
0	7622	22.114090688808	0.013242410154
0	7628	22.127333098962	0.006820901652
0	7632	22.134154000614	0.0043929988
0	7637	22.138546999414	0.034040636721
0	7643	22.172587636135	0.002964769373
0	7647	22.175552405508	0.006438764904
0	7652	22.181991170412	0.043099293822
0	7658	22.225090464234	0.034410961912
0	7663	22.259501426146	0.003740515996
0	7667	22.263241942142	0.049676306859
0	7674	22.312918249001	0.009968775577
0	7679	22.322887024578	0.009130309433
0	7684	22.332017334011	0.017209579707
0	7689	22.349226913718	0.043952769494
0	7694	22.393179683212	0.001657599477
0	7698	22.394837282689	0.003710290378
0	7701	22.398547573067	0.030524433292
0	7709	22.429072006359	0.038993925686
0	7714	22.468065932045	0.017267489259
0	7719	22.485333421304	0.022997799988
0	7724	22.508331221292	0.035138523582
0	7730	22.543469744874	0.028982366728
0	7735	22.572452111602	0.006050454466
0	7739	22.578502566068	0.006390977569
0	7744	22.584893543637	0.005327801928
0	7749	22.590221345565	0.002242622361
0	7752	22.592463967926	0.002514735692
0	7755	22.594978703618	0.000164536813
0	7758	22.595143240431	0.023858642959
0	7767	22.61900188339	0.007119489512
0	7772	22.626121372902	0.010840524895
0	7779	22.636961897797	0.008552553108
0	7784	22.645514450905	0.018813183571
0	7790	22.664327634476	0.019532785836
0	7795	22.683860420312	0.020947223904
0	7800	22.704807644216	0.002802764881
0	7804	22.707610409097	0.016594455993
0	7810	22.72420486509	0.007985601486
0	7815	22.732190466576	0.013676820276
0	7820	22.745867286852	0.009472305602
0	7825	22.755339592454	0.023914919313
0	7830	22.779254511767	0.03086450129
0	7835	22.810119013057	0.001815556593
0	7839	22.81193456965	0.004641309109
0	7842	22.816575878759	0.03037947831
0	7850	22.846955357069	0.011090775565
0	7855	22.858046132634	0.008185056932
0	7860	22.866231189566	0.001276895614
0	7864	22.86750808518	0.030306766724
0	7870	22.897814851904	0.003607066334
0	7874	22.901421918238	0.007401629504
0	7879	22.908823547742	0.003514128267
0	7882	22.912337676009	0.01369541191
0	7889	22.926033087919	0.007039958381
0	7894	22.9330730463	0.010398493226
0	7899	22.943471539526	0.020631267208
0	7905	22.964102806734	0.005375860063
0	7909	22.969478666797	0.011135300239
0	7915	22.980613967036	0.004878585859
0	7919	22.985492552895	0.006764549051
0	7924	22.992257101946	0.012295923291
0	7930	23.004553025237	0.007739992133
0	7934	23.01229301737	0.028229709152
0	7940	23.040522726522	0.041275770504
0	7945	23.081798497026	0.005553518032
0	7949	23.087352015058	0.012072176429
0	7955	23.099424191487	0.000753438173
0	7959	23.10017762966	0.003942576992
0	7962	23.104120206652	0.025414561919
0	7970	23.129534768571	0.002430057397
0	7974	23.131964825968	0.01201316431
0	7979	23.143977990278	0.024513725782
0	7985	23.16849171606	0.029237652546
0	7990	23.197729368606	0.001398663908
0	7994	23.199128032514	0.006241676623
0	7997	23.205369709137	0.004238700372
0	8002	23.209608409509	0.010399047265
0	8007	23.220007456774	0.03800404281
0	8015	23.258011499584	0.006424414101
0	8019	23.264435913685	0.002387009296
0	8024	23.266822922981	0.112426083365
0	8030	23.379249006346	0.014152761228
0	8035	23.393401767574	0.002305047222
0	8039	23.395706814796	0.009981546638
0	8044	23.405688361434	0.020705655276
0	8050	23.42639401671	0.001713716158
0	8054	23.428107732868	0.001413212946
0	8057	23.429520945814	0.018075935488
0	8064	23.447596881302	0.008187586542
0	8069	23.455784467844	0.026373741389
0	8075	23.482158209233	0.005335143398
0	8079	23.487493352631	0.033249687985
0	8085	23.520743040616	0.007407623381
0	8089	23.528150663997	0.003877384794
0	8094	23.532028048791	0.019207070794
0	8100	23.551235119585	0.007502391955
0	8104	23.55873751154	0.021076186119
0	8110	23.579813697659	0.001367510555
0	8114	23.581181208214	0.025185295884
0	8120	23.606366504098	0.034373482258
0	8125	23.640739986356	0.015639814249
0	8130	23.656379800605	0.001579256061
0	8134	23.657959056666	0.022298896156
0	8140	23.680257952822	0.035467796413
0	8145	23.715725749235	0.00288732189
0	8149	23.718613071125	0.000863590873
0	8152	23.719476661998	0.002114428228
0	8155	23.721591090226	0.00748193553
0	8160	23.729073025756	0.015084041142
0	8167	23.744157066898	0.007215749816
0	8172	23.751372816714	0.00984785746
0	8177	23.761220674174	0.010879856662
0	8184	23.772100530836	0.007863638588
0	8189	23.779964169424	0.009489106738
0	8194	23.789453276162	0.008702567541
0	8199	23.798155843703	0.02477410089
0	8205	23.822929944593	0.001443605531
0	8209	23.824373550124	0.02160834623
0	8215	23.845981896354	0.002794009943
0	8219	23.848775906297	0.017619098669
0	8225	23.866395004966	0.043224546629
0	8230	23.909619551595	0.035229928512
0	8235	23.944849480107	0.001626481615
0	8239	23.946475961722	0.000613470188
0	8242	23.94708943191	0.021486569253
0	8250	23.968576001163	0.013117561402
0	8255	23.981693562565	0.012915940201
0	8260	23.994609502766	0.008936674138
0	8265	24.003546176904	0.0176783735
0	8270	24.021224550404	0.050947547956
0	8275	24.07217209836	0.003823263264
0	8280	24.075995361624	0.003697542478
0	8283	24.079692904102	0.026276905376
0	8291	24.105969809478	0.009652211207
0	8296	24.115622020685	0.002129034363
0	8300	24.117751055048	0.001275411496
0	8303	24.119026466544	0.012544920409
0	8310	24.131571386953	0.006476153072
0	8313	24.138047540025	0.016851987954
0	8320	24.154899527979	0.005434528379
0	8325	24.160334056358	0.017772998947
0	8331	24.178107055305	0.022470397962
0	8336	24.200577453267	0.021628278626
0	8341	24.222205731893	0.01169101824
0	8346	24.233896750133	0.008091164443
0	8351	24.241987914576	0.000496537581
0	8355	24.242484452157	0.031215612026
0	8361	24.273700064183	0.016091649299
0	8366	24.289791713482	0.032057564164
0	8371	24.321849277646	0.022349765913
0	8376	24.344199043559	0.004202915239
0	8380	24.348401958798	0.041995098741
0	8386	24.390397057539	0.076768851582
0	8391	24.467165909121	0.025417147189
0	8396	24.49258305631	0.000905849778
0	8400	24.493488906088	0.017355473216
0	8406	24.510844379304	0.03088581164
0	8411	24.541730190944	0.003093946392
0	8415	24.544824137336	0.014646606186
0	8421	24.559470743522	0.037185892129
0	8426	24.596656635651	0.020448074839
0	8431	24.61710471049	0.002311116284
0	8435	24.619415826774	0.029436675181
0	8441	24.648852501955	0.033370320548
0	8446	24.682222822503	0.030475505641
0	8451	24.712698328144	0.01081688678
0	8456	24.723515214924	0.008238870332
0	8461	24.731754085256	0.023633545603
0	8466	24.755387630859	0.02422429194
0	8471	24.779611922799	0.007404999562
0	8475	24.787016922361	0.016367357257
0	8481	24.803384279618	0.024226888524
0	8486	24.827611168142	0.000503866444
0	8490	24.828115034586	0.012938350185
0	8495	24.841053384771	0.018131793739
0	8501	24.85918517851	0.007942357774
0	8506	24.867127536284	0.020341201199
0	8511	24.887468737483	0.007304231131
0	8515	24.894772968614	0.013552133572
0	8521	24.908325102186	0.038574548828
0	8526	24.946899651014	0.002218693241
0	8530	24.949118344255	0.029703946179
0	8536	24.978822290434	0.022600312242
0	8541	25.001422602676	0.011217252413
0	8546	25.012639855089	0.003338314328
0	8550	25.015978169417	0.004747581268
0	8555	25.020725750685	0.026906855078
0	8561	25.047632605763	0.011645716277
0	8566	25.05927832204	0.001024170632
0	8570	25.060302492672	0.017340594314
0	8576	25.077643086986	0.002451237372
0	8580	25.080094324358	0.014519135623
0	8586	25.094613459981	0.019287663272
0	8591	25.113901123253	0.014035005575
0	8596	25.127936128828	0.006677244294
0	8600	25.134613373122	0.021742763264
0	8606	25.156356136386	0.006341564948
0	8610	25.162697701334	0.004621149116
0	8615	25.16731885045	0.008223011697
0	8620	25.175541862147	0.025797293147
0	8626	25.201339155294	0.070937828062
0	8631	25.272276983356	0.005355904711
0	8635	25.277632888067	0.005725821913
0	8640	25.28335870998	0.035847679498
0	8646	25.319206389478	0.008390125564
0	8651	25.327596515042	0.005958647784
0	8655	25.333555162826	0.014122062588
0	8661	25.347677225414	0.004297314042
0	8665	25.351974539456	0.010258929007
0	8670	25.362233468463	0.022446146592
0	8676	25.384679615055	0.003445869581
0	8680	25.388125484636	0.001804577286
0	8683	25.389930061922	0.001365376712
0	8686	25.391295438634	0.021293021914
0	8695	25.412588460548	0.017390449408
0	8701	25.429978909956	0.011091123661
0	8706	25.441070033617	0.00592457609
0	8710	25.446994609707	0.01592139778
0	8716	25.462916007487	0.007195958874
0	8720	25.470111966361	0.008312975368
0	8725	25.478424941729	0.008467478148
0	8731	25.486892419877	0.007362409292
0	8735	25.494254829169	0.017075966573
0	8741	25.511330795742	0.03645026047
0	8746	25.547781056212	0.007228150705
0	8750	25.555009206917	0.015676508368
0	8756	25.570685715285	0.012676260848
0	8761	25.583361976133	0.004733813963
0	8765	25.588095790096	0.004473650992
0	8770	25.592569441088	0.002431203495
0	8773	25.595000644583	0.020750271708
0	8781	25.615750916291	0.000450187835
0	8785	25.616201104126	0.001042384491
0	8788	25.617243488617	0.014782613775
0	8795	25.632026102392	0.034492885116
0	8801	25.666518987508	0.007663148081
0	8805	25.674182135589	0.000738988861
0	8810	25.67492112445	0.01822402514
0	8817	25.69314514959	0.009948689224
0	8822	25.703093838814	0.024383486343
0	8827	25.727477325157	0.03398900155
0	8832	25.761466326707	0.038458237381
0	8837	25.799924564088	0.021491700849
0	8842	25.821416264937	0.017416359102
0	8847	25.838832624039	0.008168243505
0	8852	25.847000867544	0.009086178113
0	8857	25.856087045657	0.06265536677
0	8862	25.918742412427	0.011970446898
0	8867	25.930712859325	0.049300614407
0	8872	25.980013473732	0.003022060415
0	8876	25.983035534147	0.010112217658
0	8881	25.993147751805	0.002793709294
0	8886	25.995941461099	0.062232695084
0	8892	26.058174156183	0.000988311603
0	8896	26.059162467786	0.000274951703
0	8899	26.059437419489	0.017595310398
0	8906	26.077032729887	0.01863928316
0	8912	26.095672013047	0.004970601783
0	8916	26.10064261483	0.010759029831
0	8921	26.111401644661	0.056987348536
0	8927	26.168388993197	0.051331926376
0	8932	26.219720919573	0.020725818007
0	8937	26.24044673758	0.000262815149
0	8941	26.240709552729	0.016943961913
0	8947	26.257653514642	0.004169229724
0	8951	26.261822744366	0.016508855233
0	8957	26.278331599599	0.001274520923
0	8961	26.279606120522	0.013845029386
0	8966	26.293451149908	0.019976032451
0	8972	26.313427182359	0.001815323196
0	8976	26.315242505555	0.01270644711
0	8981	26.327948952665	0.049634013642
0	8987	26.377582966307	0.002947440809
0	8991	26.380530407116	0.011209418237
0	8996	26.391739825353	0.031348738663
0	9002	26.423088564016	0.016816811353
0	9007	26.439905375369	0.030830201104
0	9012	26.470735576473	0.013996294159
0	9017	26.484731870632	0.021569147624
0	9022	26.506301018256	0.010901892027
0	9027	26.517202910283	0.004447221159
0	9031	26.521650131442	0.004737227528
0	9036	26.52638735897	0.023070719382
0	9042	26.549458078352	0.013968106577
0	9047	26.563426184929	0.009389433107
0	9052	26.572815618036	0.018364985245
0	9057	26.591180603281	0.008369018242
0	9062	26.599549621523	0.00700059335
0	9066	26.606550214873	0.017099186914
0	9072	26.623649401787	0.018306536752
0	9077	26.641955938539	0.034279882573
0	9082	26.676235821112	0.002185110976
0	9086	26.678420932088	0.027003203327
0	9092	26.705424135415	0.018440432967
0	9097	26.723864568382	0.023578641606
0	9102	26.747443209988	0.022631037625
0	9107	26.770074247613	0.002035779486
0	9111	26.772110027099	0.061596461146
0	9117	26.833706488245	0.028057397542
0	9122	26.861763885787	0.020093076199
0	9127	26.881856961986	0.009047976332
0	9132	26.890904938318	0.043684269842
0	9137	26.93458920816	0.001437831008
0	9141	26.936027039168	0.004156013487
0	9144	26.940183052655	0.048326423133
0	9152	26.988509475788	0.027971134454
0	9157	27.016480610242	0.008455011309
0	9162	27.024935621551	0.017584254987
0	9167	27.042519876538	0.002272526097
0	9171	27.044792402635	0.032807785089
0	9177	27.077600187724	0.00989703844
0	9182	27.087497226164	0.001222849111
0	9186	27.088720075275	0.024737864052
0	9192	27.113457939327	0.01202345131
0	9197	27.125481390637	0.006203133859
0	9201	27.131684524496	0.003201714132
0	9206	27.134886238628	0.012726379172
0	9211	27.1476126178	0.003589358169
0	9216	27.151201975969	0.000192588767
0	9219	27.151394564736	0.004318491238
0	9222	27.155713055974	0.000298271998
0	9225	27.156011327972	0.00157717901
0	9230	27.157588506982	0.010197146497
0	9235	27.167785653479	0.002076350191
0	9238	27.16986200367	0.003386720752
0	9243	27.173248724422	0.019974716698
0	9250	27.19322344112	0.030733438399
0	9261	27.223956879519	0.012946839659
0	9267	27.236903719178	0.01448272503
0	9272	27.251386444208	0.030944169576
0	9277	27.282330613784	0.01450511635
0	9282	27.296835730134	0.000369989148
0	9286	27.297205719282	0.011697566965
0	9291	27.308903286247	0.011706962359
0	9297	27.320610248606	0.006070192674
0	9302	27.32668044128	0.01399845651
0	9308	27.34067889779	0.030047895731
0	9313	27.370726793521	0.003921405511
0	9317	27.374648199032	0.020302718356
0	9323	27.394950917388	0.000251152187
0	9327	27.395202069575	0.020706387328
0	9333	27.415908456903	0.019895029253
0	9338	27.435803486156	0.013615964994
0	9343	27.44941945115	0.024584154965
0	9348	27.474003606115	0.000355288948
0	9352	27.474358895063	0.000974440688
0	9355	27.475333335751	0.02341286451
0	9363	27.498746200261	0.009014779501
0	9368	27.507760979762	0.017598266016
0	9373	27.525359245778	0.005345925035
0	9377	27.530705170813	0.030348636227
0	9383	27.56105380704	0.009775868565
0	9388	27.570829675605	0.015332083266
0	9393	27.586161758871	0.021972472967
0	9398	27.608134231838	0.004739447323
0	9402	27.612873679161	0.012476787107
0	9408	27.625350466268	0.037978448151
0	9413	27.663328914419	0.007221404276
0	9417	27.670550318695	0.009670779846
0	9423	27.680221098541	0.018262573212
0	9429	27.698483671753	0.053063970967
0	9434	27.75154764272	0.03101579486
0	9439	27.78256343758	0.021450514966
0	9444	27.804013952546	0.002881683009
0	9448	27.806895635555	0.006736674572
0	9454	27.813632310127	0.014544820225
0	9460	27.828177130352	0.029234776786
0	9465	27.857411907138	0.006199065256
0	9469	27.863610972394	0.031996445801
0	9475	27.895607418195	0.013115390035
0	9481	27.90872280823	0.031116296409
0	9486	27.939839104639	0.001572711065
0	9490	27.941411815704	0.007671032174
0	9495	27.949082847878	0.00965931592
0	9500	27.958742163798	0.005317134249
0	9505	27.964059298047	0.011689050015
0	9510	27.975748348062	0.002461374472
0	9513	27.978209722534	0.061807131571
0	9521	28.040016854105	0.010381499093
0	9526	28.050398353198	0.016413904243
0	9531	28.066812257441	0.004243087703
0	9535	28.071055345144	0.017444581429
0	9541	28.088499926573	0.041663095139
0	9546	28.130163021712	0.01441441729
0	9551	28.144577439002	0.008413431257
0	9556	28.152990870259	0.077391775126
0	9561	28.230382645385	0.004282404635
0	9565	28.23466505002	0.029198155986
0	9571	28.263863206006	0.013091432251
0	9576	28.276954638257	0.054622915578
0	9581	28.331577553835	0.008206954294
0	9586	28.339784508129	0.024246307047
0	9591	28.364030815176	0.007880613907
0	9595	28.371911429083	0.012874109858
0	9601	28.384785538941	0.002108304988
0	9605	28.386893843929	0.022832139876
0	9611	28.409725983805	0.031481005764
0	9616	28.441206989569	0.013275672587
0	9621	28.454482662156	0.005136885826
0	9625	28.459619547982	0.007454654778
0	9630	28.46707420276	0.00131153001
0	9633	28.46838573277	0.004119037955
0	9638	28.472504770725	0.017625359488
0	9645	28.490130130213	0.014101200201
0	9651	28.504231330414	0.03455846599
0	9656	28.538789796404	0.001731708464
0	9660	28.540521504868	0.023051085801
0	9666	28.563572590669	0.02183492917
0	9672	28.585407519839	0.002615535168
0	9676	28.588023055007	0.066390797879
0	9682	28.654413852886	0.013760246627
0	9687	28.668174099513	0.006493466548
0	9691	28.674667566061	0.002563637737
0	9696	28.677231203798	0.027905746485
0	9702	28.705136950283	0.044032673558
0	9707	28.749169623841	0.019113066434
0	9712	28.768282690275	0.017888442845
0	9717	28.78617113312	0.00329245658
0	9721	28.7894635897	0.004891603263
0	9726	28.794355192963	0.000627236884
0	9729	28.794982429847	0.02662416593
0	9738	28.821606595777	0.02286171966
0	9743	28.844468315437	0.011183940335
0	9748	28.855652255772	0.014926480481
0	9753	28.870578736253	0.006386219425
0	9757	28.876964955678	0.009537419441
0	9763	28.886502375119	0.010542396703
0	9768	28.897044771822	0.009044903582
0	9773	28.906089675404	0.00849457929
0	9778	28.914584254694	0.012302519837
0	9783	28.926886774531	0.022193105732
0	9788	28.949079880263	0.000226747539
0	9792	28.949306627802	0.000530784173
0	9795	28.949837411975	0.03329624544
0	9803	28.983133657415	0.017165744152
0	9808	29.000299401567	0.008054052404
0	9813	29.008353453971	0.006052947702
0	9817	29.014406401673	0.004029249823
0	9822	29.018435651496	0.001242022532
0	9825	29.019677674028	0.002285205965
0	9828	29.021962879993	0.031491975716
0	9838	29.053454855709	0.086566030902
0	9843	29.140020886611	0.003776070439
0	9847	29.14379695705	0.007825528764
0	9852	29.151622485814	0.000485759059
0	9855	29.152108244873	0.014240337717
0	9862	29.16634858259	0.027107546768
0	9868	29.193456129358	0.003056218957
0	9872	29.196512348315	0.006774697568
0	9877	29.203287045883	0.000680901079
0	9880	29.203967946962	0.015334557172
0	9887	29.219302504134	0.005643973579
0	9890	29.224946477713	0.01164261796
0	9897	29.236589095673	0.00681640141
0	9902	29.243405497083	0.002876344537
0	9905	29.24628184162	0.019044133757
0	9913	29.265325975377	0.008547458827
0	9918	29.273873434204	0.000188670733
0	9922	29.274062104937	0.005800450187
0	9925	29.279862555124	0.039554009638
0	9933	29.319416564762	0.000110343395
0	9937	29.319526908157	0.014673677811
0	9942	29.334200585968	0.005048788868
0	9947	29.339249374836	0.002006843234
0	9950	29.34125621807	0.006355772865
0	9955	29.347611990935	0.035746472987
0	9963	29.383358463922	0.003310742569
0	9967	29.386669206491	0.00161328582
0	9970	29.388282492311	0.000340504835
0	9973	29.388622997146	0.019705741619
0	9982	29.408328738765	0.024346257623
0	9988	29.432674996388	0.0265606541
0	9993	29.459235650488	0.021832644674
0	9998	29.481068295162	0.01765417792
0	10003	29.498722473082	0.005380896278
0	10007	29.50410336936	0.003337802325
0	10012	29.507441171685	0.001821321943
0	10015	29.509262493628	0.006149603583
0	10020	29.515412097211	0.009477154596
0	10025	29.524889251807	0.001530660345
0	10028	29.526419912152	0.039044636412
0	10038	29.565464548564	0.011160048716
0	10043	29.57662459728	0.004006034986
0	10047	29.580630632266	0.009451758645
0	10052	29.590082390911	0.02449887081
0	10058	29.614581261721	0.02069362471
0	10063	29.635274886431	0.023477659644
0	10068	29.658752546075	0.008404364418
0	10073	29.667156910493	0.00369268989
0	10077	29.670849600383	0.013582311173
0	10083	29.684431911556	0.010304225415
0	10088	29.694736136971	0.003862036563
0	10092	29.698598173534	0.001479523366
0	10095	29.7000776969	0.003486530334
0	10100	29.703564227234	0.004569296901
0	10103	29.708133524135	0.00172354778
0	10106	29.709857071915	0.019993748878
0	10115	29.729850820793	0.002762589771
0	10118	29.732613410564	0.025481701711
0	10128	29.758095112275	0.000361040323
0	10132	29.758456152598	0.008041962414
0	10137	29.766498115012	0.007228468015
0	10140	29.773726583027	0.006953884641
0	10145	29.780680467668	0.070553858734
0	10153	29.851234326402	0.048843732525
0	10158	29.900078058927	0.027930348683
0	10163	29.92800840761	0.004884523568
0	10167	29.932892931178	0.041746732141
0	10173	29.974639663319	0.021172866613
0	10178	29.995812529932	0.00818117206
0	10183	30.003993701992	0.02518677073
0	10188	30.029180472722	0.037440533719
0	10193	30.066621006441	0.004670737737
0	10197	30.071291744178	0.014552341674
0	10203	30.085844085852	0.000901295568
0	10207	30.08674538142	0.002355268967
0	10210	30.089100650387	0.036240469593
0	10218	30.12534111998	0.00733949842
0	10222	30.1326806184	0.005786206032
0	10227	30.138466824432	0.006383652599
0	10232	30.144850477031	0.014254247547
0	10238	30.159104724578	0.001591842394
0	10242	30.160696566972	0.027262385445
0	10248	30.187958952417	0.002030808982
0	10252	30.189989761399	0.018197023784
0	10258	30.208186785183	0.016266108225
0	10263	30.224452893408	0.010407824232
0	10268	30.23486071764	0.010881504882
0	10273	30.245742222522	0.033601903177
0	10278	30.279344125699	0.003513893906
0	10282	30.282858019605	0.001563404147
0	10285	30.284421423752	0.000172746073
0	10288	30.284594169825	0.011063659206
0	10295	30.295657829031	0.008889844807
0	10300	30.304547673838	0.001797103947
0	10303	30.306344777785	0.028162344351
0	10312	30.334507122136	0.004467579191
0	10317	30.338974701327	0.050073947914
0	10323	30.389048649241	0.025017112635
[...]
23	17813	52.969297092093	0.007870474477
23	17818	52.98628100795	0.007870474477
23	17823	53.016575766947	0.007870474477
23	17834	53.024446241424	0.014820288503
23	17836	53.032316715901	0.020648442405
23	17839	53.040187190378	0.025570378758
23	17847	53.048057664855	0.013526604416
23	17849	53.055928139332	0.019914666587
23	17854	53.063798613809	0.010695159232
23	17859	53.071669088286	0.010704252134
23	17864	53.11012258933	0.007870474477
23	17869	53.123622016247	0.007870474477
23	17874	53.131492490724	0.008585585267
23	17882	53.139362965201	0.013541448389
23	17884	53.147233439678	0.018388697749
23	17889	53.155103914155	0.012832639724
23	17894	53.191976347485	0.007870474477
23	17899	53.24744409674	0.007870474477
23	17904	53.255314571217	0.008431383333
23	17909	53.263185045694	0.008332295146
23	17914	53.274992303621	0.007870474477
23	17919	53.313507567626	0.007870474477
23	17924	53.32270997979	0.007870474477
23	17932	53.330580454267	0.015442183396
23	17934	53.338450928744	0.018150496845
23	17939	53.346321403221	0.008565132428
23	17944	53.382730909711	0.007870474477
23	17949	53.390601384188	0.011796866225
23	17954	53.424215889459	0.007870474477
23	17962	53.432086363936	0.01536181197
23	17964	53.439956838413	0.021063242164
23	17972	53.44782731289	0.01304376223
23	17974	53.455697787367	0.016844494836
23	17979	53.471808822903	0.007870474477
23	17984	53.47967929738	0.012635404831
23	17992	53.487549771857	0.013164998704
23	17994	53.495420246334	0.016000108756
23	17999	53.504287330356	0.007870474477
23	18004	53.512157804833	0.008326206031
23	18009	53.52002827931	0.014708292451
23	18014	53.538278645097	0.007870474477
23	18019	53.570171889918	0.007870474477
23	18027	53.578042364395	0.014841774677
23	18029	53.585912838872	0.021213656205
23	18037	53.593783313349	0.014198733568
23	18039	53.601653787826	0.019196369062
23	18044	53.609524262303	0.01452508584
23	18049	53.61739473678	0.014448601757
23	18057	53.625265211257	0.014360661633
23	18062	53.633135685734	0.019885823543
23	18064	53.641006160211	0.023419374159
23	18069	53.648876634688	0.015429698634
23	18074	53.656747109165	0.013904202417
23	18082	53.664617583642	0.014023072326
23	18087	53.672488058119	0.021265409045
23	18089	53.680358532596	0.016366826893
23	18094	53.716897007949	0.007870474477
23	18099	53.724767482426	0.010133973811
23	18104	53.745458659213	0.007870474477
23	18109	53.767134683077	0.007870474477
23	18114	53.785700047296	0.007870474477
23	18119	53.801422095116	0.007870474477
23	18124	53.816701911514	0.007870474477
23	18132	53.824572385991	0.014271117713
23	18134	53.832442860468	0.019591738943
23	18139	53.88459051405	0.007870474477
23	18144	53.892460988527	0.009968604371
23	18149	53.901884419939	0.007870474477
23	18154	53.931578071705	0.007870474477
23	18159	53.939448546182	0.008492340997
23	18164	53.969529235468	0.007870474477
23	18169	53.981398109454	0.007870474477
23	18174	53.990035542719	0.007870474477
23	18182	53.997906017196	0.01404205787
23	18187	54.005776491673	0.021789726407
23	18189	54.01364696615	0.023458610041
23	18194	54.036864492001	0.007870474477
23	18199	54.045890943899	0.007870474477
23	18204	54.066893297918	0.007870474477
23	18209	54.077947372527	0.007870474477
23	18214	54.146189047642	0.007870474477
23	18219	54.16164015757	0.007870474477
23	18224	54.185654736521	0.007870474477
23	18229	54.193525210998	0.009402078096
23	18237	54.201395685475	0.007933950886
23	18242	54.209266159952	0.015797105341
23	18247	54.217136634429	0.019066325638
23	18252	54.225007108906	0.021682533148
23	18257	54.232877583383	0.022224153093
23	18259	54.24074805786	0.017943558633
23	18264	54.248618532337	0.008296353212
23	18269	54.269058365863	0.007870474477
23	18274	54.301999813698	0.007870474477
23	18279	54.310545244685	0.007870474477
23	18284	54.335018594755	0.007870474477
23	18289	54.389273715138	0.007869589657
23	18294	54.397143304795	0.00827174123
23	18299	54.405012894452	0.009334872266
23	18305	54.419150197822	0.007869589657
23	18310	54.427019787479	0.010973586105
23	18315	54.436802393381	0.007869589657
23	18320	54.489352034632	0.007869589657
23	18325	54.497221624289	0.008480840945
23	18330	54.526353316572	0.007869589657
23	18335	54.542829871282	0.007869589657
23	18340	54.550699460939	0.015492280552
23	18346	54.579819330409	0.007869589657
23	18351	54.590002909313	0.007869589657
23	18356	54.600237365526	0.007869589657
23	18361	54.608106955183	0.014613340474
23	18366	54.628042033812	0.007869589657
23	18371	54.646061611492	0.007869589657
23	18376	54.667866848336	0.007869589657
23	18381	54.675736437993	0.009040908438
23	18386	54.712634243694	0.007869589657
23	18391	54.74443979292	0.007869589657
23	18396	54.765073565243	0.007869589657
23	18401	54.7729431549	0.009214094747
23	18406	54.783218308634	0.007869589657
23	18411	54.791087898291	0.015230964105
23	18416	54.803543041503	0.007869589657
23	18421	54.813353464742	0.007869589657
23	18426	54.821223054399	0.008742066896
23	18431	54.829092644056	0.008842315056
23	18436	54.859860663878	0.007869589657
23	18441	54.867730253535	0.015396806615
23	18446	54.882529748036	0.007869589657
23	18451	54.890399337693	0.013581186471
23	18456	54.92356784441	0.007869589657
23	18461	54.954426154446	0.007869589657
23	18466	54.962295744103	0.008415023671
23	18471	55.005169294072	0.007869589657
23	18479	55.013038883729	0.015020329289
23	18481	55.020908473386	0.017389713037
23	18489	55.028778063043	0.014452374816
23	18494	55.0366476527	0.02213233748
23	18499	55.044517242357	0.021788735206
23	18501	55.052386832014	0.016759490411
23	18506	55.110656826904	0.007869589657
23	18512	55.119533026798	0.007869589657
23	18517	55.142133501922	0.007869589657
23	18522	55.193312815197	0.007869589657
23	18527	55.201182404854	0.010133081798
23	18532	55.209051994511	0.012435903298
23	18537	55.224964614781	0.007869589657
23	18542	55.25653510116	0.007869589657
23	18547	55.264404690817	0.014122587088
23	18552	55.281488196316	0.007869589657
23	18557	55.289357785973	0.008380822867
23	18562	55.300998352311	0.007869589657
23	18567	55.308867941968	0.009241168551
23	18572	55.316737531625	0.009237568342
23	18577	55.324607121282	0.014029283652
23	18582	55.332476710939	0.015455940388
23	18587	55.340346300596	0.008001690457
23	18592	55.365077426432	0.007869589657
23	18597	55.372947016089	0.009307432907
23	18602	55.380816605746	0.010723963122
23	18607	55.398519339777	0.007869589657
23	18612	55.407543848301	0.007869589657
23	18620	55.415413437958	0.010254488046
23	18622	55.423283027615	0.016690417381
23	18627	55.436496257438	0.007869589657
23	18632	55.453596010365	0.007869589657
23	18637	55.476541872634	0.007869589657
23	18645	55.484411462291	0.011027296218
23	18650	55.492281051948	0.017914368412
23	18652	55.500150641605	0.021086908027
23	18657	55.508020231262	0.010415584075
23	18662	55.529709085271	0.007869589657
23	18667	55.537578674928	0.010454331523
23	18672	55.545448264585	0.011252564326
23	18677	55.553317854242	0.01515609815
23	18682	55.562215084175	0.007869589657
23	18687	55.570084673832	0.010099838074
23	18693	55.577954263489	0.009425305262
23	18698	55.612262124987	0.007869589657
23	18703	55.620131714644	0.009124896734
23	18708	55.636204470112	0.007869589657
23	18713	55.644074059769	0.010279390935
23	18718	55.662311530147	0.007869589657
23	18723	55.671822577208	0.007869589657
23	18728	55.679692166865	0.014876008098
23	18733	55.708227215395	0.007869589657
23	18738	55.719677586484	0.007869589657
23	18743	55.727547176141	0.012531987853
23	18748	55.735416765798	0.014983664296
23	18753	55.74668519326	0.007869589657
23	18761	55.754554782917	0.013178900906
23	18763	55.762424372574	0.020804878048
23	18768	55.781395567117	0.007869589657
23	18773	55.789265156774	0.012794057848
23	18778	55.807532310194	0.007869589657
23	18783	55.8391358585	0.007869589657
23	18788	55.847005448157	0.015716282923
23	18793	55.854875037814	0.010608710023
23	18798	55.862744627471	0.013719374893
23	18803	55.871166050751	0.007869589657
23	18808	55.879035640408	0.008140633576
23	18813	55.886905230065	0.012955496595
23	18819	55.908305438105	0.007868705036
23	18824	55.917987617308	0.007868705036
23	18829	55.925856322344	0.014457573757
23	18834	55.952245322735	0.007868705036
23	18839	55.960114027771	0.008923518003
23	18844	55.967982732807	0.011760818466
23	18849	55.986078241211	0.007868705036
23	18854	55.993946946247	0.013686478946
23	18859	56.001815651283	0.012159965289
23	18867	56.009684356319	0.01557442948
23	18872	56.017553061355	0.019434785918
23	18877	56.025421766391	0.017142727949
23	18879	56.033290471427	0.020102938407
23	18884	56.041159176463	0.009004417769
23	18889	56.062468112772	0.007868705036
23	18894	56.070336817808	0.014097452557
23	18899	56.078205522844	0.008220749876
23	18910	56.08607422788	0.011838300794
23	18912	56.093942932916	0.018605829822
23	18917	56.101811637952	0.024262362605
23	18919	56.109680342988	0.022976891799
23	18924	56.122142026228	0.007868705036
23	18929	56.131509656104	0.007868705036
23	18934	56.144717492205	0.007868705036
23	18939	56.152586197241	0.012384037469
23	18945	56.160454902277	0.010799611123
23	18950	56.171361087607	0.007868705036
23	18955	56.179229792643	0.008221164756
23	18960	56.198290541417	0.007868705036
23	18965	56.206159246453	0.010791542082
23	18970	56.214027951489	0.009169871606
23	18975	56.229799325667	0.007868705036
23	18980	56.242917739088	0.007868705036
23	18985	56.268597495582	0.007868705036
23	18990	56.276466200618	0.015097597923
23	18995	56.298708354185	0.007868705036
23	19000	56.322160655058	0.007868705036
23	19005	56.336767303753	0.007868705036
23	19010	56.366737769143	0.007868705036
23	19015	56.428464263056	0.007868705036
23	19020	56.441363205411	0.007868705036
23	19025	56.451276982286	0.007868705036
23	19030	56.459145687322	0.012019732473
23	19035	56.468683351385	0.007868705036
23	19040	56.481137362688	0.007868705036
23	19045	56.492621123605	0.007868705036
23	19050	56.500489828641	0.014612755394
23	19055	56.508358533677	0.010978086353
23	19060	56.519579427397	0.007868705036
23	19065	56.543960550592	0.007868705036
23	19070	56.555317882467	0.007868705036
23	19075	56.606503245835	0.007868705036
23	19080	56.614371950871	0.009071279323
23	19085	56.627261890564	0.007868705036
23	19090	56.642989786375	0.007868705036
23	19095	56.651698417875	0.007868705036
23	19100	56.659567122911	0.014889964915
23	19105	56.685617084559	0.007868705036
23	19110	56.698733675283	0.007868705036
23	19115	56.706994140589	0.007868705036
23	19120	56.721829900369	0.007868705036
23	19125	56.741532343434	0.007868705036
23	19130	56.75247736232	0.007868705036
23	19135	56.760346067356	0.014043254242
23	19140	56.774555803562	0.007868705036
23	19148	56.782424508598	0.012612497407
23	19150	56.790293213634	0.016092382661
23	19155	56.79816191867	0.010972876978
23	19160	56.810264476373	0.007868705036
23	19165	56.829847776955	0.007868705036
23	19173	56.837716481991	0.014606707519
23	19175	56.845585187027	0.022063548159
23	19180	56.853453892063	0.014085262926
23	19185	56.871720994359	0.007868705036
23	19190	56.879589699395	0.014043866195
23	19195	56.888277172003	0.007868705036
23	19200	56.896145877039	0.007891877199
23	19205	56.91206919018	0.007868705036
23	19213	56.919937895216	0.013208328546
23	19218	56.927806600252	0.019798905702
23	19226	56.935675305288	0.019588352309
23	19231	56.943544010324	0.021415602233
23	19236	56.95141271536	0.028893317973
23	19241	56.959281420396	0.026430404728
23	19243	56.967150125432	0.026334244145
23	19245	56.975018830468	0.027699896077
23	19250	56.990497460318	0.007868705036
23	19255	57.0189591073	0.007868705036
23	19260	57.026827812336	0.008981391867
23	19268	57.034696517372	0.012274798806
23	19270	57.042565222408	0.019072338725
23	19275	57.050433927444	0.01369601508
23	19280	57.104689978074	0.007868705036
23	19285	57.114957527984	0.007868705036
23	19293	57.12282623302	0.0135215491
23	19298	57.130694938056	0.021345004891
23	19303	57.138563643092	0.022727112562
23	19308	57.146432348128	0.018057438619
23	19316	57.154301053164	0.017866166267
23	19318	57.1621697582	0.022141169135
23	19320	57.170038463236	0.026667910271
23	19325	57.211453360403	0.007868705036
23	19330	57.219322065439	0.013812172129
23	19335	57.234844171997	0.007868705036
23	19340	57.306959655569	0.007868705036
23	19345	57.314828360605	0.014472586277
23	19350	57.322697065641	0.009650897489
23	19355	57.330565770677	0.013475612454
23	19360	57.338654155342	0.007868705036
23	19365	57.352724202267	0.007868705036
23	19370	57.401817608508	0.007868705036
23	19378	57.409686313544	0.012996184785
23	19383	57.41755501858	0.020052841964
23	19385	57.425422839194	0.018705404498
23	19390	57.433290659808	0.010680630824
23	19395	57.455746721799	0.007867820614
23	19406	57.463614542413	0.014125098169
23	19411	57.471482363027	0.021483162582
23	19419	57.479350183641	0.025783995859
23	19421	57.487218004255	0.025573075738
23	19423	57.495085824869	0.02851191183
23	19431	57.502953645483	0.033337670905
23	19433	57.510821466097	0.023119796116
23	19435	57.518689286711	0.024255075114
23	19440	57.526557107325	0.00889329009
23	19445	57.539864418058	0.007867820614
23	19450	57.547732238672	0.008607213902
23	19455	57.558446462866	0.007867820614
23	19460	57.574008883438	0.007867820614
23	19465	57.590998807958	0.007867820614
23	19470	57.598866628572	0.014596476236
23	19475	57.620478238589	0.007867820614
23	19480	57.664878572855	0.007867820614
23	19485	57.672746393469	0.014487334997
23	19493	57.680614214083	0.010842332234
23	19495	57.688482034697	0.01795777999
23	19500	57.696349855311	0.008121245699
23	19505	57.715709170189	0.007867820614
23	19510	57.723576990803	0.012081343022
23	19515	57.731444811417	0.01562179134
23	19520	57.739312632031	0.011941012461
23	19525	57.776854642027	0.007867820614
23	19530	57.784871925847	0.007867820614
23	19535	57.812555437561	0.007867820614
23	19540	57.820423258175	0.01363603142
23	19545	57.843865970274	0.007867820614
23	19550	57.851733790888	0.011539694648
23	19555	57.859601611502	0.011661271076
23	19560	57.867469432116	0.009427876884
23	19565	57.897084030106	0.007867820614
23	19570	57.90495185072	0.011309973279
23	19575	57.927801696069	0.007867820614
23	19580	57.97099918162	0.007867820614
23	19585	57.991832122239	0.007867820614
23	19590	58.008243978134	0.007867820614
23	19595	58.016111798748	0.01438194693
23	19600	58.023979619362	0.008105918095
23	19605	58.031847439976	0.0107936394
23	19610	58.082019800514	0.007867820614
23	19618	58.089887621128	0.013161399005
23	19626	58.097755441742	0.020307331986
23	19631	58.105623262356	0.020363452255
23	19639	58.11349108297	0.025374760038
23	19641	58.121358903584	0.031235216008
23	19646	58.129226724198	0.029106035252
23	19651	58.137094544812	0.031522994784
23	19656	58.144962365426	0.028317509343
23	19658	58.15283018604	0.028107707612
23	19660	58.160698006654	0.025503325462
23	19665	58.168565827268	0.011695210941
23	19670	58.181779643912	0.007867820614
23	19675	58.189647464526	0.008307518455
23	19680	58.207514956932	0.007867820614
23	19685	58.215382777546	0.014947758224
23	19690	58.236364665767	0.007867820614
23	19701	58.244232486381	0.013246778118
23	19706	58.252100306995	0.019081577193
23	19714	58.259968127609	0.026002160177
23	19719	58.267835948223	0.027274283389
23	19721	58.275703768837	0.029078547057
23	19723	58.283571589451	0.032311988247
23	19725	58.291439410065	0.033857172687
23	19730	58.336641623145	0.007867820614
23	19735	58.344509443759	0.012004106129
23	19740	58.352377264373	0.01467304366
23	19745	58.367530739185	0.007867820614
23	19750	58.375398559799	0.009819702506
23	19755	58.383266380413	0.013091275454
23	19760	58.395999035804	0.007867820614
23	19765	58.403866856418	0.010710636895
23	19770	58.425571576279	0.007867820614
23	19775	58.433439396893	0.011882082253
23	19780	58.444235918327	0.007867820614
23	19785	58.460947293181	0.007867820614
23	19790	58.526859127023	0.007867820614
23	19795	58.543825134481	0.007867820614
23	19803	58.551692955095	0.010765735963
23	19808	58.559560775709	0.017106807762
23	19813	58.567428596323	0.021078526591
23	19818	58.575296416937	0.02146788486
23	19823	58.583164237551	0.021275120081
23	19825	58.591032058165	0.019437964002
23	19830	58.598899878779	0.008263069672
23	19835	58.629068740201	0.007867820614
23	19840	58.636936560815	0.00948750477
23	19845	58.644804381429	0.008315521675
23	19850	58.674008591977	0.007867820614
23	19855	58.681876412591	0.009356231852
23	19860	58.701546319198	0.007867820614
23	19865	58.72710933878	0.007867820614
23	19870	58.738197975805	0.007867820614
23	19875	58.766578658472	0.007867820614
23	19880	58.777194101994	0.007867820614
23	19885	58.785061922608	0.011308934852
23	19890	58.821692997316	0.007867820614
23	19895	58.82956081793	0.00808848684
23	19900	58.837428638544	0.0139570278
23	19905	58.847571489013	0.007867820614
23	19913	58.855439309627	0.014023043669
23	19921	58.863307130241	0.015812697262
23	19923	58.871174950855	0.018498795775
23	19925	58.879042771469	0.025052279008
23	19930	58.940904512703	0.007867820614
23	19935	58.948772333317	0.014709991311
23	19943	58.956639269707	0.014528969838
23	19945	58.964506206097	0.016303559328
23	19950	58.972373142487	0.015468144348
23	19958	58.980240078877	0.014436823705
23	19960	58.988107015267	0.022156964423
23	19965	58.995973951657	0.011134718025
23	19970	59.003840888047	0.010780199712
23	19975	59.011707824437	0.0107523841
23	19980	59.019574760827	0.01487852131
23	19985	59.029209947054	0.00786693639
23	19996	59.037076883444	0.015615224304
23	19998	59.044943819834	0.018806924889
23	20003	59.052810756224	0.02435378423
23	20011	59.060677692614	0.016251783624
23	20013	59.068544629004	0.017619467695
23	20018	59.076411565394	0.02525137862
23	20020	59.084278501784	0.022536693434
23	20025	59.120986454717	0.00786693639
23	20030	59.128853391107	0.009572357034
23	20038	59.136720327497	0.014072048446
23	20040	59.144587263887	0.017463719943
23	20045	59.166035430127	0.00786693639
23	20050	59.193208238066	0.00786693639
23	20055	59.218252271024	0.00786693639
23	20060	59.226119207414	0.008266553952
23	20065	59.242220769886	0.00786693639
23	20070	59.262356511246	0.00786693639
23	20075	59.270223447636	0.012661784769
23	20080	59.307679184606	0.00786693639
23	20085	59.317584393533	0.00786693639
23	20090	59.338582058503	0.00786693639
23	20095	59.346448994893	0.013203496493
23	20100	59.354315931283	0.00970202939
23	20105	59.377208616179	0.00786693639
23	20110	59.397578765692	0.00786693639
23	20115	59.429713081468	0.00786693639
23	20120	59.437580017858	0.014632953851
23	20125	59.458689497189	0.00786693639
23	20130	59.469084561588	0.00786693639
23	20136	59.476951497978	0.013933839081
23	20141	59.484818434368	0.014905992836
23	20149	59.492685370758	0.013799524596
23	20154	59.500552307148	0.016394038932
23	20159	59.508419243538	0.017452770382
23	20164	59.516286179928	0.021686972442
23	20169	59.524153116318	0.016653385299
23	20171	59.532020052708	0.021631291356
23	20176	59.549721969913	0.00786693639
23	20184	59.557588906303	0.011574505627
23	20189	59.565455842693	0.016216211497
23	20191	59.573322779083	0.021057091397
23	20196	59.581189715473	0.010508309245
23	20201	59.619414032917	0.00786693639
23	20206	59.647701705761	0.00786693639
23	20211	59.656092189267	0.00786693639
23	20219	59.663959125657	0.012985876206
23	20224	59.671826062047	0.017455767791
23	20229	59.679692998437	0.023250771936
23	20234	59.687559934827	0.01697449721
23	20236	59.695426871217	0.021172509374
23	20241	59.710231077716	0.00786693639
23	20249	59.718098014106	0.012592637501
23	20254	59.725964950496	0.020377520609
23	20256	59.733831886886	0.017850033207
23	20261	59.753973206194	0.00786693639
23	20266	59.788558125373	0.00786693639
23	20274	59.796425061763	0.012157368541
23	20276	59.804291998153	0.017750914009
23	20281	59.812158934543	0.01469502816
23	20286	59.820025870933	0.011102232316
23	20291	59.857683396197	0.00786693639
23	20296	59.885528807113	0.00786693639
23	20301	59.893395743503	0.009846867753
23	20306	59.906192022514	0.00786693639
23	20311	59.963706121022	0.00786693639
23	20316	59.975569272861	0.00786693639
23	20321	59.983436209251	0.013235841161
23	20326	59.991443955058	0.00786693639

