version 2
run non-monitoring-5-20210204-12:56:00-13204
attr configname non-monitoring
attr datetime 20210204-12:56:00
attr experiment non-monitoring
attr inifile aerocom.ini
attr iterationvars ""
attr iterationvarsf ""
attr measurement ""
attr network Aerocom
attr processid 13204
attr repetition 5
attr replication #5
attr resultdir results
attr runnumber 5
attr seedset 5
param **.t 1s
param **.k 1s
param **.nA 10
param **.nDL 10
param **.dataLink[*].s "70 byte"
param **.dataLink[*].X 5s
param **.dataLink[*].dimPoolMax 9000
param **.dataLink[*].dimPoolMin 9000
param **.dataLink[*].tDistribution "\"exponential\""
param **.aircraft[*].m 1s
param **.aircraft[*].linkSelector.DLMaxCapacity 0
param **.aircraft[*].linkSelector.trasmitting false
param **.operationMode 1

vector 0 Aerocom.aircraft[0].packetGenerator arrivalTime:vector ETV
attr "" ""
attr source computeArrivalTime
vector 1 Aerocom.aircraft[0].dataLink[0] serviceTime:vector ETV
attr "" ""
attr source computeServiceTime
vector 2 Aerocom.aircraft[0].dataLink[0] tDistribution:vector ETV
attr "" ""
attr source computeTDistribution
vector 3 Aerocom.aircraft[0].dataLink[1] serviceTime:vector ETV
attr "" ""
attr source computeServiceTime
vector 4 Aerocom.aircraft[0].dataLink[1] tDistribution:vector ETV
attr "" ""
attr source computeTDistribution
vector 5 Aerocom.aircraft[0].dataLink[2] serviceTime:vector ETV
attr "" ""
attr source computeServiceTime
vector 6 Aerocom.aircraft[0].dataLink[2] tDistribution:vector ETV
attr "" ""
attr source computeTDistribution
vector 7 Aerocom.aircraft[0].dataLink[3] serviceTime:vector ETV
attr "" ""
attr source computeServiceTime
vector 8 Aerocom.aircraft[0].dataLink[3] tDistribution:vector ETV
attr "" ""
attr source computeTDistribution
vector 9 Aerocom.aircraft[0].dataLink[4] serviceTime:vector ETV
attr "" ""
attr source computeServiceTime
vector 10 Aerocom.aircraft[0].dataLink[4] tDistribution:vector ETV
attr "" ""
attr source computeTDistribution
vector 11 Aerocom.aircraft[0].dataLink[5] serviceTime:vector ETV
attr "" ""
attr source computeServiceTime
vector 12 Aerocom.aircraft[0].dataLink[5] tDistribution:vector ETV
attr "" ""
attr source computeTDistribution
vector 13 Aerocom.aircraft[0].dataLink[6] serviceTime:vector ETV
attr "" ""
attr source computeServiceTime
vector 14 Aerocom.aircraft[0].dataLink[6] tDistribution:vector ETV
attr "" ""
attr source computeTDistribution
vector 15 Aerocom.aircraft[0].dataLink[7] serviceTime:vector ETV
attr "" ""
attr source computeServiceTime
vector 16 Aerocom.aircraft[0].dataLink[7] tDistribution:vector ETV
attr "" ""
attr source computeTDistribution
vector 17 Aerocom.aircraft[0].dataLink[8] serviceTime:vector ETV
attr "" ""
attr source computeServiceTime
vector 18 Aerocom.aircraft[0].dataLink[8] tDistribution:vector ETV
attr "" ""
attr source computeTDistribution
vector 19 Aerocom.aircraft[0].dataLink[9] serviceTime:vector ETV
attr "" ""
attr source computeServiceTime
vector 20 Aerocom.aircraft[0].dataLink[9] tDistribution:vector ETV
attr "" ""
attr source computeTDistribution
vector 21 Aerocom.aircraft[1].packetGenerator arrivalTime:vector ETV
attr "" ""
attr source computeArrivalTime
0	0	0	1.88926883974
1	0	0	0.0077777777777778
2	0	0	0.34908241856692
3	0	0	0.0077777777777778
4	0	0	0.20062130665367
5	0	0	0.0077777777777778
6	0	0	0.75627177442045
7	0	0	0.0077777777777778
8	0	0	1.8593993841654
9	0	0	0.0077777777777778
10	0	0	0.21260030895001
11	0	0	0.0077777777777778
12	0	0	2.1970080573367
13	0	0	0.0077777777777778
14	0	0	0.070315555746763
15	0	0	0.0077777777777778
16	0	0	1.6441397512784
17	0	0	0.0077777777777778
18	0	0	1.5463948623896
19	0	0	0.0077777777777778
20	0	0	0.52801120833318
21	0	0	1.679755504734

