file 884997 1609411008                                          
version 2
run non-monitoring-0-20201231-11:34:26-20816
attr configname non-monitoring
attr datetime 20201231-11:34:26
attr experiment non-monitoring
attr inifile aerocom.ini
attr iterationvars ""
attr iterationvarsf ""
attr measurement ""
attr network Aerocom
attr processid 20816
attr repetition 0
attr replication #0
attr resultdir results
attr runnumber 0
attr seedset 0
param **.t 0.5s
param **.k 0.5s
param **.nDL 1
param **.dataLink[*].s "70 byte"
param **.dataLink[*].X 0
param **.dataLink[*].dimPoolMax 100
param **.dataLink[*].dimPoolMin 10
param **.dataLink[*].tDistribution "\"exponential\""
param **.aircraft[*].m 1s
param **.aircraft[*].linkSelector.DLMaxCapacity 0
param **.aircraft[*].linkSelector.trasmitting false
param **.operationMode 1

vector 0 Aerocom.aircraft[0].dataLink[0] queueLength:vector ETV
attr "" ""
attr source computeQueueLength
vector 1 Aerocom.aircraft[0].dataLink[0] waitingTime:vector ETV
attr "" ""
attr source computeWaitingTime
vector 2 Aerocom.aircraft[0].dataLink[0] responseTime:vector ETV
attr "" ""
attr source computeResponseTime
0	1115 238581 120893 166693 10000.335380543637 13772.656940266339 7657 0 73 56709 1181263
1	239696 321539 120893 166723 10000.335380543637 13773.105285349006 7652 -1e-012 31.118898667296 27471.481304376 251196.52390549
2	561235 323760 120893 166723 10000.335380543637 13773.105285349006 7652 -1e-012 31.767195457824 30554.481304376 277973.91697269

