version 2
run Non-monitoring-2-20210208-19:10:39-12908
attr configname Non-monitoring
attr datetime 20210208-19:10:39
attr experiment Non-monitoring
attr inifile aerocom.ini
attr iterationvars ""
attr iterationvarsf ""
attr measurement ""
attr network Aerocom
attr processid 12908
attr repetition 2
attr replication #2
attr resultdir results
attr runnumber 2
attr seedset 2
param **.t 1s
param **.k 15ms
param **.nA 1
param **.nDL 10
param **.s "70 byte"
param **.X 5s
param **.dimPoolMax 10000
param **.dimPoolMin 8000
param **.tDistribution "\"lognormal\""
param **.m 1s
param **.DLMaxCapacity 0
param **.trasmitting false
param **.operationMode 1

vector 0 Aerocom.aircraft[0].packetGenerator arrivalTime:vector ETV
attr "" ""
attr source computeArrivalTime
vector 1 Aerocom.aircraft[0].dataLink[0] serviceTime:vector ETV
attr "" ""
attr source computeServiceTime
vector 2 Aerocom.aircraft[0].dataLink[0] tDistribution:vector ETV
attr "" ""
attr source computeTDistribution
vector 3 Aerocom.aircraft[0].dataLink[1] serviceTime:vector ETV
attr "" ""
attr source computeServiceTime
vector 4 Aerocom.aircraft[0].dataLink[1] tDistribution:vector ETV
attr "" ""
attr source computeTDistribution
vector 5 Aerocom.aircraft[0].dataLink[2] serviceTime:vector ETV
attr "" ""
attr source computeServiceTime
vector 6 Aerocom.aircraft[0].dataLink[2] tDistribution:vector ETV
attr "" ""
attr source computeTDistribution
vector 7 Aerocom.aircraft[0].dataLink[3] serviceTime:vector ETV
attr "" ""
attr source computeServiceTime
vector 8 Aerocom.aircraft[0].dataLink[3] tDistribution:vector ETV
attr "" ""
attr source computeTDistribution
vector 9 Aerocom.aircraft[0].dataLink[4] serviceTime:vector ETV
attr "" ""
attr source computeServiceTime
vector 10 Aerocom.aircraft[0].dataLink[4] tDistribution:vector ETV
attr "" ""
attr source computeTDistribution
vector 11 Aerocom.aircraft[0].dataLink[5] serviceTime:vector ETV
attr "" ""
attr source computeServiceTime
vector 12 Aerocom.aircraft[0].dataLink[5] tDistribution:vector ETV
attr "" ""
attr source computeTDistribution
vector 13 Aerocom.aircraft[0].dataLink[6] serviceTime:vector ETV
attr "" ""
attr source computeServiceTime
vector 14 Aerocom.aircraft[0].dataLink[6] tDistribution:vector ETV
attr "" ""
attr source computeTDistribution
vector 15 Aerocom.aircraft[0].dataLink[7] serviceTime:vector ETV
attr "" ""
attr source computeServiceTime
vector 16 Aerocom.aircraft[0].dataLink[7] tDistribution:vector ETV
attr "" ""
attr source computeTDistribution
vector 17 Aerocom.aircraft[0].dataLink[8] serviceTime:vector ETV
attr "" ""
attr source computeServiceTime
vector 18 Aerocom.aircraft[0].dataLink[8] tDistribution:vector ETV
attr "" ""
attr source computeTDistribution
vector 19 Aerocom.aircraft[0].dataLink[9] serviceTime:vector ETV
attr "" ""
attr source computeServiceTime
vector 20 Aerocom.aircraft[0].dataLink[9] tDistribution:vector ETV
attr "" ""
attr source computeTDistribution
vector 21 Aerocom.aircraft[0].dataLink[7] queueLength:vector ETV
attr "" ""
attr source computeQueueLength
vector 22 Aerocom.aircraft[0].dataLink[7] waitingTime:vector ETV
attr "" ""
attr source computeWaitingTime
vector 23 Aerocom.aircraft[0].dataLink[7] responseTime:vector ETV
attr "" ""
attr source computeResponseTime
0	0	0	0.033504303867
0	13	0.033504303867	0.0074138443
0	18	0.040918148167	0.010948300702
0	23	0.051866448869	0.004112878025
0	27	0.055979326894	0.012971799711
0	33	0.068951126605	0.002537202659
0	37	0.071488329264	0.015549573695
0	44	0.087037902959	0.036835238971
0	49	0.12387314193	0.025710164148
0	54	0.149583306078	0.009609065207
0	59	0.159192371285	0.007996092389
0	64	0.167188463674	0.017021547874
0	69	0.184210011548	0.031344517927
0	74	0.215554529475	0.024271194937
0	79	0.239825724412	0.026038580161
0	86	0.265864304573	0.002399797215
0	90	0.268264101788	0.024305250522
0	96	0.29256935231	0.006626380985
0	100	0.299195733295	0.020000214977
0	106	0.319195948272	0.01437532004
0	111	0.333571268312	0.01852327305
0	116	0.352094541362	0.008764674295
0	121	0.360859215657	0.011678512664
0	126	0.372537728321	0.012868641989
0	131	0.38540637031	0.001999957072
0	135	0.387406327382	0.001329866212
0	138	0.388736193594	0.047425844801
0	146	0.436162038395	0.003790199842
0	150	0.439952238237	0.007744013645
0	155	0.447696251882	0.003686402492
0	160	0.451382654374	0.003668403133
0	163	0.455051057507	0.026195367657
0	171	0.481246425164	0.018949253567
0	176	0.500195678731	0.00924949897
0	181	0.509445177701	0.077267705567
0	187	0.586712883268	0.023239949007
0	192	0.609952832275	0.016689577181
0	197	0.626642409456	0.020198079125
0	202	0.646840488581	0.013707128862
0	207	0.660547617443	0.019099713111
0	212	0.679647330554	0.018952240854
0	217	0.698599571408	0.023979418413
0	222	0.722578989821	0.0415527622
0	227	0.764131752021	0.032042894346
0	233	0.796174646367	0.004388089762
0	237	0.800562736129	0.005477981632
0	242	0.806040717761	0.007724324713
0	247	0.813765042474	0.020519459444
0	253	0.834284501918	0.020586505931
0	258	0.854871007849	0.007370719579
0	263	0.862241727428	0.019314151824
0	268	0.881555879252	0.009513771082
0	273	0.891069650334	0.007815861636
0	278	0.89888551197	0.018570410614
0	283	0.917455922584	0.068175031732
0	288	0.985630954316	0.006814945656
0	292	0.992445899972	0.008981177761
0	298	1.001427077733	0.039310963465
0	303	1.040738041198	0.00702148398
0	307	1.047759525178	0.019762000331
0	313	1.067521525509	0.01854891786
0	318	1.086070443369	0.004192476613
0	322	1.090262919982	0.001290862919
0	325	1.091553782901	0.017075790759
0	334	1.10862957366	0.0221027042
0	339	1.13073227786	0.029099178104
0	344	1.159831455964	0.021706660059
0	349	1.181538116023	0.010135450699
0	354	1.191673566722	0.00500818105
0	358	1.196681747772	0.011408377723
0	364	1.208090125495	0.003152339926
0	368	1.211242465421	0.002467035222
0	371	1.213709500643	0.009558620632
0	378	1.223268121275	0.024489224685
0	384	1.24775734596	0.006115149184
0	388	1.253872495144	0.014271349175
0	394	1.268143844319	0.019905391933
0	399	1.288049236252	0.004299777363
0	403	1.292349013615	0.003144289667
0	408	1.295493303282	0.007555838681
0	413	1.303049141963	0.006031902023
0	416	1.309081043986	0.012317299237
0	423	1.321398343223	0.027890468627
0	429	1.34928881185	0.012173323298
0	434	1.361462135148	0.014318615641
0	439	1.375780750789	0.012049230664
0	444	1.387829981453	0.032476831632
0	449	1.420306813085	0.009308515514
0	454	1.429615328599	0.05629520206
0	459	1.485910530659	0.016659795425
0	464	1.502570326084	0.027201666829
0	469	1.529771992913	0.032271020005
0	474	1.562043012918	0.002991856272
0	478	1.56503486919	0.009800370176
0	483	1.574835239366	0.014451148281
0	489	1.589286387647	0.008070373969
0	494	1.597356761616	0.009697070831
0	499	1.607053832447	0.004343020442
0	503	1.611396852889	0.007766662259
0	508	1.619163515148	0.043852335811
0	514	1.663015850959	0.020315174238
0	519	1.683331025197	0.061197663547
0	524	1.744528688744	0.026224749872
0	530	1.770753438616	0.011973496002
0	535	1.782726934618	0.002249644217
0	539	1.784976578835	0.009351816393
0	544	1.794328395228	0.018201514215
0	550	1.812529909443	0.007303813252
0	555	1.819833722695	0.000909588644
0	559	1.820743311339	0.007851252691
0	564	1.82859456403	0.003210257589
0	567	1.831804821619	0.00503522905
0	572	1.836840050669	0.038812818053
0	580	1.875652868722	1.2792658e-005
0	584	1.87566566138	0.007790491272
0	589	1.883456152652	0.008553641554
0	594	1.892009794206	0.002407664704
0	597	1.89441745891	0.013276843114
0	604	1.907694302024	0.017199108464
0	610	1.924893410488	0.011096720211
0	615	1.935990130699	0.002677729598
0	619	1.938667860297	0.017147180915
0	625	1.955815041212	0.015671462976
0	630	1.971486504188	0.001385008621
0	634	1.972871512809	0.004347548758
0	637	1.977219061567	0.014873633241
0	644	1.992092694808	0.000633837476
0	647	1.992726532284	0.022675692318
0	655	2.015402224602	0.047811602339
0	661	2.063213826941	0.009862252958
0	666	2.073076079899	0.010790525134
0	671	2.083866605033	0.007081566172
0	675	2.090948171205	0.006262228681
0	680	2.097210399886	0.000732852685
0	683	2.097943252571	0.016182578152
0	691	2.114125830723	0.005703043637
0	695	2.11982887436	0.027909635504
0	701	2.147738509864	0.015711972475
0	706	2.163450482339	0.013890062125
0	711	2.177340544464	0.004443999916
0	715	2.18178454438	0.013272378468
0	721	2.195056922848	0.009056654655
0	726	2.204113577503	0.001867012453
0	730	2.205980589956	0.002095879135
0	733	2.208076469091	0.01859142651
0	741	2.226667895601	0.031799878668
0	746	2.258467774269	0.003432205005
0	750	2.261899979274	0.070879438178
0	756	2.332779417452	0.010110989705
0	761	2.342890407157	0.001503102262
0	765	2.344393509419	0.000559431503
0	768	2.344952940922	0.022748794371
0	776	2.367701735293	0.00568388661
0	780	2.373385621903	0.005754111067
0	785	2.37913973297	0.029819945244
0	791	2.408959678214	0.008584897895
0	796	2.417544576109	0.012262524785
0	801	2.429807100894	0.016265819919
0	806	2.446072920813	0.011868275954
0	811	2.457941196767	0.005843476322
0	815	2.463784673089	0.006878827308
0	820	2.470663500397	0.000372252873
0	823	2.47103575327	0.026417582303
0	831	2.497453335573	0.018159531251
0	836	2.515612866824	0.004851720872
0	840	2.520464587696	0.023903836289
0	846	2.544368423985	0.002014261007
0	850	2.546382684992	0.001964312524
0	853	2.548346997516	0.012409818568
0	860	2.560756816084	0.028546506754
0	866	2.589303322838	0.004666082596
0	870	2.593969405434	0.035638718619
0	876	2.629608124053	0.02237715216
0	881	2.651985276213	0.003308247114
0	885	2.655293523327	0.002965908563
0	888	2.65825943189	0.001366932014
0	893	2.659626363904	0.022935621564
0	901	2.682561985468	0.03034720937
0	906	2.712909194838	0.014047260848
0	911	2.726956455686	0.025289749855
0	917	2.752246205541	0.012358241825
0	922	2.764604447366	0.000389868947
0	926	2.764994316313	0.016545528666
0	932	2.781539844979	0.02137793838
0	937	2.802917783359	0.041804599921
0	942	2.84472238328	0.015274296108
0	947	2.859996679388	0.023127099661
0	952	2.883123779049	0.012466513781
0	957	2.89559029283	0.020820265969
0	962	2.916410558799	0.036035338235
0	967	2.952445897034	0.010308996714
0	972	2.962754893748	0.016937463259
0	977	2.979692357007	0.000655086124
0	981	2.980347443131	0.005002864304
0	984	2.985350307435	0.025463179658
0	993	3.010813487093	0.07296269778
0	998	3.083776184873	0.011978988362
0	1003	3.095755173235	0.004377509174
0	1007	3.100132682409	0.012548224506
0	1013	3.112680906915	0.032440251901
0	1018	3.145121158816	0.001797273463
0	1022	3.146918432279	0.006339340697
0	1027	3.153257772976	0.000972498332
0	1030	3.154230271308	0.004980475068
0	1033	3.159210746376	0.012825261452
0	1040	3.172036007828	0.018141557245
0	1048	3.190177565073	0.009967966312
0	1053	3.200145531385	0.006505712095
0	1057	3.20665124348	0.005380628718
0	1062	3.212031872198	0.000713825403
0	1065	3.212745697601	0.000609135855
0	1068	3.213354833456	0.007304454054
0	1073	3.22065928751	0.015072490987
0	1080	3.235731778497	0.023415245976
0	1088	3.259147024473	0.00199158681
0	1092	3.261138611283	0.035872023252
0	1098	3.297010634535	0.000175105764
0	1102	3.297185740299	0.001071711671
0	1105	3.29825745197	0.004858275174
0	1108	3.303115727144	0.043765744545
0	1118	3.346881471689	0.005383279471
0	1122	3.35226475116	0.004926961711
0	1127	3.357191712871	0.002982575521
0	1130	3.360174288392	0.025615694844
0	1138	3.385789983236	0.001039896919
0	1142	3.386829880155	0.000470230045
0	1145	3.3873001102	0.022659775918
0	1153	3.409959886118	0.025950452489
0	1158	3.435910338607	0.007681107889
0	1163	3.443591446496	0.018588361211
0	1168	3.462179807707	0.00423176067
0	1172	3.466411568377	0.028562189226
0	1178	3.494973757603	0.011127884249
0	1183	3.506101641852	0.000669025527
0	1187	3.506770667379	0.004415277859
0	1190	3.511185945238	0.010604152948
0	1197	3.521790098186	0.028648870977
0	1203	3.550438969163	0.003485886843
0	1207	3.553924856006	0.009910303673
0	1212	3.563835159679	0.019704269455
0	1218	3.583539429134	0.014638618594
0	1223	3.598178047728	0.015525903789
0	1228	3.613703951517	0.054219107869
0	1233	3.667923059386	0.022998547114
0	1238	3.6909216065	0.006571704242
0	1242	3.697493310742	0.008398168296
0	1248	3.705891479038	0.003816526529
0	1252	3.709708005567	0.014922792919
0	1258	3.724630798486	0.057745448632
0	1263	3.782376247118	0.006540841112
0	1267	3.78891708823	0.013267318404
0	1273	3.802184406634	0.046071256682
0	1278	3.848255663316	0.059997564053
0	1283	3.908253227369	0.014365761242
0	1288	3.922618988611	0.051945810337
0	1293	3.974564798948	0.010117956352
0	1298	3.9846827553	0.018316984884
0	1303	4.002999740184	0.004443432642
0	1307	4.007443172826	0.000293642659
0	1310	4.007736815485	0.004054933215
0	1315	4.0117917487	0.014233386306
0	1322	4.026025135006	0.011060119883
0	1327	4.037085254889	0.00430641707
0	1332	4.041391671959	0.016634166577
0	1338	4.058025838536	0.002079205016
0	1342	4.060105043552	0.011967903583
0	1347	4.072072947135	0.006841774355
0	1352	4.07891472149	0.007204102596
0	1357	4.086118824086	0.003348906551
0	1362	4.089467730637	0.015491820881
0	1368	4.104959551518	0.021817404112
0	1373	4.12677695563	0.034208921742
0	1378	4.160985877372	0.040812739316
0	1383	4.201798616688	0.01094121816
0	1388	4.212739834848	0.000401358016
0	1392	4.213141192864	0.031957537674
0	1398	4.245098730538	0.004436996178
0	1402	4.249535726716	0.003228904143
0	1407	4.252764630859	0.004642741545
0	1410	4.257407372404	0.026059189493
0	1418	4.283466561897	0.002302998089
0	1422	4.285769559986	0.005873397195
0	1427	4.291642957181	0.045392657546
0	1433	4.337035614727	0.017719657974
0	1438	4.354755272701	0.004267545915
0	1442	4.359022818616	0.018173453587
0	1448	4.377196272203	0.006605185062
0	1452	4.383801457265	0.023417950114
0	1458	4.407219407379	0.0007526575
0	1462	4.407972064879	0.003546801447
0	1465	4.411518866326	0.004079703283
0	1470	4.415598569609	0.016049303665
0	1477	4.431647873274	0.032161269252
0	1483	4.463809142526	0.036763083646
0	1488	4.500572226172	0.050045061826
0	1493	4.550617287998	0.003921834272
0	1497	4.55453912227	0.016007917727
0	1503	4.570547039997	0.000887225525
0	1507	4.571434265522	0.005283012523
0	1510	4.576717278045	0.005145834431
0	1515	4.581863112476	0.000917538593
0	1518	4.582780651069	0.008810091726
0	1523	4.591590742795	0.029974725058
0	1533	4.621565467853	0.000119288296
0	1537	4.621684756149	0.002528781031
0	1540	4.62421353718	0.022156057133
0	1548	4.646369594313	0.004711378337
0	1552	4.65108097265	0.003896115329
0	1557	4.654977087979	0.011917889389
0	1562	4.666894977368	0.017932910985
0	1568	4.684827888353	0.004360849089
0	1572	4.689188737442	0.02644184451
0	1578	4.715630581952	0.027933831813
0	1583	4.743564413765	0.011820725126
0	1588	4.755385138891	0.010463801883
0	1593	4.765848940774	0.010492862962
0	1598	4.776341803736	0.009944781754
0	1603	4.78628658549	0.002368998582
0	1607	4.788655584072	0.035349067251
0	1613	4.824004651323	0.017745447403
0	1618	4.841750098726	0.037023998042
0	1623	4.878774096768	0.004207437183
0	1627	4.882981533951	0.004148712816
0	1632	4.887130246767	0.008341941568
0	1637	4.895472188335	0.000284178357
0	1640	4.895756366692	0.015195469798
0	1647	4.91095183649	0.016643113118
0	1654	4.927594949608	0.046048421666
0	1660	4.973643371274	0.001532657066
0	1664	4.97517602834	0.008953250679
0	1669	4.984129279019	0.008140878373
0	1674	4.992270157392	0.003766737964
0	1679	4.996036895356	0.001926848348
0	1682	4.997963743704	0.002344955149
0	1696	5.000308698853	0.00348066431
0	1701	5.003789363163	0.020479531385
0	1710	5.024268894548	0.020500638874
0	1715	5.044769533422	0.02864758903
0	1720	5.073417122452	0.009123489858
0	1725	5.08254061231	0.008730471347
0	1730	5.091271083657	0.001807275331
0	1734	5.093078358988	0.004526737652
0	1737	5.09760509664	0.003637259414
0	1742	5.101242356054	0.001533053006
0	1745	5.10277540906	0.039941117179
0	1755	5.142716526239	0.00095467803
0	1759	5.143671204269	0.000118891195
0	1762	5.143790095464	0.002119454391
0	1765	5.145909549855	0.015402965195
0	1772	5.16131251505	0.046366335022
0	1780	5.207678850072	0.015520309768
0	1785	5.22319915984	0.023186328643
0	1790	5.246385488483	0.017103297869
0	1795	5.263488786352	0.005812867903
0	1799	5.269301654255	0.012946705315
0	1805	5.28224835957	0.00844851502
0	1810	5.29069687459	0.023023879458
0	1815	5.313720754048	0.011170902307
0	1820	5.324891656355	0.025876703279
0	1825	5.350768359634	0.012477709316
0	1830	5.36324606895	0.015612057882
0	1835	5.378858126832	0.023643605703
0	1840	5.402501732535	0.002970173506
0	1844	5.405471906041	0.001750254042
0	1847	5.407222160083	0.019434360589
0	1855	5.426656520672	0.009010723609
0	1860	5.435667244281	0.005026052145
0	1864	5.440693296426	0.012100426599
0	1870	5.452793723025	0.027627791127
0	1875	5.480421514152	0.036667854067
0	1881	5.517089368219	0.001336856036
0	1885	5.518426224255	0.009778892652
0	1890	5.528205116907	0.036278729064
0	1896	5.564483845971	0.001769370252
0	1900	5.566253216223	0.009311167382
0	1905	5.575564383605	0.018159461122
0	1911	5.593723844727	0.042945240009
0	1916	5.636669084736	0.010559854942
0	1921	5.647228939678	0.000620023859
0	1925	5.647848963537	0.001674150307
0	1928	5.649523113844	0.001705174642
0	1931	5.651228288486	0.032053584428
0	1941	5.683281872914	0.021141577469
0	1946	5.704423450383	0.001042377116
0	1950	5.705465827499	0.000640130436
0	1953	5.706105957935	0.008602832837
0	1958	5.714708790772	0.009010247094
0	1963	5.723719037866	0.01765185809
0	1971	5.741370895956	0.025399291871
0	1976	5.766770187827	0.003702036289
0	1980	5.770472224116	0.008150173847
0	1985	5.778622397963	0.002116494671
0	1988	5.780738892634	0.003160058404
0	1993	5.783898951038	0.026476377395
0	2001	5.810375328433	0.027811921607
0	2006	5.83818725004	0.012095636787
0	2011	5.850282886827	0.001701668595
0	2015	5.851984555422	0.003813364644
0	2018	5.855797920066	0.005095552154
0	2023	5.86089347222	0.012366557034
0	2030	5.873260029254	0.003668740729
0	2033	5.876928769983	0.026260682243
0	2041	5.903189452226	0.009361796724
0	2046	5.91255124895	0.034993226058
0	2051	5.947544475008	0.00577590435
0	2055	5.953320379358	0.014826058184
0	2061	5.968146437542	0.035968967761
0	2066	6.004115405303	0.023719157487
0	2071	6.02783456279	0.023100593285
0	2076	6.050935156075	0.01796784037
0	2081	6.068902996445	0.018349918099
0	2086	6.087252914544	0.008058654603
0	2091	6.095311569147	0.002260659472
0	2095	6.097572228619	0.004197608818
0	2098	6.101769837437	0.014194343611
0	2105	6.115964181048	0.011890533208
0	2111	6.127854714256	0.028607052269
0	2116	6.156461766525	0.038825879905
0	2121	6.19528764643	0.03860970084
0	2126	6.23389734727	0.013359482512
0	2131	6.247256829782	0.016279989364
0	2136	6.263536819146	0.009158217471
0	2141	6.272695036617	0.004495904342
0	2145	6.277190940959	0.012586193408
0	2151	6.289777134367	0.004861035304
0	2155	6.294638169671	0.008438962407
0	2160	6.303077132078	0.015137525425
0	2166	6.318214657503	0.004543828953
0	2170	6.322758486456	0.019332403757
0	2176	6.342090890213	0.001253886697
0	2180	6.34334477691	0.005470331275
0	2183	6.348815108185	0.040750376924
0	2191	6.389565485109	0.016996313336
0	2196	6.406561798445	0.003911663407
0	2200	6.410473461852	0.010593287106
0	2206	6.421066748958	0.000203495493
0	2210	6.421270244451	0.026525251862
0	2216	6.447795496313	0.008197125777
0	2221	6.45599262209	0.017246913161
0	2226	6.473239535251	0.001021995487
0	2230	6.474261530738	0.03613606281
0	2236	6.510397593548	0.011090103047
0	2241	6.521487696595	0.00191647141
0	2245	6.523404168005	0.007322499738
0	2250	6.530726667743	0.02746372433
0	2256	6.558190392073	0.004003974498
0	2260	6.562194366571	0.044425718339
0	2266	6.60662008491	0.012439046223
0	2271	6.619059131133	0.012786397483
0	2276	6.631845528616	0.003623038675
0	2280	6.635468567291	6.2304659e-005
0	2283	6.63553087195	0.002563764724
0	2286	6.638094636674	0.000511300364
0	2289	6.638605937038	0.015110877898
0	2298	6.653716814936	0.007977317751
0	2303	6.661694132687	0.005393875121
0	2306	6.667088007808	0.00919501394
0	2313	6.676283021748	0.033813638377
0	2321	6.710096660125	0.009741313491
0	2326	6.719837973616	0.015786730048
0	2331	6.735624703664	0.017158265029
0	2336	6.752782968693	0.034367274438
0	2341	6.787150243131	0.021090810742
0	2346	6.808241053873	0.0039782333
0	2350	6.812219287173	0.025787512919
0	2356	6.838006800092	0.004497171732
0	2360	6.842503971824	0.006376811236
0	2365	6.84888078306	0.021876734773
0	2371	6.870757517833	0.014315735747
0	2377	6.88507325358	0.015190272605
0	2382	6.900263526185	0.019383628519
0	2387	6.919647154704	0.015276200061
0	2392	6.934923354765	0.012433563491
0	2397	6.947356918256	0.010549770034
0	2402	6.95790668829	0.013549822959
0	2407	6.971456511249	0.02006725049
0	2413	6.991523761739	0.01509570708
0	2418	7.006619468819	0.023966398918
0	2423	7.030585867737	0.030350736588
0	2428	7.060936604325	0.012407102282
0	2433	7.073343706607	0.015820098232
0	2438	7.089163804839	0.043622308878
0	2443	7.132786113717	0.002064709529
0	2447	7.134850823246	0.002738314814
0	2450	7.13758913806	0.001393877078
0	2453	7.138983015138	0.004799098658
0	2458	7.143782113796	0.016973218413
0	2465	7.160755332209	0.001055850842
0	2468	7.161811183051	0.006591396872
0	2473	7.168402579923	0.017116055633
0	2482	7.185518635556	0.005669055454
0	2485	7.19118769101	0.002645615675
0	2490	7.193833306685	0.033116439853
0	2498	7.226949746538	0.006431188236
0	2502	7.233380934774	0.029917176031
0	2508	7.263298110805	0.002708526404
0	2512	7.266006637209	0.024572370612
0	2518	7.290579007821	0.006578847686
0	2522	7.297157855507	0.006631701396
0	2528	7.303789556903	0.004555131442
0	2533	7.308344688345	0.013700645097
0	2539	7.322045333442	0.047959963905
0	2544	7.370005297347	0.004028829844
0	2548	7.374034127191	0.028407116328
0	2554	7.402441243519	0.013362863437
0	2559	7.415804106956	0.01267661339
0	2564	7.428480720346	0.087170378506
0	2569	7.515651098852	0.00015836137
0	2573	7.515809460222	0.000808523656
0	2576	7.516617983878	0.012153596047
0	2581	7.528771579925	0.0040676934
0	2586	7.532839273325	0.068852695963
0	2594	7.601691969288	0.006029271542
0	2598	7.60772124083	0.028935357298
0	2604	7.636656598128	0.024211797199
0	2609	7.660868395327	0.00516427065
0	2613	7.666032665977	0.008796158988
0	2618	7.674828824965	0.009919137328
0	2624	7.684747962293	0.005746533194
0	2629	7.690494495487	0.008633976732
0	2634	7.699128472219	0.026625243052
0	2640	7.725753715271	0.000703530823
0	2644	7.726457246094	0.020116789511
0	2650	7.746574035605	0.007539682374
0	2654	7.754113717979	0.004903307839
0	2659	7.759017025818	0.008793726953
0	2664	7.767810752771	0.019562431662
0	2670	7.787373184433	0.00256015814
0	2674	7.789933342573	0.005778176401
0	2679	7.795711518974	0.002959256107
0	2682	7.798670775081	0.002482698985
0	2685	7.801153474066	0.029073692523
0	2695	7.830227166589	0.062874464203
0	2700	7.893101630792	0.004224576077
0	2704	7.897326206869	0.004549654299
0	2709	7.901875861168	0.011602130902
0	2714	7.91347799207	0.014071421358
0	2720	7.927549413428	0.004047209184
0	2724	7.931596622612	0.03743980152
0	2730	7.969036424132	0.00077617042
0	2734	7.969812594552	0.015449887227
0	2740	7.985262481779	0.050098548908
0	2745	8.035361030687	0.008347273036
0	2750	8.043708303723	0.036238599102
0	2755	8.079946902825	0.007592944772
0	2759	8.087539847597	0.006598222007
0	2764	8.094138069604	0.000752145098
0	2767	8.094890214702	0.001822084881
0	2772	8.096712299583	0.001271063012
0	2775	8.097983362595	0.008159231704
0	2780	8.106142594299	0.008986125399
0	2785	8.115128719698	0.00302886478
0	2788	8.118157584478	0.038327235874
0	2801	8.156484820352	0.022120180742
0	2806	8.178605001094	0.03047225967
0	2811	8.209077260764	0.021486193278
0	2816	8.230563454042	0.024616019322
0	2821	8.255179473364	0.001008392778
0	2825	8.256187866142	0.002870204831
0	2828	8.259058070973	0.014603696763
0	2835	8.273661767736	0.005617728447
0	2840	8.279279496183	0.00968254419
0	2845	8.288962040373	0.008389665374
0	2850	8.297351705747	0.013942226296
0	2856	8.311293932043	0.029414075209
0	2861	8.340708007252	0.008445835565
0	2866	8.349153842817	0.01508322113
0	2871	8.364237063947	0.034468923672
0	2876	8.398705987619	0.026126903064
0	2881	8.424832890683	0.002846283153
0	2885	8.427679173836	0.01030903024
0	2890	8.437988204076	0.004474160991
0	2895	8.442462365067	0.013100650669
0	2900	8.455563015736	0.003430965726
0	2905	8.458993981462	0.009074633567
0	2910	8.468068615029	0.020151667839
0	2916	8.488220282868	0.004481583632
0	2920	8.4927018665	0.002922125558
0	2923	8.495623992058	0.014448244185
0	2930	8.510072236243	0.007270871309
0	2935	8.517343107552	0.012849734977
0	2941	8.530192842529	0.0055983554
0	2945	8.535791197929	0.03030777618
0	2951	8.566098974109	0.022042527663
0	2956	8.588141501772	0.038769565903
0	2961	8.626911067675	7.789477e-006
0	2965	8.626918857152	0.012805100744
0	2970	8.639723957896	0.020878295679
0	2976	8.660602253575	0.017766600512
0	2981	8.678368854087	0.033225393584
0	2986	8.711594247671	0.007468561627
0	2990	8.719062809298	0.007831233235
0	2996	8.726894042533	0.016925590996
0	3001	8.743819633529	0.01497464263
0	3006	8.758794276159	0.094900329947
0	3011	8.853694606106	0.027927435997
0	3016	8.881622042103	0.042297021254
0	3021	8.923919063357	0.005985644068
0	3025	8.929904707425	0.002283935594
0	3030	8.932188643019	0.020886676057
0	3036	8.953075319076	0.041750092128
0	3041	8.994825411204	0.005834704481
0	3045	9.000660115685	0.000591369196
0	3048	9.001251484881	0.003685379612
0	3053	9.004936864493	0.000382608394
0	3056	9.005319472887	0.020849138596
0	3065	9.026168611483	0.002936551771
0	3068	9.029105163254	0.013048371269
0	3075	9.042153534523	0.005458685927
0	3080	9.04761222045	0.000185168408
0	3083	9.047797388858	0.062744977627
0	3091	9.110542366485	0.010866546403
0	3096	9.121408912888	0.043092486934
0	3102	9.164501399822	0.014445587865
0	3107	9.178946987687	0.014636236117
0	3112	9.193583223804	0.003296500505
0	3116	9.196879724309	0.052050292495
0	3122	9.248930016804	0.024866541204
0	3127	9.273796558008	0.012765140341
0	3132	9.286561698349	0.018692788526
0	3137	9.305254486875	0.003597090599
0	3141	9.308851577474	0.0001089009
0	3144	9.308960478374	0.002148597161
0	3147	9.311109075535	0.019149029924
0	3156	9.330258105459	0.021643568768
0	3162	9.351901674227	0.017573995317
0	3167	9.369475669544	0.011239995968
0	3172	9.380715665512	0.022235104367
0	3177	9.402950769879	0.025506416537
0	3182	9.428457186416	0.004418005886
0	3186	9.432875192302	0.023687345196
0	3192	9.456562537498	0.001283141019
0	3196	9.457845678517	0.016637987007
0	3202	9.474483665524	0.024306273141
0	3207	9.498789938665	0.022492495726
0	3212	9.521282434391	0.004099625144
0	3216	9.525382059535	0.01747824655
0	3222	9.542860306085	0.004169883825
0	3226	9.54703018991	0.008399312708
0	3231	9.555429502618	0.004546098028
0	3236	9.559975600646	0.026592151405
0	3242	9.586567752051	0.003189365086
0	3246	9.589757117137	0.037134458583
0	3252	9.62689157572	0.009428098491
0	3257	9.636319674211	0.022538499272
0	3262	9.658858173483	0.004448802784
0	3266	9.663306976267	0.001346403403
0	3269	9.66465337967	0.058674995748
0	3277	9.723328375418	0.04484013643
0	3282	9.768168511848	0.004073781462
0	3286	9.77224229331	0.009726212923
0	3291	9.781968506233	0.01231569769
0	3297	9.794284203923	0.032506427477
0	3302	9.8267906314	0.020133572795
0	3307	9.846924204195	0.001331736375
0	3311	9.84825594057	0.037080393406
0	3317	9.885336333976	0.041765565923
0	3322	9.927101899899	0.013593590646
0	3327	9.940695490545	0.00567191392
0	3331	9.946367404465	0.001529796396
0	3334	9.947897200861	0.008198397875
0	3341	9.956095598736	0.011830653961
0	3346	9.967926252697	0.017343866571
0	3352	9.985270119268	0.024871606525
0	3357	10.010141725793	0.001428087755
0	3361	10.011569813548	0.034078294501
0	3367	10.045648108049	0.003498193247
0	3371	10.049146301296	0.018108574956
0	3377	10.067254876252	0.013120435866
0	3382	10.080375312118	0.002557667228
0	3386	10.082932979346	0.007298133311
0	3391	10.090231112657	0.000774140724
0	3394	10.091005253381	0.001687447299
0	3397	10.09269270068	0.015900377963
0	3404	10.108593078643	0.000152042618
0	3407	10.108745121261	0.013219892452
0	3414	10.121965013713	0.033970674546
0	3422	10.155935688259	0.0105751218
0	3427	10.166510810059	0.016540451739
0	3432	10.183051261798	0.00067330156
0	3436	10.183724563358	0.005871918303
0	3439	10.189596481661	0.008976812611
0	3446	10.198573294272	0.032582149442
0	3452	10.231155443714	0.013165876882
0	3457	10.244321320596	0.051270107732
0	3462	10.295591428328	0.003120717484
0	3466	10.298712145812	0.001275872408
0	3469	10.29998801822	0.015919230264
0	3476	10.315907248484	0.004526315431
0	3481	10.320433563915	0.006652848571
0	3486	10.327086412486	0.011314860016
0	3491	10.338401272502	0.001652872446
0	3496	10.340054144948	0.038007964019
0	3502	10.378062108967	0.003961998867
0	3506	10.382024107834	0.003980129766
0	3511	10.3860042376	0.0001242396
0	3514	10.3861284772	0.041081692775
0	3522	10.427210169975	0.008014558656
0	3527	10.435224728631	0.03470893603
0	3532	10.469933664661	0.000450226289
0	3536	10.47038389095	0.006192016819
0	3539	10.476575907769	0.014514145539
0	3546	10.491090053308	0.003827942486
0	3551	10.494917995794	0.017960046767
0	3557	10.512878042561	0.003038283076
0	3561	10.515916325637	0.007648064778
0	3566	10.523564390415	0.000848197958
0	3569	10.524412588373	0.053406961413
0	3577	10.577819549786	0.046880763988
0	3582	10.624700313774	0.013599134802
0	3587	10.638299448576	0.002381628501
0	3591	10.640681077077	0.025107916187
0	3597	10.665788993264	0.047470536655
0	3602	10.713259529919	0.002682506614
0	3606	10.715942036533	0.006212916733
0	3611	10.722154953266	0.015815243503
0	3617	10.737970196769	0.000917157067
0	3621	10.738887353836	0.000934697809
0	3624	10.739822051645	0.02565805774
0	3632	10.765480109385	0.000841364683
0	3636	10.766321474068	0.024398952967
0	3642	10.790720427035	0.006828145614
0	3646	10.797548572649	0.009335422703
0	3652	10.806883995352	0.020711936315
0	3657	10.827595931667	0.022199493976
0	3662	10.849795425643	0.005247906227
0	3666	10.85504333187	0.020723735116
0	3672	10.875767066986	0.028488156685
0	3677	10.904255223671	0.008986443986
0	3682	10.913241667657	0.001360271775
0	3686	10.914601939432	0.004997964225
0	3689	10.919599903657	0.023290881516
0	3697	10.942890785173	0.002305827902
0	3701	10.945196613075	0.005429988472
0	3706	10.950626601547	0.036133157822
0	3712	10.986759759369	0.048128782536
0	3717	11.034888541905	0.001236150949
0	3721	11.036124692854	0.018968148185
0	3727	11.055092841039	0.019400851284
0	3732	11.074493692323	0.016703225995
0	3737	11.091196918318	0.00121298404
0	3741	11.092409902358	0.006420059864
0	3746	11.098829962222	0.016627913917
0	3752	11.115457876139	0.002558896901
0	3756	11.11801677304	0.000932817005
0	3759	11.118949590045	0.019740426371
0	3767	11.138690016416	0.001769156509
0	3771	11.140459172925	0.061683044056
0	3778	11.202142216981	0.001266350054
0	3782	11.203408567035	0.033043731535
0	3788	11.23645229857	0.000487119771
0	3792	11.236939418341	0.00769115213
0	3797	11.244630570471	0.015308831451
0	3803	11.259939401922	0.034494101006
0	3808	11.294433502928	0.0338318409
0	3813	11.328265343828	0.000373558552
0	3817	11.32863890238	0.009902436362
0	3822	11.338541338742	0.01172194631
0	3828	11.350263285052	0.027270983679
0	3833	11.377534268731	0.015071168682
0	3838	11.392605437413	0.018515829731
0	3843	11.411121267144	0.00581177096
0	3847	11.416933038104	0.040552642266
0	3853	11.45748568037	0.005434796034
0	3857	11.462920476404	0.054951577794
0	3863	11.517872054198	0.028274102761
0	3868	11.546146156959	0.013306692162
0	3873	11.559452849121	0.015097750445
0	3878	11.574550599566	0.043802509721
0	3883	11.618353109287	0.001283341355
0	3887	11.619636450642	0.018329260482
0	3893	11.637965711124	0.01993662068
0	3898	11.657902331804	0.009373192572
0	3903	11.667275524376	0.002120874638
0	3907	11.669396399014	0.036981071924
0	3913	11.706377470938	0.032989091523
0	3918	11.739366562461	0.012998054523
0	3923	11.752364616984	0.01962708582
0	3928	11.771991702804	0.004100762917
0	3932	11.776092465721	0.002507217058
0	3935	11.778599682779	0.007402178501
0	3940	11.78600186128	0.005862368184
0	3945	11.791864229464	0.008225729256
0	3950	11.80008995872	0.002813412775
0	3955	11.802903371495	0.002687985616
0	3958	11.805591357111	0.02596464288
0	3969	11.831555999991	0.000810688073
0	3973	11.832366688064	0.000121833541
0	3976	11.832488521605	0.017015139931
0	3983	11.849503661536	0.001274954526
0	3986	11.850778616062	0.004392943187
0	3991	11.855171559249	0.009171825167
0	3996	11.864343384416	0.002474092156
0	3999	11.866817476572	0.011306795061
0	4006	11.878124271633	0.00330190338
0	4009	11.881426175013	0.028745756906
0	4019	11.910171931919	0.025579596329
0	4024	11.935751528248	0.006458237144
0	4028	11.942209765392	0.033351271418
0	4034	11.97556103681	0.003082786893
0	4038	11.978643823703	0.009085818258
0	4043	11.987729641961	0.00496621374
0	4048	11.992695855701	0.02025478495
0	4054	12.012950640651	0.000457533061
0	4058	12.013408173712	0.012836102827
0	4063	12.026244276539	0.005081018829
0	4068	12.031325295368	0.01005655972
0	4073	12.041381855088	0.016873032231
0	4079	12.058254887319	0.01550921263
0	4084	12.073764099949	0.01273057287
0	4089	12.086494672819	0.044437008472
0	4094	12.130931681291	0.015091407746
0	4099	12.146023089037	0.024325921755
0	4104	12.170349010792	0.05151252332
0	4110	12.221861534112	0.00434345677
0	4114	12.226204990882	0.00363981491
0	4119	12.229844805792	3.9408043e-005
0	4122	12.229884213835	0.00034329715
0	4125	12.230227510985	0.005164379968
0	4128	12.235391890953	0.016913775687
0	4137	12.25230566664	0.058094685321
0	4145	12.310400351961	0.000231751178
0	4149	12.310632103139	0.008271718234
0	4154	12.318903821373	0.002382427607
0	4157	12.32128624898	0.011650666499
0	4164	12.332936915479	0.010163575937
0	4169	12.343100491416	0.00098680444
0	4172	12.344087295856	0.002246128004
0	4177	12.34633342386	0.002300956826
0	4180	12.348634380686	0.013414564602
0	4187	12.362048945288	0.06360260626
0	4195	12.425651551548	0.00359410626
0	4199	12.429245657808	0.011509248231
0	4205	12.440754906039	0.023431196223
0	4210	12.464186102262	0.003749230991
0	4214	12.467935333253	0.001337952022
0	4217	12.469273285275	0.015405711537
0	4224	12.484678996812	0.008253512164
0	4230	12.492932508976	0.019465929078
0	4235	12.512398438054	0.001151424408
0	4239	12.513549862462	0.01052112101
0	4244	12.524070983472	0.008602548435
0	4249	12.532673531907	0.005980937989
0	4254	12.538654469896	0.019694246248
0	4260	12.558348716144	0.019212734975
0	4265	12.577561451119	0.003873025302
0	4269	12.581434476421	0.002092413917
0	4272	12.583526890338	0.001956733333
0	4277	12.585483623671	0.019120927826
0	4285	12.604604551497	0.009499207807
0	4291	12.614103759304	0.010902623279
0	4297	12.625006382583	0.014502980504
0	4302	12.639509363087	0.029448222994
0	4307	12.668957586081	0.001505565677
0	4311	12.670463151758	0.005681113841
0	4316	12.676144265599	0.000347426198
0	4319	12.676491691797	0.017866618245
0	4326	12.694358310042	0.033089529565
0	4333	12.727447839607	0.008658904444
0	4338	12.736106744051	0.010900644462
0	4343	12.747007388513	0.018944030712
0	4348	12.765951419225	0.060278706908
0	4353	12.826230126133	0.033098528605
0	4358	12.859328654738	0.042613499789
0	4363	12.901942154527	0.012217994495
0	4368	12.914160149022	0.020508829888
0	4373	12.93466897891	0.015051552664
0	4378	12.949720531574	0.003973347151
0	4382	12.953693878725	0.011397021839
0	4388	12.965090900564	0.041028604899
0	4393	13.006119505463	0.006364196298
0	4397	13.012483701761	0.009297518839
0	4403	13.0217812206	0.028039513757
0	4408	13.049820734357	0.016570215916
0	4413	13.066390950273	0.012808685143
0	4418	13.079199635416	0.009287319993
0	4423	13.088486955409	0.004535825711
0	4427	13.09302278112	0.001861352728
0	4430	13.094884133848	0.02392649182
0	4438	13.118810625668	0.002206283859
0	4442	13.121016909527	0.026982727607
0	4448	13.147999637134	0.023967789533
0	4453	13.171967426667	0.009046444656
0	4458	13.181013871323	0.059365422812
0	4463	13.240379294135	0.017073439001
0	4468	13.257452733136	0.005805680855
0	4472	13.263258413991	0.001468618804
0	4477	13.264727032795	0.016216202811
0	4483	13.280943235606	0.019232815447
0	4488	13.300176051053	0.010483877362
0	4493	13.310659928415	0.00615281073
0	4497	13.316812739145	0.012536731347
0	4503	13.329349470492	0.000342006201
0	4507	13.329691476693	0.035578525931
0	4513	13.365270002624	0.01831754565
0	4518	13.383587548274	0.000726668385
0	4522	13.384314216659	0.011919373897
0	4527	13.396233590556	0.005697063849
0	4532	13.401930654405	0.026427304624
0	4538	13.428357959029	0.025722494348
0	4543	13.454080453377	0.001836186185
0	4547	13.455916639562	0.00779778086
0	4552	13.463714420422	0.074878484034
0	4558	13.538592904456	0.039196976107
0	4563	13.577789880563	0.006063700489
0	4567	13.583853581052	0.014004909835
0	4573	13.597858490887	0.002157123878
0	4577	13.600015614765	0.006934587224
0	4582	13.606950201989	0.00064947646
0	4585	13.607599678449	0.012317360485
0	4592	13.619917038934	0.005803796122
0	4595	13.625720835056	0.007593095217
0	4602	13.633313930273	0.003533718973
0	4606	13.636847649246	0.033157976302
0	4614	13.670005625548	0.047690156869
0	4620	13.717695782417	0.018182004011
0	4625	13.735877786428	0.005987538181
0	4629	13.741865324609	0.023747160746
0	4635	13.765612485355	0.004641081547
0	4639	13.770253566902	0.002500917243
0	4642	13.772754484145	0.004742514885
0	4647	13.77749699903	0.00327717472
0	4652	13.78077417375	0.017427767026
0	4659	13.798201940776	0.002775944719
0	4662	13.800977885495	0.033555540459
0	4670	13.834533425954	0.019500341305
0	4675	13.854033767259	0.013165121574
0	4680	13.867198888833	0.000718282728
0	4684	13.867917171561	0.007679314843
0	4689	13.875596486404	0.0159158467
0	4695	13.891512333104	0.008320387942
0	4700	13.899832721046	0.011580646341
0	4705	13.911413367387	0.012077495857
0	4710	13.923490863244	0.077220686964
0	4716	14.000711550208	0.004469896779
0	4720	14.005181446987	0.005973158807
0	4725	14.011154605794	0.03610564232
0	4731	14.047260248114	0.004136103619
0	4735	14.051396351733	0.010746390389
0	4740	14.062142742122	0.007196009527
0	4745	14.069338751649	0.00191045691
0	4750	14.071249208559	0.031124220867
0	4756	14.102373429426	0.012680006657
0	4761	14.115053436083	0.00363086124
0	4765	14.118684297323	0.00431451901
0	4770	14.122998816333	0.000984348104
0	4773	14.123983164437	8.1144689e-005
0	4776	14.124064309126	0.009627578694
0	4781	14.13369188782	0.012733084831
0	4788	14.146424972651	0.022513361253
0	4796	14.168938333904	0.006652164088
0	4800	14.175590497992	0.045750980645
0	4806	14.221341478637	0.017246188489
0	4811	14.238587667126	0.025788449381
0	4816	14.264376116507	0.014278560438
0	4821	14.278654676945	0.00065905621
0	4825	14.279313733155	0.00286226912
0	4828	14.282176002275	0.038737953248
0	4836	14.320913955523	0.005379293422
0	4840	14.326293248945	0.015125953501
0	4846	14.341419202446	0.018874816088
0	4851	14.360294018534	0.007649046575
0	4856	14.367943065109	0.008449826113
0	4861	14.376392891222	0.06011554651
0	4866	14.436508437732	0.002170579042
0	4870	14.438679016774	0.001549427505
0	4873	14.440228444279	0.002866602729
0	4876	14.443095047008	0.008964405314
0	4883	14.452059452322	0.019401684629
0	4890	14.471461136951	0.001236709381
0	4893	14.472697846332	0.014690548421
0	4900	14.487388394753	0.004780958945
0	4905	14.492169353698	0.012158894228
0	4910	14.504328247926	0.036928607742
0	4916	14.541256855668	0.000861003233
0	4920	14.542117858901	0.097094005484
0	4926	14.639211864385	0.007377145428
0	4930	14.646589009813	0.002806435744
0	4935	14.649395445557	0.008851640225
0	4940	14.658247085782	0.004999297122
0	4945	14.663246382904	0.013168589456
0	4950	14.67641497236	0.018562022968
0	4956	14.694976995328	0.017865221059
0	4962	14.712842216387	0.007611618103
0	4966	14.72045383449	0.013447001068
0	4972	14.733900835558	0.070717188605
0	4977	14.804618024163	0.004735511078
0	4981	14.809353535241	0.048430687974
0	4987	14.857784223215	0.007871560851
0	4992	14.865655784066	0.018674038796
0	4997	14.884329822862	0.022417414279
0	5002	14.906747237141	0.03483789577
0	5007	14.941585132911	0.009398533725
0	5012	14.950983666636	0.007987785306
0	5017	14.958971451942	0.007761002255
0	5022	14.966732454197	0.013953130902
0	5027	14.980685585099	0.028916785251
0	5032	15.00960237035	0.02124568665
0	5037	15.030848057	0.079767543734
0	5042	15.110615600734	0.036870695618
0	5047	15.147486296352	0.008175466657
0	5052	15.155661763009	3.4105813e-005
0	5056	15.155695868822	0.015084773277
0	5061	15.170780642099	0.06259690762
0	5067	15.233377549719	0.036336655718
0	5072	15.269714205437	0.002705349514
0	5076	15.272419554951	0.002516883712
0	5079	15.274936438663	0.02585887568
0	5087	15.300795314343	0.005162558394
0	5091	15.305957872737	0.009046638956
0	5096	15.315004511693	0.015630361382
0	5102	15.330634873075	0.016982164862
0	5107	15.347617037937	0.002946984558
0	5111	15.350564022495	0.001193340057
0	5114	15.351757362552	0.004929712063
0	5119	15.356687074615	0.004536763724
0	5122	15.361223838339	0.041280726634
0	5132	15.402504564973	0.009212777034
0	5137	15.411717342007	0.005672692367
0	5141	15.417390034374	0.028563658947
0	5147	15.445953693321	0.001514862939
0	5151	15.44746855626	0.035839612878
0	5157	15.483308169138	0.010377121262
0	5162	15.4936852904	0.004843915035
0	5166	15.498529205435	0.001185960018
0	5169	15.499715165453	0.001068620596
0	5172	15.500783786049	0.004334812165
0	5177	15.505118598214	0.005747740368
0	5182	15.510866338582	0.046573818189
0	5192	15.557440156771	0.007145350929
0	5196	15.5645855077	0.027632637956
0	5202	15.592218145656	0.013274717018
0	5207	15.605492862674	0.002415401241
0	5211	15.607908263915	0.00320147794
0	5214	15.611109741855	0.004239392559
0	5219	15.615349134414	0.009822270602
0	5224	15.625171405016	0.000844740165
0	5227	15.626016145181	0.008265928095
0	5232	15.634282073276	0.003344110964
0	5237	15.63762618424	0.023960758243
0	5246	15.661586942483	0.024833942834
0	5252	15.686420885317	0.001788650801
0	5256	15.688209536118	0.03695851851
0	5262	15.725168054628	0.000717743578
0	5266	15.725885798206	0.014711280722
0	5271	15.740597078928	0.017966234905
0	5277	15.758563313833	0.001340022541
0	5281	15.759903336374	0.00993754689
0	5286	15.769840883264	0.010436156241
0	5291	15.780277039505	0.005151478321
0	5296	15.785428517826	0.016515534976
0	5302	15.801944052802	0.031588613555
0	5307	15.833532666357	0.001690194742
0	5311	15.835222861099	0.030502927847
0	5317	15.865725788946	0.013091831637
0	5322	15.878817620583	0.001370532349
0	5326	15.880188152932	0.02113635471
0	5332	15.901324507642	0.009308697011
0	5337	15.910633204653	0.007307055471
0	5341	15.917940260124	0.016245586139
0	5347	15.934185846263	0.026197967483
0	5352	15.960383813746	0.009664662613
0	5357	15.970048476359	0.002790827666
0	5361	15.972839304025	0.001470143777
0	5364	15.974309447802	0.004595846504
0	5369	15.978905294306	0.018632272118
0	5377	15.997537566424	0.017305927532
0	5383	16.014843493956	0.046259898092
0	5388	16.061103392048	0.022848740372
0	5393	16.08395213242	0.001367171365
0	5397	16.085319303785	0.00295199144
0	5400	16.088271295225	0.008531806713
0	5405	16.096803101938	0.04599494184
0	5413	16.142798043778	0.001787992637
0	5417	16.144586036415	0.002921129832
0	5420	16.147507166247	0.003942575688
0	5425	16.151449741935	0.017907549637
0	5432	16.169357291572	0.007440393444
0	5437	16.176797685016	0.005534223345
0	5442	16.182331908361	0.001956284661
0	5445	16.184288193022	0.010674523251
0	5450	16.194962716273	0.002786246712
0	5455	16.197748962985	0.036887565816
0	5463	16.234636528801	0.008472103103
0	5468	16.243108631904	0.022559480321
0	5473	16.265668112225	0.010306729202
0	5478	16.275974841427	0.020736437402
0	5483	16.296711278829	0.024877350975
0	5488	16.321588629804	0.001762165996
0	5492	16.3233507958	0.020476545226
0	5498	16.343827341026	0.036667151104
0	5503	16.38049449213	0.004922416456
0	5507	16.385416908586	0.035007595054
0	5513	16.42042450364	0.053751157377
0	5518	16.474175661017	0.062135808449
0	5523	16.536311469466	0.024078087358
0	5528	16.560389556824	0.001798907699
0	5532	16.562188464523	0.035369384863
0	5538	16.597557849386	0.007238497123
0	5542	16.604796346509	0.009271962871
0	5548	16.61406830938	0.004822962758
0	5552	16.618891272138	0.019733337711
0	5558	16.638624609849	0.028328344462
0	5563	16.666952954311	0.021610553419
0	5568	16.68856350773	0.034410588209
0	5573	16.722974095939	0.005877114275
0	5577	16.728851210214	0.010553808206
0	5583	16.73940501842	0.007825394477
0	5587	16.747230412897	0.003751603151
0	5592	16.750982016048	0.066265031285
0	5598	16.817247047333	0.000741820972
0	5602	16.817988868305	0.006848757573
0	5605	16.824837625878	0.031924942683
0	5613	16.856762568561	0.00361678258
0	5617	16.860379351141	0.044467643198
0	5623	16.904846994339	0.006171742553
0	5627	16.911018736892	0.021077666719
0	5633	16.932096403611	0.012099926484
0	5638	16.944196330095	0.026057710557
0	5643	16.970254040652	0.020430438809
0	5648	16.990684479461	0.005587748237
0	5652	16.996272227698	0.011130825204
0	5658	17.007403052902	0.002071537933
0	5662	17.009474590835	0.001922199189
0	5665	17.011396790024	0.001594104803
0	5668	17.012990894827	0.015521315992
0	5675	17.028512210819	0.016719861961
0	5683	17.04523207278	0.012096721634
0	5689	17.057328794414	0.038466329415
0	5694	17.095795123829	0.003793178459
0	5698	17.099588302288	0.004213788241
0	5703	17.103802090529	0.014699799611
0	5708	17.11850189014	0.020678787243
0	5714	17.139180677383	0.039565520126
0	5719	17.178746197509	0.014164295546
0	5724	17.192910493055	0.013415964412
0	5729	17.206326457467	0.006344138437
0	5733	17.212670595904	0.006726149197
0	5738	17.219396745101	0.014963752458
0	5744	17.234360497559	0.009146323484
0	5749	17.243506821043	0.000271432167
0	5753	17.24377825321	0.013483956751
0	5758	17.257262209961	0.021687957169
0	5764	17.27895016713	0.0020606768
0	5768	17.28101084393	0.002830635362
0	5771	17.283841479292	0.024675422293
0	5779	17.308516901585	0.014216972648
0	5784	17.322733874233	0.030383960823
0	5789	17.353117835056	0.001876762571
0	5793	17.354994597627	0.002166754482
0	5796	17.357161352109	0.012673374504
0	5803	17.369834726613	0.002891033521
0	5806	17.372725760134	0.019844494518
0	5813	17.392570254652	0.003455298218
0	5818	17.39602555287	0.023887413269
0	5824	17.419912966139	0.013017292479
0	5829	17.432930258618	0.002197235191
0	5833	17.435127493809	0.020238899196
0	5839	17.455366393005	0.009718067365
0	5844	17.46508446037	0.013977308948
0	5849	17.479061769318	0.00794087196
0	5853	17.487002641278	0.01320249889
0	5859	17.500205140168	0.007639615556
0	5863	17.507844755724	0.01264407227
0	5869	17.520488827994	0.026638136266
0	5874	17.54712696426	0.036234791244
0	5879	17.583361755504	0.003118556698
0	5883	17.586480312202	0.001814444997
0	5886	17.588294757199	0.021501849197
0	5894	17.609796606396	0.011318144523
0	5899	17.621114750919	0.019965440791
0	5904	17.64108019171	0.00082688854
0	5908	17.64190708025	0.008233960668
0	5913	17.650141040918	0.002786076417
0	5916	17.652927117335	0.002210914673
0	5919	17.655138032008	0.023270838813
0	5928	17.678408870821	0.018285369132
0	5934	17.696694239953	0.001639153935
0	5938	17.698333393888	0.031197416782
0	5944	17.72953081067	0.011990319919
0	5949	17.741521130589	0.002901297405
0	5953	17.744422427994	0.010797430468
0	5958	17.755219858462	0.001875996088
0	5961	17.75709585455	0.038723193417
0	5969	17.795819047967	0.00354731217
0	5973	17.799366360137	0.004326814785
0	5976	17.803693174922	0.008790728296
0	5983	17.812483903218	0.013329942358
0	5988	17.825813845576	0.009255987872
0	5993	17.835069833448	0.028872154818
0	5999	17.863941988266	0.021216265502
0	6004	17.885158253768	0.001435635151
0	6008	17.886593888919	0.002691061971
0	6011	17.88928495089	0.016184281931
0	6018	17.905469232821	0.034472969232
0	6024	17.939942202053	0.007865210226
0	6028	17.947807412279	0.011062598057
0	6034	17.958870010336	0.00307790004
0	6038	17.961947910376	0.004915098273
0	6041	17.966863008649	0.014833255149
0	6048	17.981696263798	0.000345352503
0	6051	17.982041616301	0.028552374053
0	6059	18.010593990354	0.013225288512
0	6064	18.023819278866	0.027046664454
0	6069	18.05086594332	0.003382624892
0	6073	18.054248568212	0.022520632196
0	6079	18.076769200408	0.00873836336
0	6084	18.085507563768	0.007032404816
0	6088	18.092539968584	0.048578023881
0	6094	18.141117992465	0.019124287704
0	6099	18.160242280169	0.003392542522
0	6103	18.163634822691	0.002962941681
0	6106	18.166597764372	0.008010027749
0	6111	18.174607792121	0.024930054221
0	6119	18.199537846342	0.027843677373
0	6124	18.227381523715	0.045133919782
0	6129	18.272515443497	0.000413891692
0	6133	18.272929335189	0.003403054315
0	6136	18.276332389504	0.016679490582
0	6143	18.293011880086	0.004315913007
0	6148	18.297327793093	0.009399557758
0	6153	18.306727350851	0.001280710224
0	6156	18.308008061075	0.006296716501
0	6161	18.314304777576	0.018001968582
0	6168	18.332306746158	0.010396585875
0	6173	18.342703332033	0.009881413543
0	6178	18.352584745576	0.008487607402
0	6183	18.361072352978	0.004329102876
0	6188	18.365401455854	0.012232166401
0	6193	18.377633622255	0.002944424933
0	6198	18.380578047188	0.001716074929
0	6201	18.382294122117	0.00913536904
0	6206	18.391429491157	0.006578291178
0	6211	18.398007782335	0.005961548949
0	6216	18.403969331284	0.039860108912
0	6224	18.443829440196	0.004034280945
0	6228	18.447863721141	0.010514101294
0	6233	18.458377822435	0.012562601525
0	6239	18.47094042396	0.015386420673
0	6244	18.486326844633	0.017461308857
0	6249	18.50378815349	0.009541056942
0	6254	18.513329210432	0.002685424043
0	6258	18.516014634475	0.051590327592
0	6264	18.567604962067	0.005189565595
0	6268	18.572794527662	0.00185618442
0	6271	18.574650712082	0.06401487233
0	6279	18.638665584412	0.006474997561
0	6283	18.645140581973	0.048145056283
0	6289	18.693285638256	0.017101273561
0	6294	18.710386911817	0.037111496795
0	6299	18.747498408612	0.023086784827
0	6304	18.770585193439	0.006887514576
0	6308	18.777472708015	0.007605056911
0	6313	18.785077764926	0.003355670386
0	6318	18.788433435312	0.020250529688
0	6324	18.808683965	0.003203356991
0	6328	18.811887321991	0.006994383857
0	6333	18.818881705848	0.002512753598
0	6336	18.821394459446	0.001540450028
0	6339	18.822934909474	0.019143261841
0	6348	18.842078171315	0.000256764607
0	6351	18.842334935922	0.026257707123
0	6360	18.868592643045	0.065227043349
0	6365	18.933819686394	0.004339808361
0	6369	18.938159494755	0.003198609917
0	6372	18.941358104672	0.019558414942
0	6380	18.960916519614	0.00012051915
0	6384	18.961037038764	0.017418505146
0	6390	18.97845554391	0.012605428542
0	6395	18.991060972452	0.010384764487
0	6400	19.001445736939	0.009875311863
0	6405	19.011321048802	0.007166329289
0	6409	19.018487378091	0.005305412791
0	6414	19.023792790882	0.027319604101
0	6420	19.051112394983	0.040019790539
0	6425	19.091132185522	0.001627851644
0	6429	19.092760037166	0.018150238561
0	6435	19.110910275727	0.003140185564
0	6439	19.114050461291	0.008022034143
0	6444	19.122072495434	0.029764592141
0	6450	19.151837087575	0.000359448048
0	6454	19.152196535623	0.023543736664
0	6460	19.175740272287	0.017603298592
0	6465	19.193343570879	0.025583555942
0	6470	19.218927126821	0.016764545837
0	6475	19.235691672658	0.016021428884
0	6480	19.251713101542	0.006177048751
0	6484	19.257890150293	0.065782090328
0	6490	19.323672240621	0.053807003073
0	6495	19.377479243694	0.003208591167
0	6499	19.380687834861	0.038108389895
0	6505	19.418796224756	0.008598934658
0	6510	19.427395159414	0.010473347259
0	6515	19.437868506673	0.021303443954
0	6520	19.459171950627	0.028118633194
0	6525	19.487290583821	0.011589180626
0	6530	19.498879764447	0.028660099374
0	6535	19.527539863821	0.013819493891
0	6540	19.541359357712	0.006911580511
0	6544	19.548270938223	0.042169027473
0	6552	19.590439965696	0.021448911925
0	6557	19.611888877621	0.001951698427
0	6561	19.613840576048	0.009127512848
0	6566	19.622968088896	0.00982162054
0	6571	19.632789709436	0.00182816036
0	6574	19.634617869796	0.019424391865
0	6582	19.654042261661	0.012325514702
0	6587	19.666367776363	0.030855295087
0	6592	19.69722307145	0.018418489506
0	6597	19.715641560956	0.017698707291
0	6602	19.733340268247	0.014199037112
0	6607	19.747539305359	0.007324261519
0	6611	19.754863566878	0.005325802647
0	6616	19.760189369525	0.006583190454
0	6621	19.766772559979	0.032873433376
0	6627	19.799645993355	0.005240159278
0	6631	19.804886152633	0.02361804947
0	6637	19.828504202103	0.013329477148
0	6642	19.841833679251	0.007645359309
0	6647	19.84947903856	0.013670171464
0	6652	19.863149210024	0.004829704673
0	6656	19.867978914697	0.014329296659
0	6662	19.882308211356	0.025795767975
0	6667	19.908103979331	0.022537070222
0	6672	19.930641049553	0.004692289789
0	6676	19.935333339342	0.008961877231
0	6681	19.944295216573	0.004523717283
0	6686	19.948818933856	0.006090914648
0	6691	19.954909848504	0.004680306283
0	6694	19.959590154787	0.001521250374
0	6699	19.961111405161	0.013983648539
0	6704	19.9750950537	0.062465761851
0	6712	20.037560815551	0.00481652697
0	6716	20.042377342521	0.00726833389
0	6721	20.049645676411	0.029313623926
0	6727	20.078959300337	0.008145282166
0	6732	20.087104582503	0.005003694972
0	6736	20.092108277475	0.020517151092
0	6742	20.112625428567	0.044029260772
0	6747	20.156654689339	0.004577639958
0	6751	20.161232329297	0.007451484908
0	6756	20.168683814205	0.01676318129
0	6762	20.185446995495	0.018815201471
0	6767	20.204262196966	0.061948878348
0	6772	20.266211075314	0.002904398862
0	6776	20.269115474176	0.004667116392
0	6779	20.273782590568	0.002899245496
0	6784	20.276681836064	0.005026876788
0	6789	20.281708712852	0.004560809471
0	6792	20.286269522323	0.008660725617
0	6797	20.29493024794	0.005022134615
0	6802	20.299952382555	0.025975587049
0	6811	20.325927969604	0.016504004446
0	6817	20.34243197405	0.005090056229
0	6821	20.347522030279	0.047221593547
0	6827	20.394743623826	0.015513601519
0	6832	20.410257225345	0.016249317432
0	6837	20.426506542777	0.002985664638
0	6841	20.429492207415	0.014646173708
0	6847	20.444138381123	0.027465447354
0	6852	20.471603828477	0.056111886738
0	6857	20.527715715215	0.00519098545
0	6861	20.532906700665	0.005599320597
0	6866	20.538506021262	0.051887529353
0	6872	20.590393550615	0.023869295884
0	6877	20.614262846499	0.001425620519
0	6881	20.615688467018	0.014500600877
0	6887	20.630189067895	0.012186296514
0	6892	20.642375364409	0.014648217258
0	6897	20.657023581667	0.007638358859
0	6901	20.664661940526	0.007482645786
0	6906	20.672144586312	0.003583604643
0	6911	20.675728190955	0.056873353576
0	6917	20.732601544531	0.001946486093
0	6921	20.734548030624	0.005699314168
0	6924	20.740247344792	0.000703255584
0	6929	20.740950600376	0.004657868505
0	6932	20.745608468881	0.00589697495
0	6937	20.751505443831	0.014464102277
0	6944	20.765969546108	0.0178576192
0	6951	20.783827165308	0.001166783099
0	6954	20.784993948407	0.012204622583
0	6961	20.79719857099	0.007591097576
0	6966	20.804789668566	0.003925671946
0	6969	20.808715340512	0.013956932837
0	6976	20.822672273349	0.012142823771
0	6982	20.83481509712	0.012855066208
0	6987	20.847670163328	0.057007163817
0	6992	20.904677327145	0.033335016319
0	6997	20.938012343464	0.039932245558
0	7002	20.977944589022	0.034213687385
0	7007	21.012158276407	0.020512217144
0	7012	21.032670493551	0.00080214312
0	7016	21.033472636671	0.028102540078
0	7022	21.061575176749	0.019058878498
0	7027	21.080634055247	0.012632347095
0	7032	21.093266402342	0.039112854777
0	7037	21.132379257119	0.000357471507
0	7041	21.132736728626	0.005293309172
0	7044	21.138030037798	0.001980774164
0	7047	21.140010811962	0.001780497124
0	7052	21.141791309086	0.024779664912
0	7061	21.166570973998	0.028754785805
0	7067	21.195325759803	0.031606702718
0	7072	21.226932462521	0.011436589598
0	7077	21.238369052119	0.019206295767
0	7082	21.257575347886	0.024279403866
0	7087	21.281854751752	0.003684311038
0	7091	21.28553906279	0.008900043812
0	7096	21.294439106602	0.003671319768
0	7101	21.29811042637	0.035877745671
0	7107	21.333988172041	0.010044404157
0	7112	21.344032576198	0.035653054783
0	7117	21.379685630981	0.007274517388
0	7121	21.386960148369	0.008692567462
0	7127	21.395652715831	0.002717333975
0	7131	21.398370049806	0.028335150147
0	7137	21.426705199953	0.017400697009
0	7142	21.444105896962	0.02472897183
0	7147	21.468834868792	0.003061105693
0	7151	21.471895974485	0.013578563826
0	7157	21.485474538311	0.011330475083
0	7162	21.496805013394	0.005910569923
0	7166	21.502715583317	0.01636561277
0	7173	21.519081196087	0.020115811811
0	7178	21.539197007898	0.014084725109
0	7183	21.553281733007	0.021207015059
0	7188	21.574488748066	0.021216638766
0	7193	21.595705386832	0.000303627733
0	7197	21.596009014565	0.000899614085
0	7200	21.59690862865	0.020969760169
0	7207	21.617878388819	0.009080400177
0	7213	21.626958788996	0.003456970482
0	7217	21.630415759478	0.046376390683
0	7223	21.676792150161	0.005175138568
0	7227	21.681967288729	0.018846193744
0	7233	21.700813482473	0.023020599749
0	7238	21.723834082222	0.001237029132
0	7242	21.725071111354	0.014498791091
0	7248	21.739569902445	0.002002775185
0	7252	21.74157267763	0.03581671298
0	7258	21.77738939061	0.046969075944
0	7263	21.824358466554	0.037363012457
0	7268	21.861721479011	0.011472720703
0	7273	21.873194199714	0.002497668059
0	7277	21.875691867773	0.04978679164
0	7283	21.925478659413	0.005830769544
0	7287	21.931309428957	0.039128451892
0	7293	21.970437880849	0.01710692787
0	7298	21.987544808719	0.022031390878
0	7303	22.009576199597	0.02052318159
0	7308	22.030099381187	0.011149225423
0	7313	22.04124860661	0.005959659023
0	7317	22.047208265633	0.028846323665
0	7323	22.076054589298	0.004646355696
0	7327	22.080700944994	0.007204561067
0	7332	22.087905506061	0.025081445407
0	7338	22.112986951468	0.033518277918
0	7344	22.146505229386	0.030718148402
0	7349	22.177223377788	0.001826716762
0	7353	22.17905009455	0.00768533936
0	7358	22.18673543391	0.008500664433
0	7363	22.195236098343	0.010371634018
0	7368	22.205607732361	0.005514984075
0	7373	22.211122716436	0.041407101136
0	7379	22.252529817572	0.000765377433
0	7383	22.253295195005	0.011602103661
0	7388	22.264897298666	0.018941373704
0	7394	22.28383867237	0.009540298761
0	7399	22.293378971131	0.003286297386
0	7403	22.296665268517	0.018002791335
0	7409	22.314668059852	0.008483936892
0	7414	22.323151996744	0.007872292202
0	7419	22.331024288946	0.00160926735
0	7423	22.332633556296	0.013305643688
0	7428	22.345939199984	0.003916260423
0	7433	22.349855460407	0.020047945909
0	7439	22.369903406316	0.015928413788
0	7444	22.385831820104	0.002170004681
0	7448	22.388001824785	0.002403738181
0	7451	22.390405562966	0.017569037988
0	7458	22.407974600954	0.001920533741
0	7463	22.409895134695	0.005664612022
0	7466	22.415559746717	0.036661493254
0	7474	22.452221239971	0.004807772037
0	7478	22.457029012008	0.001943157718
0	7481	22.458972169726	0.009374278719
0	7488	22.468346448445	0.000964691989
0	7491	22.469311140434	0.003316025619
0	7494	22.472627166053	0.013176760073
0	7501	22.485803926126	0.039460540809
0	7509	22.525264466935	0.004994807219
0	7514	22.530259274154	0.015317051592
0	7520	22.545576325746	0.029949619802
0	7525	22.575525945548	0.006695228907
0	7529	22.582221174455	0.025776108623
0	7535	22.607997283078	0.009859936301
0	7540	22.617857219379	0.033959543022
0	7545	22.651816762401	0.010963194886
0	7550	22.662779957287	0.037436574476
0	7555	22.700216531763	0.000994883171
0	7559	22.701211414934	0.000362954018
0	7562	22.701574368952	0.003134934507
0	7565	22.704709303459	0.004333120783
0	7570	22.709042424242	0.014243680738
0	7575	22.72328610498	0.000638188214
0	7580	22.723924293194	0.0041649026
0	7583	22.728089195794	0.011823686093
0	7590	22.739912881887	0.001552485511
0	7593	22.741465367398	0.017995961317
0	7600	22.759461328715	0.021536933522
0	7609	22.780998262237	0.041589154323
0	7615	22.82258741656	0.002274147665
0	7619	22.824861564225	0.03620391641
0	7625	22.861065480635	0.001197427961
0	7629	22.862262908596	0.005999727291
0	7632	22.868262635887	0.040349761256
0	7640	22.908612397143	0.055956115641
0	7645	22.964568512784	0.005244685465
0	7649	22.969813198249	0.009587311322
0	7654	22.979400509571	0.025936499863
0	7660	23.005337009434	0.019793705612
0	7665	23.025130715046	0.003785540414
0	7669	23.02891625546	0.001457949663
0	7672	23.030374205123	0.016151137414
0	7679	23.046525342537	0.005419790256
0	7684	23.051945132793	0.0160504288
0	7690	23.067995561593	0.002837245953
0	7694	23.070832807546	0.02875998114
0	7700	23.099592788686	0.006056147661
0	7704	23.105648936347	0.001469805352
0	7707	23.107118741699	0.009193526819
0	7714	23.116312268518	0.01140560672
0	7719	23.127717875238	0.008666009773
0	7724	23.136383885011	0.018570884343
0	7730	23.154954769354	0.038071344066
0	7736	23.19302611342	0.012437461922
0	7741	23.205463575342	0.001725297911
0	7745	23.207188873253	0.001879468807
0	7748	23.20906834206	0.008233791666
0	7753	23.217302133726	0.007935404621
0	7758	23.225237538347	0.023518849634
0	7766	23.248756387981	0.014541323209
0	7771	23.26329771119	0.029843521119
0	7776	23.293141232309	0.012862475484
0	7781	23.306003707793	0.067468852921
0	7786	23.373472560714	0.002633165538
0	7790	23.376105726252	0.027057792708
0	7796	23.40316351896	0.003076214471
0	7800	23.406239733431	0.000242513341
0	7803	23.406482246772	0.008226807642
0	7808	23.414709054414	0.03245925376
0	7816	23.447168308174	0.000701855948
0	7820	23.447870164122	0.007297873232
0	7825	23.455168037354	0.040516175627
0	7831	23.495684212981	0.006372270482
0	7835	23.502056483463	0.000848081982
0	7838	23.502904565445	0.001683374054
0	7843	23.504587939499	0.024136071012
0	7851	23.528724010511	0.004513068202
0	7855	23.533237078713	0.056516111144
0	7861	23.589753189857	0.017128833721
0	7866	23.606882023578	0.020419537629
0	7871	23.627301561207	0.009266155512
0	7876	23.636567716719	0.004560390687
0	7880	23.641128107406	0.000600319034
0	7883	23.64172842644	0.021024000269
0	7891	23.662752426709	0.006431538513
0	7895	23.669183965222	0.009027180178
0	7900	23.6782111454	0.01321264091
0	7906	23.69142378631	0.006030405802
0	7910	23.697454192112	0.022408985444
0	7916	23.719863177556	0.030935936281
0	7921	23.750799113837	0.015337042885
0	7926	23.766136156722	0.02462900596
0	7931	23.790765162682	0.031028678993
0	7936	23.821793841675	0.00500643841
0	7940	23.826800280085	0.0149353668
0	7946	23.841735646885	0.004848205734
0	7950	23.846583852619	0.021664808081
0	7956	23.8682486607	0.00884008877
0	7961	23.87708874947	0.013306211027
0	7966	23.890394960497	0.001834456222
0	7970	23.892229416719	0.004972723278
0	7973	23.897202139997	0.007038789251
0	7978	23.904240929248	0.033507057606
0	7986	23.937747986854	0.01020571219
0	7991	23.947953699044	0.005758611046
0	7995	23.95371231009	0.016993195538
0	8001	23.970705505628	0.029732049672
0	8006	24.0004375553	0.00104762144
0	8010	24.00148517674	0.010885002593
0	8015	24.012370179333	0.002623049864
0	8018	24.014993229197	0.062457972003
0	8026	24.0774512012	0.007154175523
0	8030	24.084605376723	0.006392667546
0	8035	24.090998044269	0.00950263599
0	8040	24.100500680259	0.039003990799
0	8046	24.139504671058	0.047712862091
0	8051	24.187217533149	0.007036803185
0	8055	24.194254336334	0.033293196399
0	8061	24.227547532733	0.009872505915
0	8066	24.237420038648	0.014899979546
0	8071	24.252320018194	0.022281021
0	8076	24.274601039194	0.024757124326
0	8081	24.29935816352	0.000948624956
0	8085	24.300306788476	0.000264287217
0	8088	24.300571075693	0.02106265267
0	8095	24.321633728363	0.007853900265
0	8100	24.329487628628	0.018266317461
0	8106	24.347753946089	0.039201280422
0	8111	24.386955226511	0.041330528711
0	8116	24.428285755222	0.013237452844
0	8121	24.441523208066	0.014374872083
0	8126	24.455898080149	0.000825922032
0	8130	24.456724002181	0.036215908881
0	8136	24.492939911062	0.014935404913
0	8141	24.507875315975	0.001073793385
0	8145	24.50894910936	0.006685513153
0	8148	24.515634622513	0.021540538663
0	8156	24.537175161176	0.010737287019
0	8161	24.547912448195	0.001728554304
0	8165	24.549641002499	0.004491095135
0	8168	24.554132097634	0.001329208655
0	8171	24.555461306289	0.002245801029
0	8176	24.557707107318	0.002334447052
0	8179	24.56004155437	0.006794404341
0	8184	24.566835958711	0.000909972416
0	8187	24.567745931127	0.001542933396
0	8190	24.569288864523	0.038513523908
0	8203	24.607802388431	0.007326907811
0	8208	24.615129296242	0.004598360433
0	8213	24.619727656675	0.039529861235
0	8221	24.65925751791	0.002619222149
0	8225	24.661876740059	0.011978721711
0	8230	24.67385546177	0.00243002484
0	8235	24.67628548661	0.003673406807
0	8238	24.679958893417	0.019656282862
0	8246	24.699615176279	0.020160042662
0	8251	24.719775218941	0.000891803589
0	8255	24.72066702253	0.019941506928
0	8261	24.740608529458	0.017378278528
0	8266	24.757986807986	0.023978167857
0	8271	24.781964975843	0.040684641115
0	8276	24.822649616958	0.017143669758
0	8282	24.839793286716	0.006134138295
0	8286	24.845927425011	0.002910668657
0	8291	24.848838093668	0.007355427941
0	8296	24.856193521609	0.008052165187
0	8301	24.864245686796	0.023563173514
0	8307	24.88780886031	0.010275748922
0	8312	24.898084609232	0.002352140867
0	8316	24.900436750099	0.003409822779
0	8319	24.903846572878	0.003327789449
0	8324	24.907174362327	0.007244380426
0	8329	24.914418742753	0.040444663031
0	8337	24.954863405784	0.042800139667
0	8342	24.997663545451	0.011508202409
0	8347	25.00917174786	0.013098472306
0	8352	25.022270220166	0.009813811478
0	8357	25.032084031644	0.023547481894
0	8362	25.055631513538	0.001238284682
0	8366	25.05686979822	0.004982132439
0	8369	25.061851930659	0.007212195577
0	8374	25.069064126236	0.014564050064
0	8381	25.0836281763	0.013938089403
0	8387	25.097566265703	0.003866060044
0	8391	25.101432325747	0.001215427607
0	8394	25.102647753354	0.003681905465
0	8399	25.106329658819	0.004774714649
0	8402	25.111104373468	0.05193947064
0	8412	25.163043844108	0.030487027726
0	8417	25.193530871834	0.005272543852
0	8421	25.198803415686	0.005991897364
0	8426	25.20479531305	0.003839760381
0	8429	25.208635073431	0.003960820442
0	8434	25.212595893873	0.004928422314
0	8439	25.217524316187	0.006950177135
0	8442	25.224474493322	0.000413338974
0	8445	25.224887832296	0.000449910588
0	8450	25.225337742884	0.012577505754
0	8455	25.237915248638	0.011962072703
0	8462	25.249877321341	0.002674866895
0	8465	25.252552188236	0.033324451691
0	8476	25.285876639927	0.007850289504
0	8481	25.293726929431	4.7097029e-005
0	8484	25.29377402646	0.02008461317
0	8492	25.31385863963	0.014589022182
0	8497	25.328447661812	0.029825282837
0	8502	25.358272944649	0.000395709593
0	8506	25.358668654242	0.003884812584
0	8509	25.362553466826	0.012428290982
0	8516	25.374981757808	0.010838814257
0	8521	25.385820572065	0.030117587969
0	8527	25.415938160034	0.001256189395
0	8531	25.417194349429	0.018364315446
0	8537	25.435558664875	0.002030638758
0	8541	25.437589303633	0.070475044666
0	8547	25.508064348299	0.007228823604
0	8551	25.515293171903	0.00427323172
0	8556	25.519566403623	0.01595726486
0	8562	25.535523668483	0.007609051637
0	8566	25.54313272012	0.005389003055
0	8571	25.548521723175	0.009037157741
0	8576	25.557558880916	0.001331874556
0	8579	25.558890755472	0.002759882271
0	8584	25.561650637743	0.008555795849
0	8589	25.570206433592	0.000904093329
0	8592	25.571110526921	0.010578481869
0	8597	25.58168900879	0.029178353509
0	8607	25.610867362299	0.031643073193
0	8612	25.642510435492	0.026513391574
0	8617	25.669023827066	0.005776171118
0	8621	25.674799998184	0.004810676629
0	8626	25.679610674813	0.005786262887
0	8631	25.6853969377	0.033008100127
0	8637	25.718405037827	0.000991025589
0	8641	25.719396063416	0.024634505602
0	8647	25.744030569018	0.007816112747
0	8651	25.751846681765	0.042974473879
0	8657	25.794821155644	0.003048142499
0	8661	25.797869298143	0.005603783744
0	8666	25.803473081887	0.013067309383
0	8671	25.81654039127	0.007572841514
0	8676	25.824113232784	0.009026509674
0	8681	25.833139742458	0.044047391863
0	8687	25.877187134321	0.003602541014
0	8691	25.880789675335	0.00131723854
0	8694	25.882106913875	0.000254317998
0	8697	25.882361231873	0.008621882534
0	8702	25.890983114407	0.071674117151
0	8712	25.962657231558	0.003782022919
0	8716	25.966439254477	0.056131699256
0	8722	26.022570953733	0.001263503256
0	8726	26.023834456989	0.001929896128
0	8729	26.025764353117	0.00286098002
0	8732	26.028625333137	0.03138969195
0	8742	26.060015025087	0.071668139573
0	8747	26.13168316466	0.066991441773
0	8752	26.198674606433	0.0012776959
0	8756	26.199952302333	0.00433336332
0	8759	26.204285665653	0.033753852816
0	8767	26.238039518469	0.027362310002
0	8772	26.265401828471	0.033222335524
0	8777	26.298624163995	0.011075768541
0	8782	26.309699932536	0.051655742402
0	8787	26.361355674938	0.011169426448
0	8792	26.372525101386	0.002641863995
0	8796	26.375166965381	0.001389224948
0	8799	26.376556190329	0.003834874941
0	8802	26.38039106527	0.009080414809
0	8809	26.389471480079	0.006575144013
0	8812	26.396046624092	0.071163017623
0	8822	26.467209641715	0.026725397921
0	8827	26.493935039636	0.002138722002
0	8831	26.496073761638	0.0043211639
0	8834	26.500394925538	0.029205068882
0	8842	26.52959999442	0.008698860861
0	8847	26.538298855281	0.032063719077
0	8852	26.570362574358	0.011770600621
0	8857	26.582133174979	0.001342674491
0	8861	26.58347584947	0.000242650074
0	8864	26.583718499544	0.018909420019
0	8871	26.602627919563	0.0095229782
0	8876	26.612150897763	0.000166538066
0	8879	26.612317435829	0.008190935962
0	8884	26.620508371791	0.006844662831
0	8889	26.627353034622	0.001268486589
0	8892	26.628621521211	0.03104692391
0	8902	26.659668445121	0.021471608203
0	8907	26.681140053324	0.0323926735
0	8912	26.713532726824	0.015282231723
0	8917	26.728814958547	0.054557181293
0	8922	26.78337213984	0.01207506593
0	8927	26.79544720577	0.009170750737
0	8932	26.804617956507	0.003853726586
0	8936	26.808471683093	0.004962705919
0	8941	26.813434389012	0.011847697391
0	8946	26.825282086403	0.010656520736
0	8951	26.835938607139	0.016640561059
0	8957	26.852579168198	0.008521884504
0	8962	26.861101052702	0.013462337669
0	8967	26.874563390371	0.016383654146
0	8972	26.890947044517	0.003224222688
0	8976	26.894171267205	0.041357659217
0	8982	26.935528926422	0.00904639837
0	8987	26.944575324792	0.008931659695
0	8992	26.953506984487	0.007413239396
0	8996	26.960920223883	0.031839690659
0	9002	26.992759914542	0.010948303173
0	9007	27.003708217715	0.025101188158
0	9012	27.028809405873	0.022650885112
0	9018	27.051460290985	0.016218207015
0	9023	27.067678498	0.006461481215
0	9027	27.074139979215	0.028156881741
0	9033	27.102296860956	0.001213423816
0	9037	27.103510284772	0.015861713045
0	9044	27.119371997817	0.012689935646
0	9049	27.132061933463	0.009207879523
0	9054	27.141269812986	0.015882049027
0	9059	27.157151862013	0.009647772854
0	9064	27.166799634867	0.011096179247
0	9069	27.177895814114	0.021412162303
0	9074	27.199307976417	0.002104335283
0	9078	27.2014123117	0.014042533782
0	9084	27.215454845482	0.007920278257
0	9088	27.223375123739	0.030280815361
0	9094	27.2536559391	0.001765313058
0	9098	27.255421252158	0.008645971911
0	9103	27.264067224069	0.013035591505
0	9108	27.277102815574	0.02746448677
0	9114	27.304567302344	0.002756136203
0	9118	27.307323438547	0.015161008519
0	9124	27.322484447066	0.001073566124
0	9128	27.32355801319	0.005427083881
0	9131	27.328985097071	0.029836441795
0	9139	27.358821538866	0.018912249948
0	9144	27.377733788814	0.029889148528
0	9149	27.407622937342	0.028747112764
0	9154	27.436370050106	0.007287806647
0	9158	27.443657856753	0.005134102883
0	9163	27.448791959636	0.002643274592
0	9166	27.451435234228	0.002841219236
0	9171	27.454276453464	0.000750264966
0	9174	27.45502671843	0.013429139282
0	9181	27.468455857712	0.006120200664
0	9184	27.474576058376	0.053742193566
0	9194	27.528318251942	0.032039714779
0	9199	27.560357966721	0.008397750915
0	9204	27.568755717636	0.032512868955
0	9209	27.601268586591	0.001273483565
0	9213	27.602542070156	0.007352586599
0	9218	27.609894656755	0.002888240825
0	9221	27.61278289758	0.01277140705
0	9228	27.62555430463	0.020273203814
0	9234	27.645827508444	0.032709458886
0	9239	27.67853696733	0.001154086939
0	9243	27.679691054269	0.004976846042
0	9246	27.684667900311	0.007848549035
0	9251	27.692516449346	0.006801589011
0	9256	27.699318038357	0.008763535418
0	9261	27.708081573775	0.002043480826
0	9264	27.710125054601	0.036220933241
0	9274	27.746345987842	0.010518381841
0	9279	27.756864369683	0.000853159679
0	9283	27.757717529362	0.011959896559
0	9288	27.769677425921	0.00048706563
0	9291	27.770164491551	0.050284932583
0	9299	27.820449424134	0.035341722568
0	9304	27.855791146702	0.012569992584
0	9309	27.868361139286	0.009546178586
0	9314	27.877907317872	0.034284926399
0	9319	27.912192244271	0.002269015442
0	9323	27.914461259713	0.025707560332
0	9329	27.940168820045	0.022470828115
0	9334	27.96263964816	0.005428025226
0	9338	27.968067673386	0.0056390814
0	9343	27.973706754786	0.010279356345
0	9348	27.983986111131	0.015198027185
0	9354	27.999184138316	0.005822814544
0	9358	28.00500695286	0.012930233427
0	9364	28.017937186287	0.013434909221
0	9369	28.031372095508	0.003038738365
0	9373	28.034410833873	0.002277865557
0	9376	28.03668869943	0.029244044276
0	9384	28.065932743706	0.030539854543
0	9389	28.096472598249	0.008296189146
0	9394	28.104768787395	0.021392531736
0	9399	28.126161319131	0.020759707947
0	9404	28.146921027078	0.02457279957
0	9409	28.171493826648	0.039294745162
0	9415	28.21078857181	0.022667891769
0	9420	28.233456463579	0.025530094975
0	9425	28.258986558554	0.001191057221
0	9429	28.260177615775	0.01422597527
0	9434	28.274403591045	0.01342095894
0	9440	28.287824549985	0.004402447642
0	9444	28.292226997627	0.025355029851
0	9450	28.317582027478	0.01806501476
0	9455	28.335647042238	0.058569697965
0	9460	28.394216740203	0.002078797138
0	9464	28.396295537341	0.012671126284
0	9469	28.408966663625	0.007876955549
0	9474	28.416843619174	0.022963137229
0	9481	28.439806756403	0.002466736156
0	9485	28.442273492559	0.00523754648
0	9488	28.447511039039	0.005434823153
0	9493	28.452945862192	0.014621955056
0	9500	28.467567817248	0.019798872034
0	9506	28.487366689282	0.001670327216
0	9510	28.489037016498	0.002177468292
0	9513	28.49121448479	0.003357769086
0	9516	28.494572253876	0.045046124318
0	9526	28.539618378194	0.007300335805
0	9530	28.546918713999	0.007265957041
0	9535	28.55418467104	0.023131336664
0	9541	28.577316007704	0.004667938885
0	9545	28.581983946589	0.014645398129
0	9551	28.596629344718	0.003994746754
0	9555	28.600624091472	0.000387194621
0	9558	28.601011286093	0.006114610115
0	9563	28.607125896208	0.021350216108
0	9571	28.628476112316	0.001846185228
0	9576	28.630322297544	0.001265016032
0	9579	28.631587313576	0.003236492403
0	9582	28.634823805979	0.030679215959
0	9592	28.665503021938	0.030530249412
0	9597	28.69603327135	0.000458089099
0	9601	28.696491360449	0.015241024703
0	9606	28.711732385152	0.014999689677
0	9612	28.726732074829	0.004470925522
0	9616	28.731203000351	0.012590646965
0	9622	28.743793647316	0.034102663744
0	9628	28.77789631106	0.016167841077
0	9633	28.794064152137	0.006806190094
0	9637	28.800870342231	0.012394836413
0	9643	28.813265178644	0.060256292508
0	9648	28.873521471152	0.011706761012
0	9653	28.885228232164	0.004552788555
0	9657	28.889781020719	0.0034237574
0	9662	28.893204778119	0.008511957255
0	9667	28.901716735374	0.005616455725
0	9670	28.907333191099	0.010728109373
0	9677	28.918061300472	0.02491062743
0	9683	28.942971927902	0.036534640731
0	9688	28.979506568633	0.0058609855
0	9692	28.985367554133	0.011866916044
0	9698	28.997234470177	0.033048455578
0	9703	29.030282925755	0.020695691544
0	9708	29.050978617299	0.013503876932
0	9713	29.064482494231	0.001892925066
0	9717	29.066375419297	0.002537791544
0	9720	29.068913210841	0.030313473518
0	9728	29.099226684359	0.006034238857
0	9732	29.105260923216	0.053356783265
0	9738	29.158617706481	0.010390273566
0	9743	29.169007980047	0.032868031481
0	9748	29.201876011528	0.028024158111
0	9753	29.229900169639	0.00349270081
0	9757	29.233392870449	0.012266589397
0	9762	29.245659459846	0.041716866986
0	9768	29.287376326832	0.010652591461
0	9773	29.298028918293	0.005661475979
0	9777	29.303690394272	0.010127995045
0	9782	29.313818389317	0.000826305119
0	9787	29.314644694436	0.045837018982
0	9793	29.360481713418	0.000829497142
0	9797	29.36131121056	0.006232598081
0	9800	29.367543808641	0.055084333476
0	9808	29.422628142117	0.003237574046
0	9812	29.425865716163	0.008997423026
0	9817	29.434863139189	0.016861443169
0	9823	29.451724582358	0.037624461772
0	9828	29.48934904413	0.034050450955
0	9833	29.523399495085	0.000557436084
0	9837	29.523956931169	0.009199593483
0	9842	29.533156524652	0.021274037597
0	9848	29.554430562249	0.009799549219
0	9853	29.564230111468	0.002209247583
0	9857	29.566439359051	0.012867476631
0	9862	29.579306835682	0.005504502283
0	9867	29.584811337965	0.051062326256
0	9873	29.635873664221	0.008932359454
0	9878	29.644806023675	0.003087237805
0	9882	29.64789326148	0.026703934492
0	9888	29.674597195972	0.038397381949
0	9893	29.712994577921	0.031031711444
0	9898	29.744026289365	0.001762676578
0	9902	29.745788965943	0.018813189961
0	9908	29.764602155904	0.032263426256
0	9913	29.79686558216	0.005877448247
0	9917	29.802743030407	0.006794286082
0	9922	29.809537316489	0.026051398963
0	9928	29.835588715452	0.012896980396
0	9933	29.848485695848	0.003611465696
0	9937	29.852097161544	0.008108395735
0	9942	29.860205557279	0.01320696749
0	9948	29.873412524769	0.020350423696
0	9953	29.893762948465	0.000449156928
0	9957	29.894212105393	0.017711422766
0	9963	29.911923528159	0.031614476022
0	9968	29.943538004181	0.000176065029
0	9972	29.94371406921	0.015167334566
0	9977	29.958881403776	0.007271642961
0	9982	29.966153046737	0.004167381614
0	9987	29.970320428351	0.031537842696
0	9993	30.001858271047	0.006603946027
0	9997	30.008462217074	0.020569254192
0	10003	30.029031471266	0.010263283633
0	10008	30.039294754899	0.003031483411
0	10012	30.04232623831	0.023464800635
0	10018	30.065791038945	0.010359848505
0	10023	30.07615088745	0.010021726425
0	10028	30.086172613875	0.034066012018
0	10033	30.120238625893	0.016222317431
0	10038	30.136460943324	0.005073280865
0	10042	30.141534224189	0.000107847295
0	10045	30.141642071484	0.015133347744
0	10052	30.156775419228	0.004714188392
0	10057	30.16148960762	0.032932942966
0	10063	30.194422550586	0.017337942886
0	10068	30.211760493472	0.04330546012
0	10073	30.255065953592	0.08163435297
0	10079	30.336700306562	0.005710357311
0	10083	30.342410663873	0.003850463688
0	10088	30.346261127561	0.01843171883
0	10094	30.364692846391	0.016363723488
0	10099	30.381056569879	0.01465986288
0	10104	30.395716432759	0.036146641609
0	10109	30.431863074368	0.014863766679
0	10114	30.446726841047	0.022551466295
0	10119	30.469278307342	0.03408047374
0	10124	30.503358781082	0.002111994069
0	10128	30.505470775151	0.025105482505
0	10134	30.530576257656	0.006441623778
0	10138	30.537017881434	0.008114771629
0	10143	30.545132653063	0.006807243239
0	10148	30.551939896302	0.014591476455
0	10154	30.566531372757	0.040885685066
0	10159	30.607417057823	0.006819836113
0	10163	30.614236893936	0.007297366147
0	10168	30.621534260083	0.012006140711
0	10174	30.633540400794	0.010792694738
0	10179	30.644333095532	0.012711247237
0	10184	30.657044342769	0.006800206571
0	10188	30.66384454934	0.02158969063
0	10194	30.68543423997	0.060125611962
0	10200	30.745559851932	0.004117434976
0	10204	30.749677286908	0.002412044513
0	10207	30.752089331421	0.000577082899
0	10210	30.75266641432	0.006329097611
0	10215	30.758995511931	0.001910582143
0	10218	30.760906094074	0.001031827573
0	10223	30.761937921647	0.011719199545
0	10228	30.773657121192	0.020322899731
0	10237	30.793980020923	0.009664470432
0	10242	30.803644491355	0.001133772108
0	10245	30.804778263463	0.003285039822
0	10248	30.808063303285	0.02476730179
0	10257	30.832830605075	0.009682340544
0	10264	30.842512945619	0.046329156195
0	10270	30.888842101814	0.018640970778
0	10275	30.907483072592	0.011031868577
0	10280	30.918514941169	0.008549575077
0	10285	30.927064516246	0.028052363909
0	10290	30.955116880155	0.006036956127
0	10294	30.961153836282	0.01538968175
0	10300	30.976543518032	0.034670660049
0	10305	31.011214178081	0.005256738368
0	10309	31.016470916449	0.020053173176
0	10315	31.036524089625	0.023884348004
0	10321	31.060408437629	0.013926194544
0	10326	31.074334632173	0.033064460629
[...]
23	17240	52.877826535588	0.007851934941
23	17245	52.896357110909	0.007851054284
23	17250	52.930281551217	0.007849293564
23	17255	52.938130844781	0.00868769789
23	17263	52.94597925828	0.015072033562
23	17265	52.953827671779	0.018586255326
23	17270	52.961906260815	0.007847533632
23	17275	52.969753794447	0.011111752341
23	17280	52.97760044841	0.01435799636
23	17285	52.985447102373	0.008929365697
23	17290	52.993292876863	0.015540504194
23	17298	53.001138651353	0.010221906974
23	17300	53.008983546568	0.016272396663
23	17305	53.016828441783	0.013855109412
23	17310	53.025720332319	0.007844016136
23	17315	53.035241571878	0.007843137255
23	17320	53.044239635362	0.007843137255
23	17325	53.052082772617	0.010761447223
23	17330	53.062528717838	0.00784225857
23	17335	53.093221754626	0.007840501792
23	17340	53.101062256418	0.010781644305
23	17345	53.113002437527	0.007839623698
23	17350	53.123175576055	0.007838745801
23	17355	53.131014321856	0.009056744182
23	17360	53.145328607147	0.0078378681
23	17365	53.153166475247	0.012064437494
23	17370	53.182358920904	0.007836113288
23	17375	53.199557476477	0.007834359261
23	17380	53.211102324658	0.007834359261
23	17385	53.218936683919	0.013473959423
23	17390	53.233005309299	0.00783260602
23	17395	53.240837915319	0.011304564341
23	17400	53.248670521339	0.011940680767
23	17405	53.301009936579	0.00782910189
23	17410	53.312015330124	0.00782910189
23	17415	53.319844432014	0.014350006127
23	17423	53.327672658362	0.014790161434
23	17425	53.33550088471	0.016567010914
23	17430	53.343328235711	0.011120631841
23	17435	53.366857813764	0.007825600894
23	17440	53.374683414658	0.014962583639
23	17448	53.382509015552	0.015639413096
23	17450	53.390333741687	0.01640734638
23	17455	53.405970225178	0.00782385157
23	17460	53.428468390699	0.007822977202
23	17465	53.449460988511	0.00782122905
23	17470	53.464969233038	0.007820355268
23	17475	53.48861667249	0.00781948168
23	17480	53.511109903922	0.007818608288
23	17485	53.568428790314	0.007815116669
23	17490	53.576243906983	0.008682774841
23	17495	53.601278044884	0.007813372028
23	17500	53.613892896415	0.0078125
23	17505	53.63201526285	0.007811628166
23	17510	53.643036678202	0.007811628166
23	17515	53.674659173606	0.007809885083
23	17520	53.682469058689	0.01377613175
23	17525	53.694296931043	0.007809013833
23	17530	53.727258432602	0.007807271916
23	17535	53.745253602537	0.007806401249
23	17540	53.757569759491	0.007805530776
23	17545	53.765375290267	0.01007094917
23	17550	53.776437457711	0.007804660497
23	17555	53.802393370811	0.007802920522
23	17563	53.810196291333	0.01388176859
23	17565	53.817999211855	0.017748266696
23	17570	53.828629014699	0.007801181322
23	17575	53.909011761822	0.007797705247
23	17580	53.925787980973	0.007796836712
23	17588	53.933584817685	0.015383244954
23	17590	53.941380786056	0.016819722045
23	17595	53.961161689879	0.007794232268
23	17600	53.974550577407	0.007794232268
23	17605	53.995989705619	0.007792496939
23	17610	54.005562422924	0.007792496939
23	17615	54.036816887323	0.007790762382
23	17620	54.055825042628	0.007789895393
23	17625	54.076206677915	0.007789028597
23	17636	54.083995706512	0.013301312621
23	17641	54.091783868506	0.018996898521
23	17646	54.0995720305	0.02608748137
23	17648	54.107359326083	0.030195059882
23	17650	54.115146621666	0.030592626339
23	17655	54.135665128539	0.007785563341
23	17660	54.159418043047	0.007783831869
23	17665	54.172979106671	0.007783831869
23	17676	54.18076293854	0.012131238401
23	17678	54.188545904962	0.019177603174
23	17680	54.196328871384	0.02649191889
23	17685	54.204110972551	0.008971103892
23	17690	54.218670448378	0.007781236105
23	17695	54.226451684483	0.013567270307
23	17700	54.234232055718	0.014297107763
23	17708	54.242012426953	0.0104548049
23	17713	54.249792798188	0.017436395071
23	17715	54.257572304745	0.018157438633
23	17720	54.265351811302	0.00876881676
23	17725	54.288037643243	0.007777777778
23	17730	54.296435565635	0.007776913676
23	17738	54.304212479311	0.015481355061
23	17746	54.311989392987	0.019912655715
23	17751	54.319765442754	0.023326853409
23	17753	54.327541492521	0.026657766653
23	17755	54.33531667857	0.025133973353
23	17760	54.343091864619	0.009611003304
23	17765	54.354095394491	0.007774322523
23	17776	54.361869717014	0.015400466987
23	17784	54.369643176203	0.01840267231
23	17789	54.377416635392	0.025860897012
23	17791	54.385189231439	0.027283847929
23	17799	54.392961827486	0.031894818784
23	17801	54.400733560582	0.03782509368
23	17803	54.408505293678	0.029339446929
23	17805	54.416276164015	0.03609783296
23	17810	54.455352332963	0.007769145394
23	17815	54.463121478357	0.009732886424
23	17820	54.470889761566	0.012621852121
23	17825	54.478658044775	0.013430573173
23	17830	54.4887021583	0.007767421216
23	17835	54.50378519343	0.007766559414
23	17840	54.514518059976	0.007765697803
23	17845	54.538492616616	0.007764836384
23	17850	54.578915956261	0.007762253271
23	17855	54.587649032299	0.007762253271
23	17860	54.595423008713	0.007761392616
23	17865	54.604509747877	0.007761392616
23	17870	54.612271140493	0.011500375568
23	17875	54.620031672644	0.00909912239
23	17883	54.627792204795	0.011513224172
23	17885	54.635551876672	0.017031318329
23	17890	54.664428116525	0.007757951901
23	17895	54.672186068426	0.01371334005
23	17900	54.685706924811	0.007757092199
23	17905	54.710192836225	0.007755373366
23	17910	54.717948209591	0.008012296641
23	17915	54.73924365504	0.007753655295
23	17920	54.748331180139	0.007753655295
23	17925	54.76182172048	0.007752796544
23	17930	54.779627069481	0.007751937984
23	17935	54.793371907479	0.007751079615
23	17940	54.801122987094	0.008814723195
23	17945	54.813442337671	0.007750221435
23	17950	54.830996507306	0.007749363445
23	17955	54.847553804106	0.007748505645
23	17960	54.855302309751	0.014565293869
23	17965	54.871536105965	0.007746790615
23	17970	54.87928289658	0.008855856841
23	17975	54.887029687195	0.015009190989
23	17980	54.91016758443	0.007745076344
23	17988	54.917912660774	0.014642004979
23	17990	54.925657737118	0.020043419008
23	17995	54.935991930726	0.007744219493
23	18000	54.956576637349	0.00774250636
23	18005	54.971176685584	0.007741650077
23	18010	54.985237293323	0.007741650077
23	18018	54.9929789434	0.00897366159
23	18020	55.000719737384	0.015628716608
23	18025	55.008460531368	0.00775184078
23	18030	55.031384765594	0.007739082366
23	18035	55.03912384796	0.015416790401
23	18040	55.069029009373	0.007737371504
23	18048	55.076766380877	0.011138722661
23	18053	55.084502897234	0.015914591062
23	18058	55.092239413591	0.01975601506
23	18060	55.09997507499	0.020459370377
23	18065	55.114674168358	0.00773480663
23	18070	55.138043289697	0.007733097658
23	18075	55.161762573955	0.007732243455
23	18080	55.21600734869	0.007729681979
23	18085	55.237220260792	0.00772797527
23	18090	55.251079265242	0.00772797527
23	18095	55.265406045865	0.007727122199
23	18100	55.303420699581	0.007724564114
23	18105	55.327397373026	0.007723711795
23	18110	55.342032231227	0.007722859665
23	18115	55.352816571672	0.007722007722
23	18120	55.360538579394	0.011819439991
23	18128	55.368260587116	0.01348198828
23	18130	55.375981743083	0.021022643341
23	18135	55.38370289905	0.01225820367
23	18140	55.421385012191	0.00771860183
23	18145	55.432639925977	0.00771860183
23	18150	55.440358527807	0.014468116119
23	18155	55.448076278634	0.007864769003
23	18160	55.467593985053	0.007716049383
23	18165	55.505446863493	0.007714348689
23	18170	55.542069798699	0.007712648744
23	18175	55.554846780477	0.007711799053
23	18180	55.592648374341	0.007710100231
23	18185	55.602011179123	0.007709251101
23	18190	55.616955259165	0.007708402158
23	18195	55.624663661323	0.009505810307
23	18200	55.638205690495	0.007707553402
23	18205	55.654056686289	0.007706704833
23	18210	55.661763391122	0.015208534119
23	18215	55.669470095955	0.010275166364
23	18220	55.709922565794	0.007704160247
23	18225	55.728585152176	0.007703312424
23	18230	55.7362884646	0.012587537274
23	18235	55.77516753249	0.007700770077
23	18240	55.788633806601	0.007699923001
23	18245	55.796333729602	0.011824266699
23	18250	55.814946222235	0.007698229407
23	18255	55.827039707215	0.007698229407
23	18260	55.845405823809	0.00769738289
23	18268	55.853103206699	0.013975259292
23	18273	55.860799743258	0.017922565394
23	18278	55.868496279817	0.020781403771
23	18283	55.87619197023	0.015447113362
23	18288	55.883887660643	0.019924453271
23	18290	55.891582505097	0.021428617413
23	18295	55.899277349551	0.007871671452
23	18300	55.94155185662	0.007692307692
23	18305	55.95654603371	0.007691462477
23	18310	55.985064955277	0.007689772602
23	18318	55.992754727879	0.010693367041
23	18320	56.000444500481	0.017752726421
23	18325	56.010823425754	0.007688927944
23	18330	56.03496362225	0.007687239183
23	18335	56.05690716578	0.007686395081
23	18340	56.122995245945	0.007683020525
23	18345	56.132543546353	0.007682177349
23	18350	56.140225723702	0.014099972052
23	18355	56.151540585215	0.007681334358
23	18360	56.166485890773	0.007680491551
23	18365	56.174166382324	0.01209664621
23	18370	56.181846873875	0.008856252372
23	18375	56.189526522805	0.013564502069
23	18380	56.197206171735	0.008446500656
23	18385	56.205960156816	0.007678806494
23	18390	56.232232718833	0.007677122176
23	18395	56.239909841009	0.012155033635
23	18400	56.281958511136	0.007674597084
23	18405	56.309008452283	0.007673755755
23	18410	56.326692063354	0.007672914611
23	18415	56.351666436276	0.007671232877
23	18420	56.359337669153	0.010043547648
23	18425	56.36700890203	0.008546189357
23	18430	56.382174251531	0.007669551879
23	18435	56.40253560562	0.007668711656
23	18440	56.410204317276	0.013432988679
23	18445	56.419810527417	0.007667871618
23	18453	56.427478399035	0.015242233891
23	18455	56.435145430798	0.021216676335
23	18461	56.455809215689	0.007666192093
23	18466	56.463475407782	0.010357340639
23	18471	56.471140760388	0.009060150588
23	18476	56.478806112994	0.013661335928
23	18481	56.486470626297	0.009857956168
23	18489	56.4941351396	0.012874051255
23	18491	56.501798813784	0.020254511215
23	18496	56.509462487968	0.009194335467
23	18501	56.517820190663	0.007662835249
23	18506	56.529821522124	0.007661996497
23	18511	56.551376696745	0.007661157929
23	18522	56.559037854674	0.014461976625
23	18524	56.566699012603	0.016991605542
23	18529	56.574359332148	0.023966428769
23	18531	56.582019651693	0.017379787964
23	18536	56.600597852723	0.007658643326
23	18541	56.609296409686	0.007657805492
23	18546	56.620359638057	0.007657805492
23	18551	56.628017443549	0.011620813343
23	18556	56.651164858133	0.007656130373
23	18561	56.658820988506	0.011661777945
23	18566	56.68145811013	0.007654455987
23	18571	56.689112566117	0.007817640617
23	18576	56.697555618727	0.007653619068
23	18581	56.762486921647	0.007650273224
23	18593	56.770137194871	0.008837529337
23	18595	56.777787468095	0.016096850961
23	18600	56.785436905315	0.023514266259
23	18602	56.793086342535	0.020753501438
23	18607	56.80796722717	0.00764776576
23	18612	56.834192356194	0.007646930304
23	18617	56.841839286498	0.009936093883
23	18622	56.914941253673	0.007642755759
23	18627	56.922584009432	0.010679626283
23	18632	56.930226765191	0.013154280421
23	18637	56.94283543186	0.007641087218
23	18642	56.961093122073	0.00764025322
23	18647	56.968733375293	0.014436018331
23	18652	56.976373628513	0.01517160277
23	18657	56.985083581878	0.007639419404
23	18662	56.992723001282	0.010992619602
23	18667	57.000361587052	0.014416233142
23	18672	57.02219665541	0.007637752319
23	18677	57.084383064491	0.007634420329
23	18682	57.09201748482	0.01052967432
23	18687	57.099651072606	0.010047781025
23	18692	57.107284660392	0.015062253719
23	18697	57.119677194156	0.007632755425
23	18702	57.139471107307	0.007631091246
23	18707	57.147102198553	0.013204379566
23	18712	57.154733289799	0.010297841731
23	18717	57.169439656174	0.007630259429
23	18722	57.190600619175	0.007628596338
23	18727	57.211948283997	0.007627765065
23	18732	57.219576049062	0.008595478974
23	18737	57.227203814127	0.009553433643
23	18742	57.253674105293	0.007626103061
23	18747	57.267766009785	0.007625272331
23	18752	57.282070719323	0.007624441782
23	18757	57.289695161105	0.010372576277
23	18762	57.318811790306	0.007622781226
23	18767	57.331017648503	0.00762195122
23	18772	57.343374826368	0.007621121394
23	18777	57.361776982895	0.007620291748
23	18782	57.369397274643	0.014292939474
23	18787	57.377605636375	0.007619462284
23	18792	57.390417989457	0.007618633
23	18797	57.405722022492	0.007617803896
23	18802	57.42113573594	0.007616974973
23	18807	57.428752710913	0.010059858324
23	18812	57.470986013835	0.007614489285
23	18817	57.483663178468	0.007614489285
23	18822	57.491277667753	0.011393626979
23	18827	57.523276066836	0.00761200522
23	18832	57.533947481832	0.00761200522
23	18837	57.557212987515	0.007610350076
23	18842	57.564823337591	0.014312259613
23	18847	57.604202679326	0.00760786871
23	18852	57.624633017632	0.007607041947
23	18857	57.632240059579	0.012810970605
23	18862	57.646106394872	0.007606215365
23	18867	57.655805568975	0.007605388961
23	18872	57.67272892164	0.007604562738
23	18877	57.680333484378	0.011593620162
23	18882	57.687938047116	0.012405874396
23	18887	57.704170809924	0.007602910829
23	18892	57.732683925497	0.007602085143
23	18903	57.74028601064	0.014557719403
23	18908	57.747887270277	0.016650093664
23	18910	57.755488529914	0.023527864769
23	18912	57.763088964225	0.025729247484
23	18917	57.772721552372	0.007599609163
23	18922	57.786657651526	0.007598784195
23	18927	57.828218307031	0.007597134795
23	18935	57.835815441826	0.014314305013
23	18943	57.84341175219	0.021014773516
23	18951	57.851008062554	0.019331280541
23	18953	57.858603548665	0.025056921053
23	18961	57.866199034776	0.028766425805
23	18963	57.873794520887	0.035080859699
23	18968	57.881389182925	0.027749151494
23	18973	57.888983844963	0.030633841229
23	18975	57.896577683106	0.028769242091
23	18977	57.904171521249	0.030333538586
23	18985	57.911764535676	0.013867703258
23	18987	57.919357550103	0.020591520216
23	18992	57.926949740992	0.011827077595
23	18997	57.944750633369	0.007591367531
23	19002	57.967755720117	0.007589721349
23	19007	57.977683044212	0.007589721349
23	19012	57.985272765561	0.008711369038
23	19017	58.003305906796	0.007588075881
23	19022	58.014094682811	0.007588075881
23	19027	58.041010251446	0.007586431126
23	19032	58.062781221991	0.007585609016
23	19037	58.073550187426	0.007584787084
23	19042	58.086362200637	0.00758396533
23	19047	58.102684990799	0.007583143755
23	19052	58.119269776883	0.007582322357
23	19057	58.136290354655	0.007581501137
23	19062	58.147550894708	0.007581501137
23	19067	58.156321574599	0.007580680095
23	19072	58.189271637368	0.007579038545
23	19077	58.196850675913	0.01408972391
23	19082	58.208937429281	0.007578218036
23	19087	58.216515647317	0.011450201869
23	19092	58.233309331096	0.007576577552
23	19097	58.243434927045	0.007576577552
23	19102	58.269353549097	0.007574937777
23	19107	58.292048913567	0.007574118156
23	19112	58.299623031723	0.013239557916
23	19117	58.307196330436	0.007872337848
23	19122	58.320640482573	0.007572479446
23	19130	58.328212962019	0.013208878185
23	19132	58.335785441465	0.017498977018
23	19137	58.343357101822	0.015011043673
23	19142	58.367930664395	0.00757002271
23	19147	58.378598609533	0.00757002271
23	19152	58.389964449213	0.007569204152
23	19157	58.425896203132	0.007567567568
23	19165	58.4334637707	0.013985816315
23	19167	58.441030520241	0.018175346396
23	19172	58.459625529285	0.00756593169
23	19177	58.468618145284	0.007565114017
23	19185	58.476183259301	0.013175630899
23	19190	58.483748373318	0.018585981363
23	19192	58.491312669838	0.016655610246
23	19197	58.498876966358	0.009754087023
23	19205	58.506440445558	0.011588454014
23	19207	58.514003924758	0.017241009711
23	19212	58.530811085401	0.00756184509
23	19217	58.541898431376	0.00756184509
23	19222	58.559828258659	0.0075610283
23	19227	58.580089892147	0.007559395248
23	19232	58.59032597494	0.007559395248
23	19237	58.597885370188	0.007829337597
23	19242	58.605443949175	0.01145233587
23	19247	58.635070480889	0.007556946993
23	19252	58.642627427882	0.009182952271
23	19257	58.655854391298	0.007556131261
23	19268	58.663410522559	0.012556873703
23	19270	58.670965838263	0.019673402958
23	19272	58.678521153967	0.026933705061
23	19277	58.702904432769	0.007553685119
23	19282	58.713442856102	0.007552870091
23	19287	58.72122694529	0.007552870091
23	19292	58.728779815381	0.008108577351
23	19297	58.737278825509	0.007552055238
23	19302	58.744830880747	0.011457212885
23	19307	58.768784088375	0.00755042606
23	19312	58.790093298386	0.007549611734
23	19317	58.79764291012	0.012508612022
23	19322	58.870221246094	0.00754554274
23	19327	58.877766788834	0.013452754962
23	19332	58.886653014236	0.007544729468
23	19337	58.896534101464	0.00754391637
23	19342	58.907686278597	0.00754391637
23	19347	58.915230194967	0.010201830056
23	19352	58.922773298415	0.009864086111
23	19357	58.933371107307	0.007542290701
23	19362	58.95849286662	0.00754147813
23	19367	58.96603434475	0.013408680222
23	19375	58.973575010483	0.012230441017
23	19377	58.981115676216	0.017844260003
23	19382	58.99679833698	0.007539041465
23	19390	59.004337378445	0.014602088495
23	19392	59.01187641991	0.015378405242
23	19397	59.027932174751	0.007537417896
23	19405	59.035469592647	0.012679947379
23	19407	59.043007010543	0.015121061571
23	19412	59.050543616917	0.012898585154
23	19417	59.058080223291	0.010597417074
23	19425	59.065616829665	0.013326193025
23	19427	59.073152624691	0.018432177367
23	19432	59.097983146977	0.007534172855
23	19437	59.148956787141	0.007531740908
23	19442	59.203761131542	0.00752931053
23	19447	59.218083500358	0.007528500753
23	19455	59.225612001111	0.008653256503
23	19457	59.233139692261	0.015412993997
23	19462	59.248102590794	0.00752688172
23	19467	59.255629472514	0.01429114473
23	19473	59.266302802421	0.007526072465
23	19478	59.280225350169	0.007525263384
23	19483	59.287750613553	0.01161436226
23	19488	59.31507137122	0.007523645744
23	19493	59.327467968347	0.007522837184
23	19501	59.334990805531	0.012588756371
23	19503	59.342513642715	0.019519604909
23	19508	59.3839635028	0.007520412548
23	19513	59.391483915348	0.014144997656
23	19518	59.399003520032	0.00858187549
23	19523	59.406523124716	0.011011114092
23	19528	59.424638443652	0.007517989475
23	19533	59.432156433127	0.013414995633
23	19538	59.439682731083	0.007517989475
23	19543	59.447258557161	0.007517182131
23	19548	59.46424873114	0.00751637496
23	19553	59.476395078451	0.007515567962
23	19558	59.505852051394	0.007514761138
23	19563	59.513366812532	0.010579433197
23	19571	59.520880767019	0.013349872418
23	19576	59.528394721506	0.019829754916
23	19578	59.535907869515	0.021293408295
23	19583	59.54698356325	0.007512341704
23	19588	59.567846595739	0.007511535572
23	19596	59.575358131311	0.012351766345
23	19598	59.582868860925	0.018828582778
23	19603	59.599118737847	0.007509923828
23	19608	59.612786043693	0.007509118215
23	19613	59.620295161908	0.008519640529
23	19618	59.66751303548	0.007506702413
23	19623	59.689042353244	0.007505092742
23	19628	59.700180137278	0.007505092742
23	19633	59.713977778779	0.007504288165
23	19638	59.721482066944	0.013471955475
23	19643	59.728985550704	0.014648025444
23	19648	59.739846077715	0.007502679528
23	19653	59.747348757243	0.01447395985
23	19658	59.754851436771	0.013660863631
23	19663	59.763687774313	0.007501875469
23	19668	59.772163287005	0.007501071582
23	19673	59.779664358587	0.012394017156
23	19678	59.803901362743	0.007500267867
23	19683	59.843338458907	0.007497857755
23	19688	59.857806236667	0.007497054728
23	19693	59.881269790182	0.007496251874
23	19698	59.888766042056	0.014695078142
23	19703	59.911254863052	0.007494646681
23	19708	59.918749509733	0.009800987592
23	19716	59.926244156414	0.013458870119
23	19718	59.933738000756	0.016166112443
23	19729	59.941231845098	0.012809694609
23	19731	59.948724887273	0.01972239609
23	19733	59.956217929448	0.024659110511
23	19738	59.963710169628	0.014848748637
23	19743	59.979223441969	0.007491438356
23	19748	59.986714880325	0.008863205775
23	19753	59.994205517029	0.013317392294

