version 2
run non-monitoring-3-20210204-12:55:59-792
attr configname non-monitoring
attr datetime 20210204-12:55:59
attr experiment non-monitoring
attr inifile aerocom.ini
attr iterationvars ""
attr iterationvarsf ""
attr measurement ""
attr network Aerocom
attr processid 792
attr repetition 3
attr replication #3
attr resultdir results
attr runnumber 3
attr seedset 3
param **.t 1s
param **.k 1s
param **.nA 10
param **.nDL 10
param **.dataLink[*].s "70 byte"
param **.dataLink[*].X 5s
param **.dataLink[*].dimPoolMax 9000
param **.dataLink[*].dimPoolMin 9000
param **.dataLink[*].tDistribution "\"exponential\""
param **.aircraft[*].m 1s
param **.aircraft[*].linkSelector.DLMaxCapacity 0
param **.aircraft[*].linkSelector.trasmitting false
param **.operationMode 1

vector 0 Aerocom.aircraft[0].packetGenerator arrivalTime:vector ETV
attr "" ""
attr source computeArrivalTime
vector 1 Aerocom.aircraft[0].dataLink[0] serviceTime:vector ETV
attr "" ""
attr source computeServiceTime
vector 2 Aerocom.aircraft[0].dataLink[0] tDistribution:vector ETV
attr "" ""
attr source computeTDistribution
vector 3 Aerocom.aircraft[0].dataLink[1] serviceTime:vector ETV
attr "" ""
attr source computeServiceTime
vector 4 Aerocom.aircraft[0].dataLink[1] tDistribution:vector ETV
attr "" ""
attr source computeTDistribution
vector 5 Aerocom.aircraft[0].dataLink[2] serviceTime:vector ETV
attr "" ""
attr source computeServiceTime
vector 6 Aerocom.aircraft[0].dataLink[2] tDistribution:vector ETV
attr "" ""
attr source computeTDistribution
vector 7 Aerocom.aircraft[0].dataLink[3] serviceTime:vector ETV
attr "" ""
attr source computeServiceTime
vector 8 Aerocom.aircraft[0].dataLink[3] tDistribution:vector ETV
attr "" ""
attr source computeTDistribution
vector 9 Aerocom.aircraft[0].dataLink[4] serviceTime:vector ETV
attr "" ""
attr source computeServiceTime
vector 10 Aerocom.aircraft[0].dataLink[4] tDistribution:vector ETV
attr "" ""
attr source computeTDistribution
vector 11 Aerocom.aircraft[0].dataLink[5] serviceTime:vector ETV
attr "" ""
attr source computeServiceTime
vector 12 Aerocom.aircraft[0].dataLink[5] tDistribution:vector ETV
attr "" ""
attr source computeTDistribution
vector 13 Aerocom.aircraft[0].dataLink[6] serviceTime:vector ETV
attr "" ""
attr source computeServiceTime
vector 14 Aerocom.aircraft[0].dataLink[6] tDistribution:vector ETV
attr "" ""
attr source computeTDistribution
vector 15 Aerocom.aircraft[0].dataLink[7] serviceTime:vector ETV
attr "" ""
attr source computeServiceTime
vector 16 Aerocom.aircraft[0].dataLink[7] tDistribution:vector ETV
attr "" ""
attr source computeTDistribution
vector 17 Aerocom.aircraft[0].dataLink[8] serviceTime:vector ETV
attr "" ""
attr source computeServiceTime
vector 18 Aerocom.aircraft[0].dataLink[8] tDistribution:vector ETV
attr "" ""
attr source computeTDistribution
vector 19 Aerocom.aircraft[0].dataLink[9] serviceTime:vector ETV
attr "" ""
attr source computeServiceTime
vector 20 Aerocom.aircraft[0].dataLink[9] tDistribution:vector ETV
attr "" ""
attr source computeTDistribution
vector 21 Aerocom.aircraft[1].packetGenerator arrivalTime:vector ETV
attr "" ""
attr source computeArrivalTime
vector 22 Aerocom.aircraft[1].dataLink[0] serviceTime:vector ETV
attr "" ""
attr source computeServiceTime
vector 23 Aerocom.aircraft[1].dataLink[0] tDistribution:vector ETV
attr "" ""
attr source computeTDistribution
vector 24 Aerocom.aircraft[1].dataLink[1] serviceTime:vector ETV
attr "" ""
attr source computeServiceTime
vector 25 Aerocom.aircraft[1].dataLink[1] tDistribution:vector ETV
attr "" ""
attr source computeTDistribution
vector 26 Aerocom.aircraft[1].dataLink[2] serviceTime:vector ETV
attr "" ""
attr source computeServiceTime
vector 27 Aerocom.aircraft[1].dataLink[2] tDistribution:vector ETV
attr "" ""
attr source computeTDistribution
vector 28 Aerocom.aircraft[1].dataLink[3] serviceTime:vector ETV
attr "" ""
attr source computeServiceTime
vector 29 Aerocom.aircraft[1].dataLink[3] tDistribution:vector ETV
attr "" ""
attr source computeTDistribution
vector 30 Aerocom.aircraft[1].dataLink[4] serviceTime:vector ETV
attr "" ""
attr source computeServiceTime
vector 31 Aerocom.aircraft[1].dataLink[4] tDistribution:vector ETV
attr "" ""
attr source computeTDistribution
vector 32 Aerocom.aircraft[1].dataLink[5] serviceTime:vector ETV
attr "" ""
attr source computeServiceTime
vector 33 Aerocom.aircraft[1].dataLink[5] tDistribution:vector ETV
attr "" ""
attr source computeTDistribution
vector 34 Aerocom.aircraft[1].dataLink[6] serviceTime:vector ETV
attr "" ""
attr source computeServiceTime
vector 35 Aerocom.aircraft[1].dataLink[6] tDistribution:vector ETV
attr "" ""
attr source computeTDistribution
vector 36 Aerocom.aircraft[1].dataLink[7] serviceTime:vector ETV
attr "" ""
attr source computeServiceTime
vector 37 Aerocom.aircraft[1].dataLink[7] tDistribution:vector ETV
attr "" ""
attr source computeTDistribution
vector 38 Aerocom.aircraft[1].dataLink[8] serviceTime:vector ETV
attr "" ""
attr source computeServiceTime
vector 39 Aerocom.aircraft[1].dataLink[8] tDistribution:vector ETV
attr "" ""
attr source computeTDistribution
vector 40 Aerocom.aircraft[1].dataLink[9] serviceTime:vector ETV
attr "" ""
attr source computeServiceTime
vector 41 Aerocom.aircraft[1].dataLink[9] tDistribution:vector ETV
attr "" ""
attr source computeTDistribution
vector 42 Aerocom.aircraft[2].packetGenerator arrivalTime:vector ETV
attr "" ""
attr source computeArrivalTime
vector 43 Aerocom.aircraft[2].dataLink[0] serviceTime:vector ETV
attr "" ""
attr source computeServiceTime
vector 44 Aerocom.aircraft[2].dataLink[0] tDistribution:vector ETV
attr "" ""
attr source computeTDistribution
vector 45 Aerocom.aircraft[2].dataLink[1] serviceTime:vector ETV
attr "" ""
attr source computeServiceTime
vector 46 Aerocom.aircraft[2].dataLink[1] tDistribution:vector ETV
attr "" ""
attr source computeTDistribution
vector 47 Aerocom.aircraft[2].dataLink[2] serviceTime:vector ETV
attr "" ""
attr source computeServiceTime
vector 48 Aerocom.aircraft[2].dataLink[2] tDistribution:vector ETV
attr "" ""
attr source computeTDistribution
vector 49 Aerocom.aircraft[2].dataLink[3] serviceTime:vector ETV
attr "" ""
attr source computeServiceTime
vector 50 Aerocom.aircraft[2].dataLink[3] tDistribution:vector ETV
attr "" ""
attr source computeTDistribution
vector 51 Aerocom.aircraft[2].dataLink[4] serviceTime:vector ETV
attr "" ""
attr source computeServiceTime
vector 52 Aerocom.aircraft[2].dataLink[4] tDistribution:vector ETV
attr "" ""
attr source computeTDistribution
vector 53 Aerocom.aircraft[2].dataLink[5] serviceTime:vector ETV
attr "" ""
attr source computeServiceTime
vector 54 Aerocom.aircraft[2].dataLink[5] tDistribution:vector ETV
attr "" ""
attr source computeTDistribution
vector 55 Aerocom.aircraft[2].dataLink[6] serviceTime:vector ETV
attr "" ""
attr source computeServiceTime
vector 56 Aerocom.aircraft[2].dataLink[6] tDistribution:vector ETV
attr "" ""
attr source computeTDistribution
vector 57 Aerocom.aircraft[2].dataLink[7] serviceTime:vector ETV
attr "" ""
attr source computeServiceTime
vector 58 Aerocom.aircraft[2].dataLink[7] tDistribution:vector ETV
attr "" ""
attr source computeTDistribution
vector 59 Aerocom.aircraft[2].dataLink[8] serviceTime:vector ETV
attr "" ""
attr source computeServiceTime
vector 60 Aerocom.aircraft[2].dataLink[8] tDistribution:vector ETV
attr "" ""
attr source computeTDistribution
vector 61 Aerocom.aircraft[2].dataLink[9] serviceTime:vector ETV
attr "" ""
attr source computeServiceTime
vector 62 Aerocom.aircraft[2].dataLink[9] tDistribution:vector ETV
attr "" ""
attr source computeTDistribution
vector 63 Aerocom.aircraft[3].packetGenerator arrivalTime:vector ETV
attr "" ""
attr source computeArrivalTime
vector 64 Aerocom.aircraft[3].dataLink[0] serviceTime:vector ETV
attr "" ""
attr source computeServiceTime
vector 65 Aerocom.aircraft[3].dataLink[0] tDistribution:vector ETV
attr "" ""
attr source computeTDistribution
vector 66 Aerocom.aircraft[3].dataLink[1] serviceTime:vector ETV
attr "" ""
attr source computeServiceTime
vector 67 Aerocom.aircraft[3].dataLink[1] tDistribution:vector ETV
attr "" ""
attr source computeTDistribution
vector 68 Aerocom.aircraft[3].dataLink[2] serviceTime:vector ETV
attr "" ""
attr source computeServiceTime
vector 69 Aerocom.aircraft[3].dataLink[2] tDistribution:vector ETV
attr "" ""
attr source computeTDistribution
vector 70 Aerocom.aircraft[3].dataLink[3] serviceTime:vector ETV
attr "" ""
attr source computeServiceTime
vector 71 Aerocom.aircraft[3].dataLink[3] tDistribution:vector ETV
attr "" ""
attr source computeTDistribution
vector 72 Aerocom.aircraft[3].dataLink[4] serviceTime:vector ETV
attr "" ""
attr source computeServiceTime
vector 73 Aerocom.aircraft[3].dataLink[4] tDistribution:vector ETV
attr "" ""
attr source computeTDistribution
vector 74 Aerocom.aircraft[3].dataLink[5] serviceTime:vector ETV
attr "" ""
attr source computeServiceTime
vector 75 Aerocom.aircraft[3].dataLink[5] tDistribution:vector ETV
attr "" ""
attr source computeTDistribution
vector 76 Aerocom.aircraft[3].dataLink[6] serviceTime:vector ETV
attr "" ""
attr source computeServiceTime
vector 77 Aerocom.aircraft[3].dataLink[6] tDistribution:vector ETV
attr "" ""
attr source computeTDistribution
vector 78 Aerocom.aircraft[3].dataLink[7] serviceTime:vector ETV
attr "" ""
attr source computeServiceTime
vector 79 Aerocom.aircraft[3].dataLink[7] tDistribution:vector ETV
attr "" ""
attr source computeTDistribution
vector 80 Aerocom.aircraft[3].dataLink[8] serviceTime:vector ETV
attr "" ""
attr source computeServiceTime
vector 81 Aerocom.aircraft[3].dataLink[8] tDistribution:vector ETV
attr "" ""
attr source computeTDistribution
vector 82 Aerocom.aircraft[3].dataLink[9] serviceTime:vector ETV
attr "" ""
attr source computeServiceTime
vector 83 Aerocom.aircraft[3].dataLink[9] tDistribution:vector ETV
attr "" ""
attr source computeTDistribution
vector 84 Aerocom.aircraft[4].packetGenerator arrivalTime:vector ETV
attr "" ""
attr source computeArrivalTime
vector 85 Aerocom.aircraft[4].dataLink[0] serviceTime:vector ETV
attr "" ""
attr source computeServiceTime
vector 86 Aerocom.aircraft[4].dataLink[0] tDistribution:vector ETV
attr "" ""
attr source computeTDistribution
vector 87 Aerocom.aircraft[4].dataLink[1] serviceTime:vector ETV
attr "" ""
attr source computeServiceTime
vector 88 Aerocom.aircraft[4].dataLink[1] tDistribution:vector ETV
attr "" ""
attr source computeTDistribution
vector 89 Aerocom.aircraft[4].dataLink[2] serviceTime:vector ETV
attr "" ""
attr source computeServiceTime
vector 90 Aerocom.aircraft[4].dataLink[2] tDistribution:vector ETV
attr "" ""
attr source computeTDistribution
vector 91 Aerocom.aircraft[4].dataLink[3] serviceTime:vector ETV
attr "" ""
attr source computeServiceTime
vector 92 Aerocom.aircraft[4].dataLink[3] tDistribution:vector ETV
attr "" ""
attr source computeTDistribution
vector 93 Aerocom.aircraft[4].dataLink[4] serviceTime:vector ETV
attr "" ""
attr source computeServiceTime
vector 94 Aerocom.aircraft[4].dataLink[4] tDistribution:vector ETV
attr "" ""
attr source computeTDistribution
vector 95 Aerocom.aircraft[4].dataLink[5] serviceTime:vector ETV
attr "" ""
attr source computeServiceTime
vector 96 Aerocom.aircraft[4].dataLink[5] tDistribution:vector ETV
attr "" ""
attr source computeTDistribution
vector 97 Aerocom.aircraft[4].dataLink[6] serviceTime:vector ETV
attr "" ""
attr source computeServiceTime
vector 98 Aerocom.aircraft[4].dataLink[6] tDistribution:vector ETV
attr "" ""
attr source computeTDistribution
vector 99 Aerocom.aircraft[4].dataLink[7] serviceTime:vector ETV
attr "" ""
attr source computeServiceTime
vector 100 Aerocom.aircraft[4].dataLink[7] tDistribution:vector ETV
attr "" ""
attr source computeTDistribution
vector 101 Aerocom.aircraft[4].dataLink[8] serviceTime:vector ETV
attr "" ""
attr source computeServiceTime
vector 102 Aerocom.aircraft[4].dataLink[8] tDistribution:vector ETV
attr "" ""
attr source computeTDistribution
vector 103 Aerocom.aircraft[4].dataLink[9] serviceTime:vector ETV
attr "" ""
attr source computeServiceTime
vector 104 Aerocom.aircraft[4].dataLink[9] tDistribution:vector ETV
attr "" ""
attr source computeTDistribution
vector 105 Aerocom.aircraft[5].packetGenerator arrivalTime:vector ETV
attr "" ""
attr source computeArrivalTime
vector 106 Aerocom.aircraft[5].dataLink[0] serviceTime:vector ETV
attr "" ""
attr source computeServiceTime
vector 107 Aerocom.aircraft[5].dataLink[0] tDistribution:vector ETV
attr "" ""
attr source computeTDistribution
vector 108 Aerocom.aircraft[5].dataLink[1] serviceTime:vector ETV
attr "" ""
attr source computeServiceTime
vector 109 Aerocom.aircraft[5].dataLink[1] tDistribution:vector ETV
attr "" ""
attr source computeTDistribution
vector 110 Aerocom.aircraft[5].dataLink[2] serviceTime:vector ETV
attr "" ""
attr source computeServiceTime
vector 111 Aerocom.aircraft[5].dataLink[2] tDistribution:vector ETV
attr "" ""
attr source computeTDistribution
vector 112 Aerocom.aircraft[5].dataLink[3] serviceTime:vector ETV
attr "" ""
attr source computeServiceTime
vector 113 Aerocom.aircraft[5].dataLink[3] tDistribution:vector ETV
attr "" ""
attr source computeTDistribution
vector 114 Aerocom.aircraft[5].dataLink[4] serviceTime:vector ETV
attr "" ""
attr source computeServiceTime
vector 115 Aerocom.aircraft[5].dataLink[4] tDistribution:vector ETV
attr "" ""
attr source computeTDistribution
vector 116 Aerocom.aircraft[5].dataLink[5] serviceTime:vector ETV
attr "" ""
attr source computeServiceTime
vector 117 Aerocom.aircraft[5].dataLink[5] tDistribution:vector ETV
attr "" ""
attr source computeTDistribution
vector 118 Aerocom.aircraft[5].dataLink[6] serviceTime:vector ETV
attr "" ""
attr source computeServiceTime
vector 119 Aerocom.aircraft[5].dataLink[6] tDistribution:vector ETV
attr "" ""
attr source computeTDistribution
vector 120 Aerocom.aircraft[5].dataLink[7] serviceTime:vector ETV
attr "" ""
attr source computeServiceTime
vector 121 Aerocom.aircraft[5].dataLink[7] tDistribution:vector ETV
attr "" ""
attr source computeTDistribution
vector 122 Aerocom.aircraft[5].dataLink[8] serviceTime:vector ETV
attr "" ""
attr source computeServiceTime
vector 123 Aerocom.aircraft[5].dataLink[8] tDistribution:vector ETV
attr "" ""
attr source computeTDistribution
vector 124 Aerocom.aircraft[5].dataLink[9] serviceTime:vector ETV
attr "" ""
attr source computeServiceTime
vector 125 Aerocom.aircraft[5].dataLink[9] tDistribution:vector ETV
attr "" ""
attr source computeTDistribution
vector 126 Aerocom.aircraft[6].packetGenerator arrivalTime:vector ETV
attr "" ""
attr source computeArrivalTime
vector 127 Aerocom.aircraft[6].dataLink[0] serviceTime:vector ETV
attr "" ""
attr source computeServiceTime
vector 128 Aerocom.aircraft[6].dataLink[0] tDistribution:vector ETV
attr "" ""
attr source computeTDistribution
vector 129 Aerocom.aircraft[6].dataLink[1] serviceTime:vector ETV
attr "" ""
attr source computeServiceTime
vector 130 Aerocom.aircraft[6].dataLink[1] tDistribution:vector ETV
attr "" ""
attr source computeTDistribution
vector 131 Aerocom.aircraft[6].dataLink[2] serviceTime:vector ETV
attr "" ""
attr source computeServiceTime
vector 132 Aerocom.aircraft[6].dataLink[2] tDistribution:vector ETV
attr "" ""
attr source computeTDistribution
vector 133 Aerocom.aircraft[6].dataLink[3] serviceTime:vector ETV
attr "" ""
attr source computeServiceTime
vector 134 Aerocom.aircraft[6].dataLink[3] tDistribution:vector ETV
attr "" ""
attr source computeTDistribution
vector 135 Aerocom.aircraft[6].dataLink[4] serviceTime:vector ETV
attr "" ""
attr source computeServiceTime
vector 136 Aerocom.aircraft[6].dataLink[4] tDistribution:vector ETV
attr "" ""
attr source computeTDistribution
vector 137 Aerocom.aircraft[6].dataLink[5] serviceTime:vector ETV
attr "" ""
attr source computeServiceTime
vector 138 Aerocom.aircraft[6].dataLink[5] tDistribution:vector ETV
attr "" ""
attr source computeTDistribution
vector 139 Aerocom.aircraft[6].dataLink[6] serviceTime:vector ETV
attr "" ""
attr source computeServiceTime
vector 140 Aerocom.aircraft[6].dataLink[6] tDistribution:vector ETV
attr "" ""
attr source computeTDistribution
vector 141 Aerocom.aircraft[6].dataLink[7] serviceTime:vector ETV
attr "" ""
attr source computeServiceTime
vector 142 Aerocom.aircraft[6].dataLink[7] tDistribution:vector ETV
attr "" ""
attr source computeTDistribution
vector 143 Aerocom.aircraft[6].dataLink[8] serviceTime:vector ETV
attr "" ""
attr source computeServiceTime
vector 144 Aerocom.aircraft[6].dataLink[8] tDistribution:vector ETV
attr "" ""
attr source computeTDistribution
vector 145 Aerocom.aircraft[6].dataLink[9] serviceTime:vector ETV
attr "" ""
attr source computeServiceTime
vector 146 Aerocom.aircraft[6].dataLink[9] tDistribution:vector ETV
attr "" ""
attr source computeTDistribution
vector 147 Aerocom.aircraft[7].packetGenerator arrivalTime:vector ETV
attr "" ""
attr source computeArrivalTime
vector 148 Aerocom.aircraft[7].dataLink[0] serviceTime:vector ETV
attr "" ""
attr source computeServiceTime
vector 149 Aerocom.aircraft[7].dataLink[0] tDistribution:vector ETV
attr "" ""
attr source computeTDistribution
vector 150 Aerocom.aircraft[7].dataLink[1] serviceTime:vector ETV
attr "" ""
attr source computeServiceTime
vector 151 Aerocom.aircraft[7].dataLink[1] tDistribution:vector ETV
attr "" ""
attr source computeTDistribution
vector 152 Aerocom.aircraft[7].dataLink[2] serviceTime:vector ETV
attr "" ""
attr source computeServiceTime
vector 153 Aerocom.aircraft[7].dataLink[2] tDistribution:vector ETV
attr "" ""
attr source computeTDistribution
vector 154 Aerocom.aircraft[7].dataLink[3] serviceTime:vector ETV
attr "" ""
attr source computeServiceTime
vector 155 Aerocom.aircraft[7].dataLink[3] tDistribution:vector ETV
attr "" ""
attr source computeTDistribution
vector 156 Aerocom.aircraft[7].dataLink[4] serviceTime:vector ETV
attr "" ""
attr source computeServiceTime
vector 157 Aerocom.aircraft[7].dataLink[4] tDistribution:vector ETV
attr "" ""
attr source computeTDistribution
vector 158 Aerocom.aircraft[7].dataLink[5] serviceTime:vector ETV
attr "" ""
attr source computeServiceTime
vector 159 Aerocom.aircraft[7].dataLink[5] tDistribution:vector ETV
attr "" ""
attr source computeTDistribution
vector 160 Aerocom.aircraft[7].dataLink[6] serviceTime:vector ETV
attr "" ""
attr source computeServiceTime
vector 161 Aerocom.aircraft[7].dataLink[6] tDistribution:vector ETV
attr "" ""
attr source computeTDistribution
vector 162 Aerocom.aircraft[7].dataLink[7] serviceTime:vector ETV
attr "" ""
attr source computeServiceTime
vector 163 Aerocom.aircraft[7].dataLink[7] tDistribution:vector ETV
attr "" ""
attr source computeTDistribution
vector 164 Aerocom.aircraft[7].dataLink[8] serviceTime:vector ETV
attr "" ""
attr source computeServiceTime
vector 165 Aerocom.aircraft[7].dataLink[8] tDistribution:vector ETV
attr "" ""
attr source computeTDistribution
vector 166 Aerocom.aircraft[7].dataLink[9] serviceTime:vector ETV
attr "" ""
attr source computeServiceTime
vector 167 Aerocom.aircraft[7].dataLink[9] tDistribution:vector ETV
attr "" ""
attr source computeTDistribution
vector 168 Aerocom.aircraft[8].packetGenerator arrivalTime:vector ETV
attr "" ""
attr source computeArrivalTime
vector 169 Aerocom.aircraft[8].dataLink[0] serviceTime:vector ETV
attr "" ""
attr source computeServiceTime
vector 170 Aerocom.aircraft[8].dataLink[0] tDistribution:vector ETV
attr "" ""
attr source computeTDistribution
vector 171 Aerocom.aircraft[8].dataLink[1] serviceTime:vector ETV
attr "" ""
attr source computeServiceTime
vector 172 Aerocom.aircraft[8].dataLink[1] tDistribution:vector ETV
attr "" ""
attr source computeTDistribution
vector 173 Aerocom.aircraft[8].dataLink[2] serviceTime:vector ETV
attr "" ""
attr source computeServiceTime
vector 174 Aerocom.aircraft[8].dataLink[2] tDistribution:vector ETV
attr "" ""
attr source computeTDistribution
vector 175 Aerocom.aircraft[8].dataLink[3] serviceTime:vector ETV
attr "" ""
attr source computeServiceTime
vector 176 Aerocom.aircraft[8].dataLink[3] tDistribution:vector ETV
attr "" ""
attr source computeTDistribution
vector 177 Aerocom.aircraft[8].dataLink[4] serviceTime:vector ETV
attr "" ""
attr source computeServiceTime
vector 178 Aerocom.aircraft[8].dataLink[4] tDistribution:vector ETV
attr "" ""
attr source computeTDistribution
vector 179 Aerocom.aircraft[8].dataLink[5] serviceTime:vector ETV
attr "" ""
attr source computeServiceTime
vector 180 Aerocom.aircraft[8].dataLink[5] tDistribution:vector ETV
attr "" ""
attr source computeTDistribution
vector 181 Aerocom.aircraft[8].dataLink[6] serviceTime:vector ETV
attr "" ""
attr source computeServiceTime
vector 182 Aerocom.aircraft[8].dataLink[6] tDistribution:vector ETV
attr "" ""
attr source computeTDistribution
vector 183 Aerocom.aircraft[8].dataLink[7] serviceTime:vector ETV
attr "" ""
attr source computeServiceTime
vector 184 Aerocom.aircraft[8].dataLink[7] tDistribution:vector ETV
attr "" ""
attr source computeTDistribution
vector 185 Aerocom.aircraft[8].dataLink[8] serviceTime:vector ETV
attr "" ""
attr source computeServiceTime
vector 186 Aerocom.aircraft[8].dataLink[8] tDistribution:vector ETV
attr "" ""
attr source computeTDistribution
vector 187 Aerocom.aircraft[8].dataLink[9] serviceTime:vector ETV
attr "" ""
attr source computeServiceTime
vector 188 Aerocom.aircraft[8].dataLink[9] tDistribution:vector ETV
attr "" ""
attr source computeTDistribution
vector 189 Aerocom.aircraft[9].packetGenerator arrivalTime:vector ETV
attr "" ""
attr source computeArrivalTime
vector 190 Aerocom.aircraft[9].dataLink[0] serviceTime:vector ETV
attr "" ""
attr source computeServiceTime
vector 191 Aerocom.aircraft[9].dataLink[0] tDistribution:vector ETV
attr "" ""
attr source computeTDistribution
vector 192 Aerocom.aircraft[9].dataLink[1] serviceTime:vector ETV
attr "" ""
attr source computeServiceTime
vector 193 Aerocom.aircraft[9].dataLink[1] tDistribution:vector ETV
attr "" ""
attr source computeTDistribution
vector 194 Aerocom.aircraft[9].dataLink[2] serviceTime:vector ETV
attr "" ""
attr source computeServiceTime
vector 195 Aerocom.aircraft[9].dataLink[2] tDistribution:vector ETV
attr "" ""
attr source computeTDistribution
vector 196 Aerocom.aircraft[9].dataLink[3] serviceTime:vector ETV
attr "" ""
attr source computeServiceTime
vector 197 Aerocom.aircraft[9].dataLink[3] tDistribution:vector ETV
attr "" ""
attr source computeTDistribution
vector 198 Aerocom.aircraft[9].dataLink[4] serviceTime:vector ETV
attr "" ""
attr source computeServiceTime
vector 199 Aerocom.aircraft[9].dataLink[4] tDistribution:vector ETV
attr "" ""
attr source computeTDistribution
vector 200 Aerocom.aircraft[9].dataLink[5] serviceTime:vector ETV
attr "" ""
attr source computeServiceTime
vector 201 Aerocom.aircraft[9].dataLink[5] tDistribution:vector ETV
attr "" ""
attr source computeTDistribution
vector 202 Aerocom.aircraft[9].dataLink[6] serviceTime:vector ETV
attr "" ""
attr source computeServiceTime
vector 203 Aerocom.aircraft[9].dataLink[6] tDistribution:vector ETV
attr "" ""
attr source computeTDistribution
vector 204 Aerocom.aircraft[9].dataLink[7] serviceTime:vector ETV
attr "" ""
attr source computeServiceTime
vector 205 Aerocom.aircraft[9].dataLink[7] tDistribution:vector ETV
attr "" ""
attr source computeTDistribution
vector 206 Aerocom.aircraft[9].dataLink[8] serviceTime:vector ETV
attr "" ""
attr source computeServiceTime
vector 207 Aerocom.aircraft[9].dataLink[8] tDistribution:vector ETV
attr "" ""
attr source computeTDistribution
vector 208 Aerocom.aircraft[9].dataLink[9] serviceTime:vector ETV
attr "" ""
attr source computeServiceTime
vector 209 Aerocom.aircraft[9].dataLink[9] tDistribution:vector ETV
attr "" ""
attr source computeTDistribution
vector 210 Aerocom.aircraft[5].dataLink[0] queueLength:vector ETV
attr "" ""
attr source computeQueueLength
vector 211 Aerocom.aircraft[5].dataLink[0] waitingTime:vector ETV
attr "" ""
attr source computeWaitingTime
vector 212 Aerocom.aircraft[5].dataLink[0] responseTime:vector ETV
attr "" ""
attr source computeResponseTime
vector 213 Aerocom.aircraft[0].dataLink[0] queueLength:vector ETV
attr "" ""
attr source computeQueueLength
vector 214 Aerocom.aircraft[0].dataLink[0] waitingTime:vector ETV
attr "" ""
attr source computeWaitingTime
vector 215 Aerocom.aircraft[0].dataLink[0] responseTime:vector ETV
attr "" ""
attr source computeResponseTime
vector 216 Aerocom.aircraft[9].dataLink[0] queueLength:vector ETV
attr "" ""
attr source computeQueueLength
vector 217 Aerocom.aircraft[9].dataLink[0] waitingTime:vector ETV
attr "" ""
attr source computeWaitingTime
vector 218 Aerocom.aircraft[9].dataLink[0] responseTime:vector ETV
attr "" ""
attr source computeResponseTime
vector 219 Aerocom.aircraft[6].dataLink[0] queueLength:vector ETV
attr "" ""
attr source computeQueueLength
vector 220 Aerocom.aircraft[6].dataLink[0] waitingTime:vector ETV
attr "" ""
attr source computeWaitingTime
vector 221 Aerocom.aircraft[6].dataLink[0] responseTime:vector ETV
attr "" ""
attr source computeResponseTime
vector 222 Aerocom.aircraft[8].dataLink[0] queueLength:vector ETV
attr "" ""
attr source computeQueueLength
vector 223 Aerocom.aircraft[8].dataLink[0] waitingTime:vector ETV
attr "" ""
attr source computeWaitingTime
vector 224 Aerocom.aircraft[8].dataLink[0] responseTime:vector ETV
attr "" ""
attr source computeResponseTime
vector 225 Aerocom.aircraft[7].dataLink[0] queueLength:vector ETV
attr "" ""
attr source computeQueueLength
vector 226 Aerocom.aircraft[7].dataLink[0] waitingTime:vector ETV
attr "" ""
attr source computeWaitingTime
vector 227 Aerocom.aircraft[7].dataLink[0] responseTime:vector ETV
attr "" ""
attr source computeResponseTime
vector 228 Aerocom.aircraft[1].dataLink[0] queueLength:vector ETV
attr "" ""
attr source computeQueueLength
vector 229 Aerocom.aircraft[1].dataLink[0] waitingTime:vector ETV
attr "" ""
attr source computeWaitingTime
vector 230 Aerocom.aircraft[1].dataLink[0] responseTime:vector ETV
attr "" ""
attr source computeResponseTime
vector 231 Aerocom.aircraft[4].dataLink[0] queueLength:vector ETV
attr "" ""
attr source computeQueueLength
vector 232 Aerocom.aircraft[4].dataLink[0] waitingTime:vector ETV
attr "" ""
attr source computeWaitingTime
vector 233 Aerocom.aircraft[4].dataLink[0] responseTime:vector ETV
attr "" ""
attr source computeResponseTime
vector 234 Aerocom.aircraft[3].dataLink[0] queueLength:vector ETV
attr "" ""
attr source computeQueueLength
vector 235 Aerocom.aircraft[3].dataLink[0] waitingTime:vector ETV
attr "" ""
attr source computeWaitingTime
vector 236 Aerocom.aircraft[3].dataLink[0] responseTime:vector ETV
attr "" ""
attr source computeResponseTime
vector 237 Aerocom.aircraft[2].dataLink[0] queueLength:vector ETV
attr "" ""
attr source computeQueueLength
vector 238 Aerocom.aircraft[2].dataLink[0] waitingTime:vector ETV
attr "" ""
attr source computeWaitingTime
vector 239 Aerocom.aircraft[2].dataLink[0] responseTime:vector ETV
attr "" ""
attr source computeResponseTime
0	0	0	0.01042834482
0	106	0.01042834482	2.097370989888
0	450	2.107799334708	2.870102877233
0	857	4.977902211941	0.235047662003
0	993	5.212949873944	3.535163382318
0	1460	8.748113256262	0.207465401976
0	1496	8.955578658238	0.498865968319
0	1590	9.454444626557	1.041617913046
0	1725	10.496062539603	0.054518938282
0	1738	10.550581477885	0.516536944788
0	1846	11.067118422673	0.435280630167
0	1916	11.50239905284	1.196455747471
0	2108	12.698854800311	0.419774857321
0	2172	13.118629657632	1.307723776255
0	2383	14.426353433887	0.411076182833
0	2438	14.83742961672	0.144942242913
0	2459	14.982371859633	0.158747496732
0	2506	15.141119356365	0.149392697717
0	2527	15.290512054082	3.294989888653
0	3043	18.585501942735	2.305585362056
0	3373	20.891087304791	0.78661125619
0	3481	21.677698560981	0.737072534572
0	3595	22.414771095553	1.863964978878
0	3837	24.278736074431	0.821402513933
0	3969	25.100138588364	0.185048810409
0	3994	25.285187398773	0.303915877893
0	4055	25.589103276666	0.073369809238
0	4074	25.662473085904	0.332993939169
0	4114	25.995467025073	3.252222029651
0	4582	29.247689054724	1.090790882011
0	4730	30.338479936735	0.666256243645
0	4855	31.00473618038	2.509118998233
0	5218	33.513855178613	0.021208715611
0	5225	33.535063894224	0.146961754218
0	5253	33.682025648442	0.538638430605
0	5340	34.220664079047	0.588489730897
0	5419	34.809153809944	0.895879682253
0	5553	35.705033492197	0.181650262172
0	5573	35.886683754369	0.045228520161
0	5582	35.93191227453	0.641632875061
0	5683	36.573545149591	0.019050713337
0	5690	36.592595862928	2.489261181999
0	6018	39.081857044927	0.032962299786
0	6025	39.114819344713	0.369647032581
0	6112	39.484466377294	1.951649486579
0	6410	41.436115863873	1.123019871843
0	6555	42.559135735716	1.637097384348
0	6832	44.196233120064	2.568055511941
0	7217	46.764288632005	0.056240992435
0	7237	46.82052962444	2.542201017916
0	7676	49.362730642356	0.096342254127
0	7695	49.459072896483	0.135387620538
0	7720	49.594460517021	0.315980231742
0	7772	49.910440748763	0.750812210493
0	7894	50.661252959256	0.139472875287
0	7916	50.800725834543	1.148137757016
0	8096	51.948863591559	2.540754997852
0	8458	54.489618589411	0.703809433196
0	8599	55.193428022607	0.89152821084
0	8726	56.084956233447	0.895585595164
0	8866	56.980541828611	2.864464182975
0	9269	59.845006011586	1.471921615567
1	0	0	0.0077777777777778
1	108	0.01042834482	0.0077777777777778
1	452	2.107799334708	0.0077777777777778
1	859	4.977902211941	0.0077777777777778
1	995	5.212949873944	0.0077777777777778
1	1462	8.748113256262	0.0077777777777778
1	1498	8.955578658238	0.0077777777777778
1	1592	9.454444626557	0.0077777777777778
1	1727	10.496062539603	0.0077777777777778
1	1740	10.550581477885	0.0077777777777778
1	1848	11.067118422673	0.0077777777777778
1	1918	11.50239905284	0.0077777777777778
1	2110	12.698854800311	0.0077777777777778
1	2174	13.118629657632	0.0077777777777778
1	2385	14.426353433887	0.0077777777777778
1	2440	14.83742961672	0.0077777777777778
1	2461	14.982371859633	0.0077777777777778
1	2508	15.141119356365	0.0077777777777778
1	2529	15.290512054082	0.0077777777777778
1	3045	18.585501942735	0.0077777777777778
1	3375	20.891087304791	0.0077777777777778
1	3483	21.677698560981	0.0077777777777778
1	3597	22.414771095553	0.0077777777777778
1	3839	24.278736074431	0.0077777777777778
1	3971	25.100138588364	0.0077777777777778
1	3996	25.285187398773	0.0077777777777778
1	4057	25.589103276666	0.0077777777777778
1	4076	25.662473085904	0.0077777777777778
1	4116	25.995467025073	0.0077777777777778
1	4584	29.247689054724	0.0077777777777778
1	4732	30.338479936735	0.0077777777777778
1	4857	31.00473618038	0.0077777777777778
1	5220	33.513855178613	0.0077777777777778
1	5227	33.535063894224	0.0077777777777778
1	5255	33.682025648442	0.0077777777777778
1	5342	34.220664079047	0.0077777777777778
1	5421	34.809153809944	0.0077777777777778
1	5555	35.705033492197	0.0077777777777778
1	5575	35.886683754369	0.0077777777777778
1	5584	35.93191227453	0.0077777777777778
1	5685	36.573545149591	0.0077777777777778
1	5692	36.592595862928	0.0077777777777778
1	6020	39.081857044927	0.0077777777777778
1	6027	39.114819344713	0.0077777777777778
1	6114	39.484466377294	0.0077777777777778
1	6412	41.436115863873	0.0077777777777778
1	6557	42.559135735716	0.0077777777777778
1	6834	44.196233120064	0.0077777777777778
1	7219	46.764288632005	0.0077777777777778
1	7239	46.82052962444	0.0077777777777778
1	7678	49.362730642356	0.0077777777777778
1	7697	49.459072896483	0.0077777777777778
1	7722	49.594460517021	0.0077777777777778
1	7774	49.910440748763	0.0077777777777778
1	7896	50.661252959256	0.0077777777777778
1	7918	50.800725834543	0.0077777777777778
1	8098	51.948863591559	0.0077777777777778
1	8460	54.489618589411	0.0077777777777778
1	8601	55.193428022607	0.0077777777777778
1	8728	56.084956233447	0.0077777777777778
1	8868	56.980541828611	0.0077777777777778
1	9271	59.845006011586	0.0077777777777778
2	0	0	0.19877988817374
2	152	0.198779888174	0.44384933983179
2	236	0.642629228006	0.79625466822216
2	366	1.438883896228	0.73190410354563
2	461	2.170787999774	1.3329791014808
2	630	3.503767101255	0.26694982653432
2	670	3.770716927789	0.38231794946855
2	718	4.153034877258	1.0450633612866
2	992	5.198098238545	1.7916189685993
2	1225	6.989717207144	0.76477216339799
2	1313	7.754489370542	0.45276277487807
2	1385	8.20725214542	0.054830050229283
2	1390	8.262082195649	3.5151558817896
2	1959	11.777238077439	2.2118653825681
2	2313	13.989103460007	1.1925292884337
2	2513	15.181632748441	0.53749950481184
2	2604	15.719132253253	1.6635172612535
2	2868	17.382649514507	0.46113170004884
2	2940	17.843781214556	0.80892790836678
2	3053	18.652709122923	0.26889377904574
2	3102	18.921602901969	0.88828151723563
2	3229	19.809884419205	0.26669434103042
2	3257	20.076578760235	0.10458882659668
2	3270	20.181167586832	0.2434786164847
2	3296	20.424646203317	0.10916974976574
2	3310	20.533815953083	0.36584085279085
2	3379	20.899656805874	0.29611099529288
2	3429	21.195767801167	0.93483794704508
2	3559	22.130605748212	1.1144495449483
2	3705	23.24505529316	2.9843863271222
2	4136	26.229441620282	0.26673812249665
2	4173	26.496179742779	0.24419599348263
2	4205	26.740375736262	1.5307599125332
2	4422	28.271135648795	1.2692911514107
2	4620	29.540426800206	0.69610208553245
2	4706	30.236528885738	0.11967934472822
2	4736	30.356208230466	0.22052272388283
2	4787	30.576730954349	0.072176926641991
2	4796	30.648907880991	0.6814283024723
2	4911	31.330336183463	0.18512899731921
2	4948	31.515465180782	1.3789107714626
2	5134	32.894375952245	0.62256287142818
2	5222	33.516938823673	0.12982759375828
2	5248	33.646766417431	0.36115489594552
2	5306	34.007921313377	1.3169229589141
2	5488	35.324844272291	0.85764419022082
2	5617	36.182488462512	1.9505424542163
2	5890	38.133030916728	3.0312069191032
2	6375	41.164237835831	2.7866514772587
2	6797	43.95088931309	0.018210030111649
2	6800	43.969099343202	0.29583843359367
2	6843	44.264937776796	0.58903843922346
2	6920	44.853976216019	0.34930485634332
2	6978	45.203281072362	0.19820559477495
2	7006	45.401486667137	0.014684872612461
2	7008	45.416171539749	2.9092154780279
2	7486	48.325387017777	0.1668750946209
2	7510	48.492262112398	1.1683295692506
2	7730	49.660591681649	2.0520002110326
2	8057	51.712591892682	0.046528980586181
2	8066	51.759120873268	0.1119474319553
2	8085	51.871068305223	0.41739759047676
2	8163	52.2884658957	1.0043437310776
2	8281	53.292809626778	0.47724973443445
2	8326	53.770059361212	1.3773089827843
2	8589	55.147368343996	1.9315494160968
2	8886	57.078917760093	1.5800506136823
2	9081	58.658968373775	0.088283763936643
2	9103	58.747252137712	0.51020026727584
2	9196	59.257452404988	0.84086145954189
3	0	0	0.0077777777777778
4	0	0	0.070751754744851
4	127	0.070751754745	5.0997629911756
4	988	5.170514745921	3.8782885631273
4	1521	9.048803309048	0.42607253049903
4	1598	9.474875839547	0.70197539440977
4	1680	10.176851233957	0.01465304262901
4	1686	10.191504276586	0.092784145718396
4	1709	10.284288422304	0.49146591451773
4	1781	10.775754336822	0.26727046635462
4	1843	11.043024803177	1.6816790740948
4	2116	12.724703877272	0.73715193451672
4	2226	13.461855811789	1.2143330049543
4	2414	14.676188816743	2.9619915913
4	2919	17.638180408043	4.3863964568363
4	3549	22.024576864879	4.2226959627384
4	4137	26.247272827617	0.040440060570351
4	4140	26.287712888187	0.84852658224268
4	4267	27.13623947043	0.44841095960595
4	4315	27.584650430036	0.75365103773631
4	4431	28.338301467772	1.0812574522934
4	4613	29.419558920065	1.7294585502898
4	4890	31.149017470355	0.53449900629322
4	4965	31.683516476648	1.7001030212239
4	5200	33.383619497872	2.2090655258487
4	5527	35.592685023721	2.2836153467874
4	5852	37.876300370508	1.5883718342154
4	6104	39.464672204723	1.6040783877486
4	6358	41.068750592472	0.061790002171951
4	6369	41.130540594644	0.2774382046749
4	6407	41.407978799319	1.188217598355
4	6568	42.596196397674	2.8573168750621
4	7022	45.453513272736	0.60799315065948
4	7130	46.061506423395	2.4149625492043
4	7508	48.476468972599	0.11120055683888
4	7527	48.587669529438	3.3047762847307
4	8088	51.892445814169	2.5388506452717
4	8451	54.431296459441	1.0769138778717
4	8650	55.508210337313	2.5221076648694
4	9012	58.030318002182	2.2345846915939
5	0	0	0.0077777777777778
6	0	0	0.019667381507874
6	117	0.019667381508	0.44860782272385
6	209	0.468275204232	0.94580191175549
6	364	1.414077115987	0.33693488200154
6	405	1.751011997989	0.27226302575806
6	435	2.023275023747	0.32344049781518
6	488	2.346715521562	1.0583289650098
6	623	3.405044486572	0.75876095877515
6	721	4.163805445347	1.3531638036125
6	1027	5.51696924896	2.1371100528578
6	1298	7.654079301818	1.6687550784647
6	1561	9.322834380283	0.69768091341051
6	1659	10.020515293694	0.90561704326911
6	1813	10.926132336963	1.0840978287192
6	2003	12.010230165682	0.48055649543538
6	2079	12.490786661117	0.40731198327642
6	2145	12.898098644393	0.1934907554373
6	2170	13.09158939983	0.50137409649378
6	2243	13.592963496324	0.21148217229189
6	2292	13.804445668616	2.2413829926837
6	2651	16.0458286613	0.63626723226198
6	2772	16.682095893562	0.019075688734314
6	2775	16.701171582296	0.52966258550072
6	2847	17.230834167797	1.334481343325
6	3040	18.565315511122	0.28498499688549
6	3080	18.850300508007	1.988754218261
6	3367	20.839054726268	0.52110201073707
6	3444	21.360156737005	0.70080908434365
6	3553	22.060965821349	1.171832847768
6	3704	23.232798669117	0.27653940382238
6	3744	23.509338072939	1.0298834431467
6	3880	24.539221516086	0.44406951780408
6	3945	24.98329103389	0.5826203633554
6	4050	25.565911397245	0.28089803920734
6	4099	25.846809436452	0.61973166990408
6	4165	26.466541106356	4.3039550648923
6	4827	30.770496171248	0.74052899584945
6	4944	31.511025167097	1.0586516573867
6	5092	32.569676824484	0.3084267325541
6	5130	32.878103557038	0.71616404850732
6	5241	33.594267605545	0.26056972863934
6	5281	33.854837334184	3.8602129270399
6	5837	37.715050261224	2.7717917532743
6	6261	40.486842014498	0.28336850158133
6	6309	40.770210516079	0.755182603312
6	6425	41.525393119391	1.0777473181142
6	6569	42.603140437505	0.24180731238418
6	6591	42.844947749889	0.40014743086804
6	6658	43.245095180757	1.0695754702258
6	6852	44.314670650983	1.389021741087
6	7074	45.70369239207	1.8371980561905
6	7352	47.540890448261	0.054288012697098
6	7355	47.595178460958	1.5865105373638
6	7645	49.181688998322	0.097211869509344
6	7656	49.278900867831	0.162949821901
6	7692	49.441850689732	0.11424852376971
6	7712	49.556099213502	1.9943007194011
6	8025	51.550399932903	3.6729318523242
6	8607	55.223331785227	1.8358686907004
6	8884	57.059200475927	0.24459035973991
6	8920	57.303790835667	1.1474170598657
6	9059	58.451207895533	3.2314623948012
7	0	0	0.0077777777777778
8	0	0	1.0927902239679
8	316	1.092790223968	0.24590485339701
8	349	1.338695077365	0.98617100513666
8	485	2.324866082502	0.6054986403983
8	564	2.9303647229	0.3726247133898
8	606	3.30298943629	0.059812633319549
8	614	3.36280206961	3.3728496078974
8	1189	6.735651677507	1.638008797268
8	1408	8.373660474775	1.1036559391432
8	1599	9.477316413918	0.038669424406435
8	1602	9.515985838324	2.0505974247176
8	1932	11.566583263042	4.401827193691
8	2643	15.968410456733	0.32056205028764
8	2693	16.288972507021	1.8669772334319
8	2973	18.155949740453	2.005410547364
8	3268	20.161360287817	1.183402989746
8	3441	21.344763277563	2.8158521717726
8	3826	24.160615449336	0.091895937726778
8	3835	24.252511387063	2.030057133661
8	4138	26.282568520724	3.3994123907409
8	4639	29.681980911465	0.069628890436418
8	4649	29.751609801901	0.98409601201058
8	4821	30.735705813912	0.14935397351057
8	4844	30.885059787423	1.4441424375159
8	5062	32.329202224939	0.20930545636662
8	5079	32.538507681306	2.4416567678188
8	5448	34.980164449125	0.64123873622523
8	5533	35.62140318535	0.010466351752895
8	5535	35.631869537103	0.066295453459216
8	5551	35.698164990562	0.61996554958345
8	5630	36.318130540145	2.2580957786634
8	5961	38.576226318808	0.40349768017622
8	6011	38.979723998984	0.53243223081655
8	6119	39.512156229801	1.2120234651766
8	6298	40.724179694978	1.4915275147298
8	6514	42.215707209708	0.88287088308261
8	6630	43.098578092791	1.297859363828
8	6861	44.396437456619	0.22233843538105
8	6894	44.618775892	0.02805930925605
8	6898	44.646835201256	1.1813420838912
8	7102	45.828177285147	0.96384607041736
8	7230	46.792023355564	1.0656857461923
8	7390	47.857709101756	0.36427458991683
8	7457	48.221983691673	0.86226039336133
8	7627	49.084244085034	3.1681131006836
8	8156	52.252357185718	0.2200605020503
8	8177	52.472417687768	0.20635211863512
8	8195	52.678769806403	0.8588907393493
8	8308	53.537660545752	0.54936830155619
8	8384	54.087028847308	0.24810985931116
8	8431	54.335138706619	2.125222827022
8	8785	56.460361533641	0.17234475897024
8	8813	56.632706292611	0.013041269056995
8	8814	56.645747561668	0.96036422722882
8	8940	57.606111788897	0.67121033085386
8	9047	58.277322119751	0.20509679005948
8	9063	58.48241890981	0.14972661502338
8	9078	58.632145524833	1.2709113829022
8	9284	59.903056907735	1.1513576192341
9	0	0	0.0077777777777778
10	0	0	0.62216421145057
10	230	0.622164211451	0.60286629620259
10	330	1.225030507654	0.089590854708997
10	345	1.314621362363	0.3137571506027
10	386	1.628378512966	1.8368746254136
10	628	3.46525313838	0.25313698508076
10	666	3.718390123461	0.25892177281072
10	693	3.977311896272	0.40119738673586
10	774	4.378509283008	0.11114841326229
10	790	4.48965769627	0.88101847521855
10	1008	5.370676171489	1.4372948678126
10	1195	6.807971039302	1.5038460409876
10	1399	8.31181708029	0.37058917689825
10	1450	8.682406257188	1.7900112238588
10	1720	10.472417481047	0.12374694759471
10	1747	10.596164428642	2.2000748961934
10	2132	12.796239324835	0.96975642922355
10	2281	13.765995754059	1.0022396011062
10	2433	14.768235355165	1.2883370858382
10	2652	16.056572441003	0.57059253560074
10	2756	16.627164976604	0.84379925502678
10	2884	17.470964231631	0.76465914106383
10	2982	18.235623372695	1.9685096368862
10	3280	20.204133009581	1.301816398529
10	3460	21.50594940811	0.34076748558164
10	3524	21.846716893692	3.1371240871639
10	3946	24.983840980856	0.41537828484943
10	4031	25.399219265705	2.1908443840607
10	4318	27.590063649766	1.3121296484176
10	4533	28.902193298184	0.22112387509354
10	4565	29.123317173278	0.052006326267391
10	4571	29.175323499545	1.0520550637692
10	4705	30.227378563314	2.6228231838913
10	5126	32.850201747205	0.62635493692688
10	5210	33.476556684132	2.2743283029856
10	5560	35.750884987118	1.5026347230958
10	5797	37.253519710214	0.54041502482275
10	5847	37.793934735037	1.1382778185733
10	6004	38.93221255361	2.6331400234699
10	6428	41.56535257708	0.22886697694298
10	6453	41.794219554023	0.079668259491947
10	6471	41.873887813515	1.5027953486475
10	6669	43.376683162162	0.10869397501165
10	6709	43.485377137174	0.53863105959243
10	6804	44.024008196766	0.084730254418297
10	6819	44.108738451184	1.6668272526187
10	7091	45.775565703803	2.1461335433121
10	7404	47.921699247115	0.68369049618157
10	7529	48.605389743297	1.1824075656239
10	7760	49.787797308921	0.24635897314643
10	7809	50.034156282067	2.5294425736794
10	8188	52.563598855746	0.53802964809755
10	8256	53.101628503844	2.5520654205225
10	8671	55.653693924367	1.2082092393796
10	8841	56.861903163747	0.93372436168382
10	8968	57.795627525431	0.57365877988411
10	9051	58.369286305315	0.080970290808638
10	9058	58.450256596124	0.54000901513732
10	9142	58.990265611261	1.5554584745467
11	0	0	0.0077777777777778
12	0	0	0.21581499805133
12	155	0.215814998051	0.17265215914776
12	188	0.388467157199	1.3403754351978
12	396	1.728842592397	0.37641005917311
12	449	2.10525265157	0.44626364683142
12	512	2.551516298401	0.054405361488727
12	520	2.60592165989	1.2246777917109
12	677	3.830599451601	1.4225024485221
12	1005	5.253101900123	0.29987494146211
12	1029	5.552976841585	1.5154214937439
12	1234	7.068398335329	0.36372856563663
12	1268	7.432126900966	1.6655303804423
12	1534	9.097657281408	0.73942055784592
12	1644	9.837077839254	3.9940731183074
12	2297	13.831150957561	1.2758643802222
12	2502	15.107015337783	1.4313351092543
12	2742	16.538350447037	0.54387659775638
12	2831	17.082227044793	1.4308905066383
12	3018	18.513117551431	1.21126136984
12	3213	19.724378921271	0.22248504977052
12	3246	19.946863971042	3.4910305706947
12	3733	23.437894541737	1.8917570639957
12	4010	25.329651605733	1.719574053755
12	4262	27.049225659488	0.35800071462808
12	4296	27.407226374116	1.661838289745
12	4557	29.069064663861	4.4739942948199
12	5234	33.543058958681	0.59736894537425
12	5325	34.140427904055	0.6097998211108
12	5410	34.750227725166	0.24010598165993
12	5449	34.990333706826	0.46281786719006
12	5505	35.453151574016	0.11217948921416
12	5523	35.56533106323	0.68080430059703
12	5621	36.246135363827	0.70132248566379
12	5746	36.947457849491	0.43362117050336
12	5810	37.381079019994	0.7857271061733
12	5895	38.166806126167	0.11751136231589
12	5917	38.284317488483	0.2127100698697
12	5951	38.497027558353	0.42134185746563
12	6001	38.918369415819	1.8168955262136
12	6305	40.735264942033	0.83823875541751
12	6433	41.573503697451	1.0706109239048
12	6577	42.644114621356	2.0872299444418
12	6906	44.731344565798	0.24019966451661
12	6945	44.971544230315	1.6502842718042
12	7198	46.621828502119	0.43766118550443
12	7282	47.059489687623	1.8572313308703
12	7596	48.916721018493	1.0073776123028
12	7780	49.924098630796	0.83206997259288
12	7907	50.756168603389	0.38368570322457
12	7951	51.139854306614	0.16942883607964
12	7979	51.309283142694	2.5560113546468
12	8340	53.865294497341	2.1414242598867
12	8714	56.006718757228	0.37560451696949
12	8771	56.382323274197	0.41168983575487
12	8834	56.794013109952	1.1470294189654
12	9001	57.941042528917	3.725919843182
13	0	0	0.0077777777777778
14	0	0	1.2907439386038
14	341	1.290743938604	3.6484386711664
14	849	4.93918260977	0.47398724197139
14	1016	5.413169851741	0.51249139815879
14	1085	5.9256612499	0.76731870689616
14	1180	6.692979956796	0.810587412067
14	1278	7.503567368863	0.23525347710071
14	1311	7.738820845964	0.025291695377518
14	1315	7.764112541342	1.0092297542832
14	1467	8.773342295625	0.94112455160904
14	1628	9.714466847234	0.55630891114267
14	1704	10.270775758377	2.1625353648479
14	2074	12.433311123225	0.32034904257151
14	2126	12.753660165797	0.24379245397289
14	2154	12.99745261977	0.1468840333943
14	2178	13.144336653164	1.2566150161195
14	2382	14.400951669284	2.8003965076555
14	2845	17.201348176939	1.0439188288071
14	2983	18.245267005746	1.5119665017267
14	3217	19.757233507473	0.42973248815478
14	3272	20.186965995628	2.9141223207754
14	3691	23.101088316403	2.6064920675379
14	4082	25.707580383941	1.6294077936628
14	4286	27.336988177604	0.79734938097985
14	4397	28.134337558584	1.6560237928827
14	4656	29.790361351467	3.0879755749057
14	5131	32.878336926373	0.11167497461226
14	5151	32.990011900985	0.73419094276202
14	5263	33.724202843747	3.1161387489775
14	5731	36.840341592725	0.44629698577056
14	5799	37.286638578496	1.2155009862066
14	5952	38.502139564703	0.12462322236662
14	5966	38.62676278707	0.040530459848928
14	5972	38.667293246919	1.5496573882058
14	6199	40.216950635125	1.6646461508547
14	6472	41.88159678598	0.31333366553519
14	6509	42.194930451515	5.0008087097731
14	7301	47.195739161288	0.96158251359399
14	7450	48.157321674882	0.85360570406028
14	7616	49.010927378942	0.92963325552233
14	7782	49.940560634464	0.082321450703904
14	7807	50.022882085168	1.1629562419218
14	7955	51.18583832709	0.12358325132761
14	7980	51.309421578418	1.6530954213505
14	8229	52.962516999768	1.8519759384418
14	8514	54.81449293821	0.062225940470104
14	8527	54.87671887868	0.44849696386434
14	8613	55.325215842544	1.6962488625614
14	8877	57.021464705105	1.1906571794076
14	9034	58.212121884513	0.72268298071627
14	9127	58.934804865229	2.270241873535
15	0	0	0.0077777777777778
16	0	0	2.6075212987799
16	521	2.60752129878	0.27394749844421
16	557	2.881468797224	0.28557720389302
16	591	3.167046001117	0.45092082020766
16	643	3.617966821325	4.1422329876776
16	1314	7.760199809003	1.2215080907271
16	1506	8.98170789973	0.071479113642244
16	1524	9.053187013372	0.1237367050883
16	1543	9.17692371846	1.4906142097552
16	1767	10.667537928215	3.6250436551418
16	2353	14.292581583357	0.44338138526305
16	2429	14.73596296862	0.50609366932243
16	2521	15.242056637942	0.10735793048849
16	2549	15.34941456843	1.2955870246064
16	2763	16.645001593036	0.034844688578567
16	2770	16.679846281615	0.1717159848114
16	2801	16.851562266426	2.7829695664249
16	3199	19.634531832851	0.62440672145884
16	3283	20.25893855431	1.6806600024148
16	3542	21.939598556725	1.7295544289538
16	3761	23.669152985679	1.0103871915575
16	3894	24.679540177237	0.79566252147566
16	4041	25.475202698713	1.5654861825778
16	4259	27.040688881291	0.46157505706726
16	4310	27.502263938358	0.47053460282063
16	4371	27.972798541179	2.1946702522658
16	4700	30.167468793445	0.76054439235889
16	4851	30.928013185804	0.051115332568023
16	4852	30.979128518372	0.15345534570689
16	4882	31.132583864079	0.48948285114753
16	4956	31.622066715227	0.067552932798233
16	4966	31.689619648025	0.49789750785355
16	5044	32.187517155879	4.306644387446
16	5668	36.494161543325	2.3465919641938
16	5988	38.840753507519	0.53635371989424
16	6073	39.377107227413	2.9882123281159
16	6526	42.365319555529	1.2166200009529
16	6722	43.581939556482	2.4109935073424
16	7121	45.992933063824	0.36784022727488
16	7160	46.360773291099	0.69171363560434
16	7281	47.052486926703	0.26491178580993
16	7320	47.317398712513	0.84059532863167
16	7451	48.157994041145	1.9074022555096
16	7812	50.065396296655	0.5389917052312
16	7892	50.604388001886	0.80565788044253
16	7998	51.410045882329	0.94426272100234
16	8168	52.354308603331	0.021098298130407
16	8170	52.375406901461	0.11436977562396
16	8179	52.489776677085	1.7271822107111
16	8407	54.216958887796	0.82655036808689
16	8562	55.043509255883	1.0885499992747
16	8737	56.132059255158	0.29405192838289
16	8777	56.426111183541	0.0062580516537016
16	8778	56.432369235195	0.54045315819051
16	8865	56.972822393386	3.224417268325
17	0	0	0.0077777777777778
18	0	0	0.54507827851415
18	214	0.545078278514	0.34314043029589
18	293	0.88821870881	0.40659008204422
18	342	1.294808790854	0.5672831001681
18	411	1.862091891022	0.90507063546827
18	535	2.76716252649	3.2541862017122
18	1097	6.021348728202	1.2786028966404
18	1256	7.299951624842	0.95624619927521
18	1389	8.256197824117	1.1367265738116
18	1577	9.392924397929	0.86966451665149
18	1696	10.26258891458	4.9989815571878
18	2523	15.261570471768	0.16872892471505
18	2556	15.430299396483	1.5429240752758
18	2815	16.973223471759	0.13329945634062
18	2834	17.1065229281	2.7656403667241
18	3236	19.872163294824	0.28963010561318
18	3269	20.161793400437	2.9492731129381
18	3693	23.111066513375	0.13724880732497
18	3706	23.2483153207	2.7565828124868
18	4120	26.004898133187	0.35327550498376
18	4150	26.358173638171	0.56689217898897
18	4241	26.92506581716	0.87270423890547
18	4349	27.797770056065	0.20191431378003
18	4377	27.999684369845	0.0063840261288499
18	4380	28.006068395974	1.3546919854506
18	4602	29.360760381425	0.48428176338471
18	4661	29.84504214481	0.90415684272762
18	4824	30.749198987538	1.0888912658001
18	4986	31.838090253338	0.64050671811162
18	5069	32.47859697145	0.46152857071063
18	5141	32.940125542161	1.0499319391806
18	5304	33.990057481342	0.89240125730931
18	5440	34.882458738651	1.2436751719307
18	5607	36.126133910582	0.51244418490263
18	5704	36.638578095485	0.33622503111717
18	5748	36.974803126602	1.0378384877727
18	5872	38.012641614375	0.77271407632816
18	5981	38.785355690703	1.5184907667788
18	6214	40.303846457482	0.30092731219893
18	6281	40.604773769681	0.21513367267313
18	6326	40.819907442354	0.67520839693611
18	6424	41.49511583929	0.54246412997911
18	6481	42.037579969269	1.1652496854964
18	6644	43.202829654765	0.81066942099931
18	6803	44.013499075764	1.1517544722755
18	6964	45.16525354804	2.5757934718338
18	7376	47.741047019874	0.70808806457802
18	7502	48.449135084452	0.88575034147297
18	7669	49.334885425925	0.22074920645014
18	7711	49.555634632375	0.38276763766702
18	7781	49.938402270042	3.914998952611
18	8337	53.853401222653	0.0086437864312077
18	8339	53.862045009084	3.0328543661605
18	8845	56.894899375244	0.14361238845273
18	8881	57.038511763697	0.18058116524689
18	8907	57.219092928944	1.0179041983455
18	9039	58.236997127289	1.3366606488118
18	9243	59.573657776101	0.22611241513819
18	9259	59.799770191239	0.61044355311091
19	0	0	0.0077777777777778
20	0	0	0.11112728270965
20	134	0.11112728271	1.2078612656432
20	346	1.318988548353	0.36401747580634
20	391	1.683006024159	0.53469654707385
20	471	2.217702571233	0.056660132481977
20	477	2.274362703715	0.28475255875747
20	514	2.559115262472	1.7817691944155
20	761	4.340884456887	0.12240723566403
20	787	4.463291692551	0.028349334241326
20	791	4.491641026792	2.2118728802154
20	1185	6.703513907007	0.98404895513223
20	1303	7.687562862139	0.17721552676791
20	1329	7.864778388907	0.27703345164084
20	1378	8.141811840548	0.7397887263185
20	1481	8.881600566866	0.47331423333241
20	1570	9.354914800198	1.0772647986199
20	1717	10.432179598818	0.77892683698394
20	1887	11.211106435802	2.5993087912216
20	2293	13.810415227024	1.795119110627
20	2589	15.605534337651	0.54449793606579
20	2668	16.150032273717	0.50574173226628
20	2764	16.655774005983	0.39634702908999
20	2826	17.052121035073	0.075680271452301
20	2835	17.127801306525	1.3320134881601
20	3010	18.459814794685	0.5635596232025
20	3120	19.023374417887	0.25641937222451
20	3163	19.279793790112	0.63220880616849
20	3242	19.91200259628	1.3525414052708
20	3436	21.264544001551	1.2897513814079
20	3638	22.554295382959	0.93991962800611
20	3741	23.494215010965	0.56144424154024
20	3812	24.055659252505	0.78313886112147
20	3909	24.838798113626	0.25500323921588
20	3967	25.093801352842	1.2395197846326
20	4146	26.333321137475	0.89452408320608
20	4281	27.227845220681	1.0459847042674
20	4423	28.273829924948	1.6136769799047
20	4665	29.887506904853	0.37165770997516
20	4710	30.259164614828	0.61919495270242
20	4842	30.87835956753	3.6381945188696
20	5377	34.5165540864	0.75081580273149
20	5478	35.267369889131	0.34653006241528
20	5532	35.613899951546	0.030712069076096
20	5540	35.644612020622	0.094610929813596
20	5558	35.739222950436	1.9998363131547
20	5842	37.739059263591	0.90032481625074
20	5967	38.639384079842	0.57716619669997
20	6045	39.216550276542	0.24291018176649
20	6102	39.459460458308	1.2234255358125
20	6289	40.682885994121	0.1860903549978
20	6331	40.868976349119	0.096842973231398
20	6346	40.96581932235	0.18508881494655
20	6373	41.150908137297	3.2013036194381
20	6854	44.352211756735	1.907753706483
20	7153	46.259965463218	0.7814528053588
20	7277	47.041418268577	0.70519493086707
20	7379	47.746613199444	3.5632014583833
20	7981	51.309814657827	0.95085375903977
20	8159	52.260668416867	0.0090059558331418
20	8161	52.2696743727	0.28565753796427
20	8187	52.555331910664	0.28092704658816
20	8217	52.836258957252	4.5251359972301
20	8924	57.361394954482	2.1383651245463
20	9238	59.499760079028	0.75221800616068
21	0	0	0.453281862388
21	202	0.453281862388	0.379371819275
21	280	0.832653681663	1.209147667519
21	439	2.041801349182	1.2120971082
21	599	3.253898457382	1.020452625486
21	745	4.274351082868	0.185891436896
21	783	4.460242519764	0.070067980242
21	795	4.530310500006	2.909874190074
21	1269	7.44018469008	0.426028014552
21	1330	7.866212704632	0.174436767175
21	1355	8.040649471807	0.570732628864
21	1441	8.611382100671	2.043366479837
21	1760	10.654748580508	0.185765179198
21	1800	10.840513759706	0.177460649643
21	1829	11.017974409349	0.149357335954
21	1876	11.167331745303	2.041136645577
21	2184	13.20846839088	0.535026666346
21	2267	13.743495057226	1.699537429801
21	2558	15.443032487027	0.677133950014
21	2654	16.120166437041	0.040435953657
21	2671	16.160602390698	0.330502751064
21	2733	16.491105141762	0.99992151515
21	2887	17.491026656912	1.418966437584
21	3095	18.909993094496	0.78982271775
21	3204	19.699815812246	0.85761038491
21	3312	20.557426197156	1.653442856655
21	3570	22.210869053811	1.677028958883
21	3786	23.887898012694	0.034429702481
21	3793	23.922327715175	1.136088529258
21	3958	25.058416244433	1.312604637196
21	4151	26.371020881629	1.852253962665
21	4411	28.223274844294	0.522896209394
21	4500	28.746171053688	0.229452023586
21	4542	28.975623077274	1.5441746748
21	4759	30.519797752074	0.002647194901
21	4764	30.522444946975	0.622939227755
21	4886	31.14538417473	0.805481027837
21	5011	31.950865202567	1.32697636379
21	5179	33.277841566357	1.31352667696
21	5383	34.591368243317	2.434201983287
21	5757	37.025570226604	1.101249136982
21	5886	38.126819363586	1.253846609653
21	6074	39.380665973239	1.212921794655
21	6274	40.593587767894	0.115830015362
21	6292	40.709417783256	0.314850510428
21	6351	41.024268293684	0.202247391467
21	6384	41.226515685151	0.913625642894
21	6502	42.140141328045	0.488757911239
21	6572	42.628899239284	1.223174332024
21	6773	43.852073571308	1.779494374728
21	7057	45.631567946036	1.495758479705
21	7289	47.127326425741	0.796298998994
21	7405	47.923625424735	0.847937978046
21	7567	48.771563402781	1.191730566424
21	7784	49.963293969205	1.493297615766
21	8013	51.456591584971	0.68113740699
21	8141	52.137728991961	3.847288532644
21	8707	55.985017524605	0.393864120811
21	8762	56.378881645416	1.384949272207
21	8956	57.763830917623	0.028638242276
21	8964	57.792469159899	0.072581761685
21	8988	57.865050921584	1.457850016409
21	9202	59.322900937993	2.699997776958
22	0	0	0.0077777777777778
22	204	0.453281862388	0.0077777777777778
22	282	0.832653681663	0.0077777777777778
22	441	2.041801349182	0.0077777777777778
22	601	3.253898457382	0.0077777777777778
22	747	4.274351082868	0.0077777777777778
22	785	4.460242519764	0.0077777777777778
22	797	4.530310500006	0.0077777777777778
22	1271	7.44018469008	0.0077777777777778
22	1332	7.866212704632	0.0077777777777778
22	1357	8.040649471807	0.0077777777777778
22	1443	8.611382100671	0.0077777777777778
22	1762	10.654748580508	0.0077777777777778
22	1802	10.840513759706	0.0077777777777778
22	1831	11.017974409349	0.0077777777777778
22	1878	11.167331745303	0.0077777777777778
22	2186	13.20846839088	0.0077777777777778
22	2269	13.743495057226	0.0077777777777778
22	2560	15.443032487027	0.0077777777777778
22	2656	16.120166437041	0.0077777777777778
22	2673	16.160602390698	0.0077777777777778
22	2735	16.491105141762	0.0077777777777778
22	2889	17.491026656912	0.0077777777777778
22	3097	18.909993094496	0.0077777777777778
22	3206	19.699815812246	0.0077777777777778
22	3314	20.557426197156	0.0077777777777778
22	3572	22.210869053811	0.0077777777777778
22	3788	23.887898012694	0.0077777777777778
22	3795	23.922327715175	0.0077777777777778
22	3960	25.058416244433	0.0077777777777778
22	4153	26.371020881629	0.0077777777777778
22	4413	28.223274844294	0.0077777777777778
22	4502	28.746171053688	0.0077777777777778
22	4544	28.975623077274	0.0077777777777778
22	4761	30.519797752074	0.0077777777777778
22	4773	30.527575529852	0.0077777777777778
22	4888	31.14538417473	0.0077777777777778
22	5013	31.950865202567	0.0077777777777778
22	5181	33.277841566357	0.0077777777777778
22	5385	34.591368243317	0.0077777777777778
22	5759	37.025570226604	0.0077777777777778
22	5888	38.126819363586	0.0077777777777778
22	6076	39.380665973239	0.0077777777777778
22	6276	40.593587767894	0.0077777777777778
22	6294	40.709417783256	0.0077777777777778
22	6353	41.024268293684	0.0077777777777778
22	6386	41.226515685151	0.0077777777777778
22	6504	42.140141328045	0.0077777777777778
22	6574	42.628899239284	0.0077777777777778
22	6775	43.852073571308	0.0077777777777778
22	7059	45.631567946036	0.0077777777777778
22	7291	47.127326425741	0.0077777777777778
22	7407	47.923625424735	0.0077777777777778
22	7569	48.771563402781	0.0077777777777778
22	7786	49.963293969205	0.0077777777777778
22	8015	51.456591584971	0.0077777777777778
22	8143	52.137728991961	0.0077777777777778
22	8709	55.985017524605	0.0077777777777778
22	8764	56.378881645416	0.0077777777777778
22	8958	57.763830917623	0.0077777777777778
22	8966	57.792469159899	0.0077777777777778
22	8990	57.865050921584	0.0077777777777778
22	9204	59.322900937993	0.0077777777777778
23	0	0	0.66441804409889
23	241	0.664418044099	0.18516015071007
23	285	0.849578194809	0.21445401835126
23	303	1.06403221316	1.968449074182
23	579	3.032481287342	0.17270414843454
23	593	3.205185435777	0.54547451771715
23	667	3.750659953494	0.024128573529304
23	672	3.774788527023	1.3170932215251
23	969	5.091881748548	1.5683654302215
23	1169	6.660247178769	0.15897888361614
23	1200	6.819226062385	5.4794308748557
23	2052	12.298656937241	0.025143079816352
23	2056	12.323800017057	0.42618105288627
23	2122	12.749981069943	1.1659433585677
23	2304	13.915924428511	1.6105212677153
23	2571	15.526445696226	0.41087481584306
23	2639	15.937320512069	0.32412699684668
23	2687	16.261447508916	0.97852716769894
23	2848	17.239974676615	1.302133040461
23	3029	18.542107717076	0.82381089348675
23	3169	19.365918610563	0.045126018245344
23	3176	19.411044628808	0.098794888211167
23	3181	19.509839517019	1.2480459217208
23	3352	20.75788543874	1.1044480394176
23	3528	21.862333478158	0.064530122381687
23	3537	21.92686360054	1.5789289593935
23	3743	23.505792559933	1.5673365030777
23	3964	25.073129063011	0.15435298401824
23	3984	25.227482047029	0.74070048614179
23	4112	25.968182533171	0.051858116265916
23	4122	26.020040649437	0.31160383272116
23	4145	26.331644482158	0.073489581521615
23	4159	26.40513406368	2.7389473417998
23	4567	29.14408140548	0.33738985512855
23	4616	29.481471260609	1.0629037975581
23	4781	30.544375058167	6.37412397275
23	5743	36.918499030917	0.7983212851657
23	5838	37.716820316083	0.55233496577651
23	5916	38.26915528186	0.5734643736958
23	5989	38.842619655556	3.6009587211167
23	6543	42.443578376673	0.9919196916856
23	6688	43.435498068359	0.017777308635111
23	6694	43.453275376994	0.95576480589471
23	6863	44.409040182889	2.1900219612401
23	7197	46.599062144129	1.1143793190943
23	7373	47.713441463223	0.38133724050967
23	7437	48.094778703733	4.6501015127531
23	8203	52.744880216486	0.021357644527597
23	8208	52.766237861014	0.87259619045102
23	8316	53.638834051465	0.80910876120163
23	8454	54.447942812667	0.32284091047305
23	8505	54.77078372314	0.40502112146402
23	8598	55.175804844604	0.1650178470371
23	8621	55.340822691641	0.8760122361215
23	8746	56.216834927762	3.8887289398992
24	0	0	0.0077777777777778
25	0	0	0.25581231426477
25	162	0.255812314265	1.0573208560959
25	344	1.313133170361	0.74136306063138
25	445	2.054496230992	0.4865721766089
25	510	2.541068407601	0.28368759390611
25	551	2.824756001507	0.93211642814992
25	669	3.756872429657	0.32019478263081
25	711	4.077067212288	0.43711465372444
25	794	4.514181866012	1.9749512727138
25	1149	6.489133138726	0.11573800692004
25	1160	6.604871145646	0.90304365127619
25	1279	7.507914796922	0.46758679170113
25	1347	7.975501588623	0.53177812208137
25	1424	8.507279710704	0.022683791143691
25	1433	8.529963501848	0.45259867335689
25	1507	8.982562175205	0.90758755112983
25	1649	9.890149726335	0.60296920649526
25	1724	10.49311893283	0.71357113426748
25	1885	11.206690067097	1.1865620005049
25	2069	12.393252067602	0.5490007599352
25	2151	12.942252827537	0.59540981101045
25	2232	13.537662638547	0.26001854401436
25	2286	13.797681182561	0.94738219508628
25	2431	14.745063377647	1.2375239477426
25	2645	15.98258732539	0.18372844802209
25	2676	16.166315773412	3.1059222172231
25	3160	19.272237990635	1.2678441192903
25	3311	20.540082109925	2.6519720042798
25	3701	23.192054114205	1.4704786974989
25	3890	24.662532811704	0.79925004910704
25	4038	25.461782860811	0.46375351862669
25	4106	25.925536379438	0.39632462265123
25	4143	26.321861002089	0.49289384863676
25	4214	26.814754850726	6.689638978768
25	5216	33.504393829494	1.2280577499428
25	5408	34.732451579437	0.91043237354151
25	5539	35.642883952979	0.20475317765463
25	5564	35.847637130634	1.3296859595837
25	5791	37.177323090218	0.48877637842765
25	5830	37.666099468646	0.59251436768269
25	5914	38.258613836329	1.5511698321244
25	6154	39.809783668453	0.2122976487067
25	6178	40.02208131716	0.16267321240842
25	6195	40.184754529568	0.23668926075811
25	6249	40.421443790326	1.1784484536438
25	6436	41.59989224397	0.032535987497669
25	6440	41.632428231468	1.5194182208546
25	6640	43.151846452323	0.60893775961283
25	6760	43.760784211936	0.33041901312869
25	6814	44.091203225065	0.31051224495465
25	6862	44.40171547002	0.56953324183307
25	6944	44.971248711853	2.0462862843064
25	7271	47.017534996159	1.4982411378829
25	7518	48.515776134042	0.34788175946296
25	7579	48.863657893505	0.160830874994
25	7620	49.024488768499	0.75261420251284
25	7758	49.777102971012	0.96437735435153
25	7904	50.741480325364	1.0796187851958
25	8079	51.82109911056	0.18965074552073
25	8110	52.010749856081	2.5506086834995
25	8476	54.561358539581	1.8841786789284
25	8780	56.445537218509	0.92962663869175
25	8925	57.375163857201	0.49701122375504
25	8992	57.872175080956	0.67836132149443
25	9070	58.55053640245	0.64624985734935
25	9182	59.196786259799	1.0849514747304
26	0	0	0.0077777777777778
27	0	0	0.012863188154396
27	110	0.012863188154	0.052009752306061
27	125	0.06487294046	1.0950825980883
27	326	1.159955538548	0.095866381041111
27	339	1.255821919589	1.2354669850655
27	506	2.491288904655	2.955551109083
27	1018	5.446840013738	0.1240023725198
27	1030	5.570842386258	0.34783149350489
27	1084	5.918673879763	0.15558452895684
27	1102	6.07425840872	2.7843908437367
27	1480	8.858649252457	0.17313828396081
27	1513	9.031787536418	1.6624509138435
27	1770	10.694238450262	4.3856819720893
27	2498	15.079920422351	2.2274175712457
27	2862	17.307337993597	0.32807808963909
27	2918	17.635416083236	1.7499512562058
27	3171	19.385367339442	1.0466722006423
27	3298	20.432039540084	0.8916292312571
27	3438	21.323668771341	0.53823262655391
27	3527	21.861901397895	0.66713302268973
27	3631	22.529034420585	1.162943943482
27	3767	23.691978364067	0.56011401850199
27	3834	24.252092382569	0.10251910490051
27	3855	24.35461148747	0.49043818475603
27	3911	24.845049672226	2.78538652193
27	4327	27.630436194156	0.12878123294605
27	4347	27.759217427102	0.40996533978002
27	4405	28.169182766882	1.7739352358037
27	4671	29.943118002686	1.1309444537479
27	4873	31.074062456434	0.8664579527003
27	5009	31.940520409134	1.11225395672
27	5160	33.052774365854	0.17780546024364
27	5177	33.230579826098	1.6752727940976
27	5441	34.905852620196	2.2039410577791
27	5784	37.109793677975	0.60799162010224
27	5839	37.717785298077	0.33235146374557
27	5878	38.050136761823	2.1115574758745
27	6194	40.161694237698	0.5011854884855
27	6284	40.662879726183	0.60246014463719
27	6392	41.26533987082	3.7249429817547
27	6951	44.990282852575	0.24291017761061
27	6980	45.233193030186	2.4110602245527
27	7362	47.644253254739	1.7256520518968
27	7685	49.369905306636	0.28584455113888
27	7728	49.655749857775	0.12197555450301
27	7759	49.777725412278	0.23111093273884
27	7800	50.008836345017	0.2800221967731
27	7837	50.28885854179	0.48696487975076
27	7910	50.775823421541	0.59220516839836
27	7992	51.368028589939	0.18641344525268
27	8026	51.554442035192	0.080115287208466
27	8047	51.6345573224	1.7024903123439
27	8288	53.337047634744	0.027392554990262
27	8290	53.364440189734	0.2892102764115
27	8318	53.653650466146	1.4830374331074
27	8582	55.136687899253	1.8461785801511
27	8870	56.982866479404	2.183840479725
27	9180	59.166706959129	1.2025740802937
28	0	0	0.0077777777777778
29	0	0	2.2666461939769
29	476	2.266646193977	0.37801831032794
29	522	2.644664504305	2.4251239192052
29	966	5.06978842351	0.30542037369576
29	1009	5.375208797206	0.87864519444594
29	1127	6.253853991652	1.1249216049473
29	1263	7.378775596599	0.17261179736828
29	1286	7.551387393967	0.11421925293725
29	1299	7.665606646904	1.0030712209883
29	1449	8.668677867892	0.373646173094
29	1515	9.042324040986	0.21342448842092
29	1556	9.255748529407	0.27481263693799
29	1603	9.530561166345	1.4830357023754
29	1826	11.01359686872	0.3457452947517
29	1900	11.359342163472	1.641081953113
29	2155	13.000424116585	0.18926164341333
29	2182	13.189685759998	8.4293314236497
29	3472	21.619017183648	0.1474472204269
29	3509	21.766464404075	0.78897020783592
29	3640	22.555434611911	0.98079409558168
29	3754	23.536228707493	2.5604844839013
29	4127	26.096713191394	2.8379083453628
29	4537	28.934621536757	0.14746235722644
29	4559	29.082083893983	0.7926273905956
29	4664	29.874711284579	1.591645681658
29	4933	31.466356966237	1.3711377309707
29	5124	32.837494697208	0.46018234140565
29	5187	33.297677038614	0.30781025189266
29	5242	33.605487290507	0.18973441064141
29	5268	33.795221701148	0.049889618904064
29	5280	33.845111320052	0.62972757972573
29	5371	34.474838899778	0.11439659308388
29	5382	34.589235492862	0.63926987821155
29	5472	35.228505371074	1.1973754436083
29	5654	36.425880814682	2.2345132569637
29	5971	38.660394071646	0.21730090706715
29	6000	38.877694978713	0.15782085004809
29	6015	39.035515828761	0.64703423219601
29	6136	39.682550060957	0.081983823133132
29	6142	39.76453388409	0.38490782127531
29	6193	40.149441705365	2.5263094188595
29	6580	42.675751124225	7.2121722966864
29	7769	49.887923420911	0.54978751284652
29	7875	50.437710933758	0.35003133163378
29	7912	50.787742265392	0.2260694627317
29	7941	51.013811728124	0.79249502472505
29	8078	51.806306752849	2.0249535382012
29	8333	53.83126029105	0.71470170977431
29	8469	54.545962000824	0.14791562378127
29	8487	54.693877624605	0.68453067976532
29	8631	55.37840830437	0.95640385902947
29	8757	56.334812163399	0.27252076523878
29	8812	56.607332928638	0.1053417880745
29	8822	56.712674716712	0.0085018628145837
29	8826	56.721176579527	2.6034234789331
29	9206	59.32460005846	0.74730760339056
30	0	0	0.0077777777777778
31	0	0	0.66820407230161
31	242	0.668204072302	2.5774579892069
31	598	3.245662061509	0.25087078818438
31	629	3.496532849693	1.3455826478297
31	837	4.842115497523	1.2501488330057
31	1113	6.092264330529	0.56340212520794
31	1168	6.655666455737	0.43144292732402
31	1241	7.087109383061	0.17403972965549
31	1251	7.261149112716	2.0742496889801
31	1568	9.335398801696	2.5639196192107
31	1984	11.899318420907	1.6469938083718
31	2235	13.546312229279	0.77883623973222
31	2358	14.325148469011	1.029802861433
31	2551	15.354951330444	0.2020941828179
31	2586	15.557045513262	0.69853971135611
31	2684	16.255585224618	1.1817574838398
31	2882	17.437342708458	1.4314158575928
31	3086	18.868758566051	0.40473579464339
31	3161	19.273494360694	0.0091428385440195
31	3164	19.282637199238	1.5050641074556
31	3354	20.787701306694	1.6617918951589
31	3607	22.449493201853	0.16878682274354
31	3646	22.618280024597	0.34829851276868
31	3673	22.966578537366	0.31687177837387
31	3708	23.28345031574	0.10150945747622
31	3728	23.384959773216	1.6690539969825
31	3956	25.054013770198	1.5499994737026
31	4184	26.604013243901	1.0432032927972
31	4334	27.647216536698	0.5866887951567
31	4417	28.233905331855	0.077960383056125
31	4428	28.311865714911	0.14135897162473
31	4449	28.453224686536	0.20621512869254
31	4485	28.659439815229	1.125573124666
31	4654	29.785012939895	0.40883864976459
31	4701	30.19385158966	0.33291040455084
31	4767	30.526761994211	0.80569863917836
31	4912	31.332460633389	1.4569218622786
31	5122	32.789382495668	1.0253324618103
31	5271	33.814714957478	0.8632728665205
31	5405	34.677987823998	0.74800602544011
31	5503	35.425993849438	0.087278904871264
31	5513	35.513272754309	0.77303065053418
31	5623	36.286303404843	1.0524327178539
31	5801	37.338736122697	0.2496953152399
31	5828	37.588431437937	2.67044673656
31	6206	40.258878174497	0.35328813270717
31	6283	40.612166307204	1.2348625340312
31	6464	41.847028841235	1.6145056798229
31	6705	43.461534521058	1.4799227826373
31	6937	44.941457303695	0.23342361522109
31	6965	45.174880918916	0.44887053958119
31	7052	45.623751458497	0.061792319137043
31	7068	45.685543777634	0.017657333769282
31	7073	45.703201111403	0.40057189467342
31	7138	46.103773006076	0.41705559314541
31	7188	46.520828599221	1.3775377835439
31	7394	47.898366382765	0.25860846987366
31	7449	48.156974852639	0.92902642767297
31	7628	49.086001280312	0.27589702564638
31	7675	49.361898305958	1.8641909448574
31	7969	51.226089250815	0.0088744942123222
31	7973	51.234963745027	1.4712744480316
31	8197	52.706238193059	0.42111819478309
31	8265	53.127356387842	0.047229760667544
31	8268	53.17458614851	2.2149059706191
31	8632	55.389492119129	0.38467352237089
31	8683	55.7741656415	1.315093507285
31	8887	57.089259148785	0.92577449684522
31	9009	58.01503364563	0.16465327074037
31	9032	58.17968691637	0.79212742862758
31	9140	58.971814344998	1.9649391882698
32	0	0	0.0077777777777778
33	0	0	1.7497427729428
33	404	1.749742772943	0.53155111233632
33	479	2.281293885279	0.055634606666467
33	487	2.336928491945	0.65057945553797
33	574	2.987507947483	0.5493238895804
33	634	3.536831837063	0.68033829732519
33	736	4.217170134388	2.3039864403827
33	1154	6.521156574771	0.12384456140729
33	1165	6.645001136178	0.35319488609544
33	1227	6.998196022273	0.60039053645223
33	1293	7.598586558725	1.6500911527282
33	1553	9.248677711453	0.60627076973961
33	1645	9.854948481193	2.7089280705304
33	2085	12.563876551723	1.3070416682242
33	2300	13.870918219947	1.3301630077079
33	2515	15.201081227655	0.10071133655786
33	2533	15.301792564213	0.5949995762247
33	2628	15.896792140438	0.4069907458901
33	2696	16.303782886328	0.92505963972753
33	2846	17.228842526056	0.47347091529595
33	2928	17.702313441352	0.65327387427491
33	3000	18.355587315627	0.63932867206804
33	3113	18.994915987695	0.74793269604609
33	3215	19.742848683741	0.26704583547389
33	3251	20.009894519215	0.71121282008813
33	3344	20.721107339303	0.93501264747939
33	3476	21.656119986782	0.63033520956868
33	3584	22.286455196351	0.0071640601852586
33	3586	22.293619256536	0.40710983670717
33	3650	22.700729093243	0.40501264208105
33	3692	23.105741735324	1.3041516497404
33	3867	24.409893385064	0.072296436240402
33	3875	24.482189821304	1.1736545035026
33	4073	25.655844324807	1.7782776050104
33	4298	27.434121929817	0.98183241478971
33	4442	28.415954344607	0.47407682431208
33	4531	28.890031168919	0.48487033787778
33	4603	29.374901506797	0.76934585868251
33	4697	30.14424736548	0.1236855117833
33	4711	30.267932877263	1.7868196946969
33	5030	32.05475257196	1.6972924959011
33	5265	33.752045067861	3.0868848102667
33	5729	36.838929878128	0.17733989636596
33	5756	37.016269774494	1.3346703504314
33	5927	38.350940124925	2.0531511676708
33	6240	40.404091292596	0.45342603098815
33	6330	40.857517323584	1.6261438854104
33	6550	42.483661208994	1.0908045559825
33	6717	43.574465764976	0.56027922931207
33	6823	44.134744994288	0.17187476278314
33	6851	44.306619757071	0.13216616682044
33	6867	44.438785923891	1.0934623815793
33	7032	45.53224830547	0.090132070202392
33	7050	45.622380375672	1.3688692327049
33	7264	46.991249608377	0.38620070110628
33	7335	47.377450309483	0.086226970856991
33	7342	47.46367728034	0.14764668197443
33	7358	47.611323962314	0.67725052815472
33	7477	48.288574490469	0.044763735733856
33	7488	48.333338226203	1.0327429504508
33	7684	49.366081176654	0.32852596335572
33	7733	49.69460714001	0.067221069314314
33	7755	49.761828209324	2.1995159975745
33	8105	51.961344206898	0.46385788458121
33	8173	52.425202091479	2.7162256648916
33	8588	55.141427756371	3.0916520113779
33	9037	58.233079767749	0.79343849284914
33	9156	59.026518260598	0.065351478873308
33	9174	59.091869739471	0.38682598325559
33	9234	59.478695722727	0.56763470231133
34	0	0	0.0077777777777778
35	0	0	2.8439842203271
35	556	2.843984220327	2.5322262084868
35	1010	5.376210428814	1.0299720574028
35	1139	6.406182486217	0.27557465844882
35	1174	6.681757144666	0.69446608138371
35	1262	7.37622322605	0.3028018399653
35	1302	7.679025066015	0.20791718221609
35	1336	7.886942248231	1.3427151924609
35	1549	9.229657440692	2.555518283359
35	1961	11.785175724051	0.92220241801905
35	2114	12.70737814207	0.17085591665986
35	2143	12.87823405873	0.92516745957611
35	2287	13.803401518306	0.4412243554438
35	2346	14.24462587375	2.7020683689153
35	2811	16.946694242665	0.70088675502751
35	2921	17.647580997693	0.88683354839076
35	3026	18.534414546084	0.5633787106807
35	3128	19.097793256765	0.21168255387062
35	3167	19.309475810636	1.6021636234561
35	3383	20.911639434092	0.096942248000379
35	3394	21.008581682092	3.062495841036
35	3814	24.071077523128	0.97760453570142
35	3955	25.048682058829	1.4931787793325
35	4178	26.541860838161	0.13092192049444
35	4199	26.672782758655	3.4881314562781
35	4699	30.160914214933	0.37900002891804
35	4779	30.539914243851	1.3554058417321
35	5003	31.895320085583	1.4855604349602
35	5199	33.380880520543	0.080881813022645
35	5207	33.461762333566	0.038595805370046
35	5215	33.500358138936	3.0163188853918
35	5672	36.516677024328	0.55023561072242
35	5770	37.06691263505	1.7638545208332
35	5984	38.830767155883	1.8507477839463
35	6288	40.681514939829	0.49276159824484
35	6376	41.174276538074	0.47377024609825
35	6442	41.648046784172	2.0732410764379
35	6748	43.72128786061	2.1186686411932
35	7103	45.839956501803	0.56810219288
35	7167	46.408058694683	0.85082943363482
35	7312	47.258888128318	3.0205416164303
35	7834	50.279429744748	1.9445605869771
35	8155	52.223990331725	1.3683354473858
35	8313	53.592325779111	0.51267569414922
35	8385	54.10500147326	0.94332934221863
35	8564	55.048330815479	1.0682433675577
35	8735	56.116574183037	0.45963824357395
35	8803	56.576212426611	0.53027297845814
35	8888	57.106485405069	0.16441282675358
35	8913	57.270898231823	1.2830059731641
35	9072	58.553904204987	0.31063189953567
35	9117	58.864536104523	1.6696264149835
36	0	0	0.0077777777777778
37	0	0	0.097406112659524
37	133	0.09740611266	0.2418213815236
37	171	0.339227494184	0.04102317586268
37	182	0.380250670047	3.1569357487094
37	635	3.537186418756	0.1734588896209
37	664	3.710645308377	2.0439546039108
37	1057	5.754599912288	1.8054461647626
37	1288	7.560046077051	0.21389509182271
37	1316	7.773941168874	3.0134316640396
37	1783	10.787372832914	1.616251616289
37	2072	12.403624449203	0.60720376686671
37	2158	13.01082821607	2.4059118371326
37	2554	15.416740053203	0.095544288638814
37	2568	15.512284341842	0.58795455394002
37	2653	16.100238895782	1.9231860203339
37	2963	18.023424916116	1.7548197152355
37	3222	19.778244631352	1.059307111223
37	3366	20.837551742575	1.2545887553376
37	3555	22.092140497913	1.2977987539193
37	3729	23.389939251832	0.16816007499846
37	3755	23.55809932683	3.71339110801
37	4282	27.27149043484	1.6771096681833
37	4538	28.948600103023	0.8651321886272
37	4657	29.81373229165	0.38880888317432
37	4702	30.202541174824	0.45399548095124
37	4798	30.656536655775	0.645421431747
37	4907	31.301958087522	1.444200163236
37	5120	32.746158250758	0.42801097152812
37	5172	33.174169222286	0.27693636233634
37	5206	33.451105584622	0.17175535970285
37	5245	33.622860944325	3.5324922430762
37	5787	37.155353187401	0.21057266733241
37	5808	37.365925854733	0.39433886201379
37	5844	37.760264716747	0.43674123079922
37	5897	38.197005947546	0.18096693832878
37	5930	38.377972885875	1.2019214860891
37	6125	39.579894371964	0.011468567565576
37	6129	39.59136293953	0.23955855460066
37	6156	39.830921494131	1.1898103599233
37	6350	41.020731854054	3.8406551384489
37	6923	44.861386992503	0.32386357682236
37	6968	45.185250569325	0.60696801185627
37	7097	45.792218581181	0.5690189289724
37	7161	46.361237510153	0.85295463941506
37	7305	47.214192149568	0.14836753649804
37	7329	47.362559686066	1.8924247775542
37	7655	49.25498446362	1.1973712432158
37	7877	50.452355706836	1.6350514348406
37	8132	52.087407141677	1.0992459917946
37	8271	53.186653133472	0.04782682972903
37	8274	53.234479963201	0.70183919875063
37	8354	53.936319161952	2.0826092019512
37	8718	56.018928363903	1.3980111717178
37	8929	57.416939535621	0.069306430994874
37	8937	57.486245966616	3.5566415060738
38	0	0	0.0077777777777778
39	0	0	1.9024346530278
39	413	1.902434653028	2.6904355679545
39	803	4.592870220983	0.91318010785665
39	1024	5.50605032884	0.93606939663237
39	1141	6.442119725472	2.0369668263503
39	1422	8.479086551822	0.32761962806667
39	1470	8.806706179889	1.9793603355956
39	1782	10.786066515485	0.044357088429224
39	1798	10.830423603914	1.4891056908085
39	2054	12.319529294722	2.6034049362587
39	2447	14.922934230981	0.61679221687314
39	2578	15.539726447854	3.351068076798
39	3094	18.890794524652	1.2134710386423
39	3261	20.104265563294	1.5845165791854
39	3489	21.688782142479	0.59558116171258
[...]
230	3097	18.909993094496	0.007777777778
230	3206	19.699815812246	0.007777777778
230	3314	20.557426197156	0.007777777778
230	3572	22.210869053811	0.007777777778
230	3788	23.887898012694	0.007777777778
230	3795	23.922327715175	0.007777777778
230	3960	25.058416244433	0.007777777778
230	4153	26.371020881629	0.007777777778
230	4413	28.223274844294	0.007777777778
230	4502	28.746171053688	0.007777777778
230	4544	28.975623077274	0.007777777778
230	4761	30.519797752074	0.007777777778
230	4773	30.527575529852	0.012908360655
230	4888	31.14538417473	0.007777777778
230	5013	31.950865202567	0.007777777778
230	5181	33.277841566357	0.007777777778
230	5385	34.591368243317	0.007777777778
230	5759	37.025570226604	0.007777777778
230	5888	38.126819363586	0.007777777778
230	6076	39.380665973239	0.007777777778
230	6276	40.593587767894	0.007777777778
230	6294	40.709417783256	0.007777777778
230	6353	41.024268293684	0.007777777778
230	6386	41.226515685151	0.007777777778
230	6504	42.140141328045	0.007777777778
230	6574	42.628899239284	0.007777777778
230	6775	43.852073571308	0.007777777778
230	7059	45.631567946036	0.007777777778
230	7291	47.127326425741	0.007777777778
230	7407	47.923625424735	0.007777777778
230	7569	48.771563402781	0.007777777778
230	7786	49.963293969205	0.007777777778
230	8015	51.456591584971	0.007777777778
230	8143	52.137728991961	0.007777777778
230	8709	55.985017524605	0.007777777778
230	8764	56.378881645416	0.007777777778
230	8958	57.763830917623	0.007777777778
230	8966	57.792469159899	0.007777777778
230	8990	57.865050921584	0.007777777778
230	9204	59.322900937993	0.007777777778
231	248	0.684729306884	0
231	660	3.699930463452	0
231	724	4.170269097479	0
231	1394	8.266169898384	0
231	1489	8.916207809797	0
231	1666	10.079915873377	0
231	1702	10.266382980812	0
231	1745	10.594509106413	0
231	1754	10.633843583085	0
231	1955	11.753825544536	0
231	1964	11.789227004627	0
231	2011	12.0995288222	0
231	2120	12.747119480418	0
231	2125	12.751693772485	0
231	2214	13.338882753835	0
231	2328	14.13487947104	0
231	2471	15.011704748739	0
231	3032	18.545229628547	0
231	3061	18.688568581472	0
231	3075	18.807963921795	0
231	3091	18.879400011437	0
231	3275	20.194111637266	0
231	3321	20.57077445204	0
231	3562	22.139181679362	0
231	3676	22.984114331972	0
231	3861	24.39956135164	0
231	4355	27.832836736121	0
231	4465	28.60046663427	0
231	4516	28.797233545421	0
231	4608	29.408007428318	0
231	4719	30.307424871607	0
231	5001	31.88773396773	0
231	5039	32.11552210482	0
231	5087	32.556059330092	0
231	5100	32.602595005573	0
231	5295	33.932040643517	0
231	5426	34.809850441268	0
231	5636	36.34090372719	0
231	5666	36.487178491804	0
231	5773	37.073345358179	0
231	5920	38.299624301829	0
231	5948	38.486587060748	0
231	6339	40.898511565088	0
231	6363	41.086864173271	0
231	6737	43.634128224636	0
231	6787	43.92205923241	0
231	6808	44.043972730741	0
231	6993	45.320450649908	0
231	6997	45.325414354771	0
231	7600	48.923062694293	0
231	7604	48.92605914888	0
231	7682	49.36555384392	0
231	7739	49.717069328764	0
231	8344	53.886855975468	0
231	8413	54.25857006823	0
231	8465	54.509856936628	0
231	8586	55.140328368056	0
231	9097	58.694103570402	0
231	9164	59.072386125284	0
231	9213	59.36483244442	0
231	9280	59.885808701388	0
232	248	0.684729306884	0
232	660	3.699930463452	0
232	724	4.170269097479	0
232	1394	8.266169898384	0
232	1489	8.916207809797	0
232	1666	10.079915873377	0
232	1702	10.266382980812	0
232	1745	10.594509106413	0
232	1754	10.633843583085	0
232	1955	11.753825544536	0
232	1964	11.789227004627	0
232	2011	12.0995288222	0
232	2120	12.747119480418	0
232	2127	12.754897258196	0.003203485711
232	2214	13.338882753835	0
232	2328	14.13487947104	0
232	2471	15.011704748739	0
232	3032	18.545229628547	0
232	3061	18.688568581472	0
232	3075	18.807963921795	0
232	3091	18.879400011437	0
232	3275	20.194111637266	0
232	3321	20.57077445204	0
232	3562	22.139181679362	0
232	3676	22.984114331972	0
232	3861	24.39956135164	0
232	4355	27.832836736121	0
232	4465	28.60046663427	0
232	4516	28.797233545421	0
232	4608	29.408007428318	0
232	4719	30.307424871607	0
232	5001	31.88773396773	0
232	5039	32.11552210482	0
232	5087	32.556059330092	0
232	5100	32.602595005573	0
232	5295	33.932040643517	0
232	5426	34.809850441268	0
232	5636	36.34090372719	0
232	5666	36.487178491804	0
232	5773	37.073345358179	0
232	5920	38.299624301829	0
232	5948	38.486587060748	0
232	6339	40.898511565088	0
232	6363	41.086864173271	0
232	6737	43.634128224636	0
232	6787	43.92205923241	0
232	6808	44.043972730741	0
232	6993	45.320450649908	0
232	6998	45.328228427686	0.002814072915
232	7600	48.923062694293	0
232	7605	48.930840472071	0.004781323191
232	7682	49.36555384392	0
232	7739	49.717069328764	0
232	8344	53.886855975468	0
232	8413	54.25857006823	0
232	8465	54.509856936628	0
232	8586	55.140328368056	0
232	9097	58.694103570402	0
232	9164	59.072386125284	0
232	9213	59.36483244442	0
232	9280	59.885808701388	0
233	248	0.684729306884	0.007777777778
233	660	3.699930463452	0.007777777778
233	724	4.170269097479	0.007777777778
233	1394	8.266169898384	0.007777777778
233	1489	8.916207809797	0.007777777778
233	1666	10.079915873377	0.007777777778
233	1702	10.266382980812	0.007777777778
233	1745	10.594509106413	0.007777777778
233	1754	10.633843583085	0.007777777778
233	1955	11.753825544536	0.007777777778
233	1964	11.789227004627	0.007777777778
233	2011	12.0995288222	0.007777777778
233	2120	12.747119480418	0.007777777778
233	2127	12.754897258196	0.010981263489
233	2214	13.338882753835	0.007777777778
233	2328	14.13487947104	0.007777777778
233	2471	15.011704748739	0.007777777778
233	3032	18.545229628547	0.007777777778
233	3061	18.688568581472	0.007777777778
233	3075	18.807963921795	0.007777777778
233	3091	18.879400011437	0.007777777778
233	3275	20.194111637266	0.007777777778
233	3321	20.57077445204	0.007777777778
233	3562	22.139181679362	0.007777777778
233	3676	22.984114331972	0.007777777778
233	3861	24.39956135164	0.007777777778
233	4355	27.832836736121	0.007777777778
233	4465	28.60046663427	0.007777777778
233	4516	28.797233545421	0.007777777778
233	4608	29.408007428318	0.007777777778
233	4719	30.307424871607	0.007777777778
233	5001	31.88773396773	0.007777777778
233	5039	32.11552210482	0.007777777778
233	5087	32.556059330092	0.007777777778
233	5100	32.602595005573	0.007777777778
233	5295	33.932040643517	0.007777777778
233	5426	34.809850441268	0.007777777778
233	5636	36.34090372719	0.007777777778
233	5666	36.487178491804	0.007777777778
233	5773	37.073345358179	0.007777777778
233	5920	38.299624301829	0.007777777778
233	5948	38.486587060748	0.007777777778
233	6339	40.898511565088	0.007777777778
233	6363	41.086864173271	0.007777777778
233	6737	43.634128224636	0.007777777778
233	6787	43.92205923241	0.007777777778
233	6808	44.043972730741	0.007777777778
233	6993	45.320450649908	0.007777777778
233	6998	45.328228427686	0.010591850693
233	7600	48.923062694293	0.007777777778
233	7605	48.930840472071	0.012559100969
233	7682	49.36555384392	0.007777777778
233	7739	49.717069328764	0.007777777778
233	8344	53.886855975468	0.007777777778
233	8413	54.25857006823	0.007777777778
233	8465	54.509856936628	0.007777777778
233	8586	55.140328368056	0.007777777778
233	9097	58.694103570402	0.007777777778
233	9164	59.072386125284	0.007777777778
233	9213	59.36483244442	0.007777777778
233	9280	59.885808701388	0.007777777778
234	252	0.691409422679	0
234	431	2.018145316543	0
234	549	2.823466587814	0
234	649	3.655576354777	0
234	972	5.103824388015	0
234	1237	7.075897266189	0
234	1342	7.944017581211	0
234	1484	8.887005904823	0
234	1926	11.542528544539	0
234	1999	11.979865855687	0
234	2370	14.382008444448	0
234	2377	14.390186840403	0
234	2452	14.952387888535	0
234	2537	15.312827975009	0
234	2690	16.267164534363	0
234	2714	16.375924205756	0
234	2824	17.050448959683	0
234	2838	17.137689563715	0
234	2899	17.575353572574	0
234	2907	17.582666000315	0
234	3155	19.250870027686	0
234	3187	19.553349818919	0
234	3391	20.982068719695	0
234	3495	21.71668799122	0
234	3501	21.73098536647	0
234	3604	22.435690447779	0
234	3622	22.511701702192	0
234	3850	24.320853516306	0
234	3943	24.981820547812	0
234	4029	25.395655532753	0
234	4330	27.63943171256	0
234	4524	28.856086911888	0
234	4677	30.006425262465	0
234	4817	30.714841301939	0
234	4930	31.441167707493	0
234	4936	31.467069379087	0
234	5389	34.5967057193	0
234	5416	34.79268466165	0
234	5681	36.573481414287	0
234	5901	38.222157176822	0
234	6080	39.38149282403	0
234	6092	39.424261246005	0
234	6100	39.454743986253	0
234	6148	39.781841365857	0
234	6225	40.383272321564	0
234	6301	40.724492780651	0
234	6535	42.409865152235	0
234	6588	42.822784255791	0
234	6653	43.223451655873	0
234	6692	43.449894565503	0
234	6976	45.197105644499	0
234	7016	45.425891302043	0
234	7046	45.611521844058	0
234	7213	46.755794734732	0
234	7540	48.616327177679	0
234	7561	48.747429394196	0
234	7815	50.078932744799	0
234	7987	51.34828748138	0
234	8236	52.978539389987	0
234	8357	53.938576767195	0
234	8521	54.860112212167	0
234	8616	55.329631428877	0
234	8627	55.361446534018	0
234	8769	56.380575951641	0
234	8894	57.176367581939	0
234	8972	57.80092713289	0
234	9221	59.398046993487	0
235	252	0.691409422679	0
235	431	2.018145316543	0
235	549	2.823466587814	0
235	649	3.655576354777	0
235	972	5.103824388015	0
235	1237	7.075897266189	0
235	1342	7.944017581211	0
235	1484	8.887005904823	0
235	1926	11.542528544539	0
235	1999	11.979865855687	0
235	2370	14.382008444448	0
235	2377	14.390186840403	0
235	2452	14.952387888535	0
235	2537	15.312827975009	0
235	2690	16.267164534363	0
235	2714	16.375924205756	0
235	2824	17.050448959683	0
235	2838	17.137689563715	0
235	2899	17.575353572574	0
235	2908	17.583131350352	0.000465350037
235	3155	19.250870027686	0
235	3187	19.553349818919	0
235	3391	20.982068719695	0
235	3495	21.71668799122	0
235	3501	21.73098536647	0
235	3604	22.435690447779	0
235	3622	22.511701702192	0
235	3850	24.320853516306	0
235	3943	24.981820547812	0
235	4029	25.395655532753	0
235	4330	27.63943171256	0
235	4524	28.856086911888	0
235	4677	30.006425262465	0
235	4817	30.714841301939	0
235	4930	31.441167707493	0
235	4936	31.467069379087	0
235	5389	34.5967057193	0
235	5416	34.79268466165	0
235	5681	36.573481414287	0
235	5901	38.222157176822	0
235	6080	39.38149282403	0
235	6092	39.424261246005	0
235	6100	39.454743986253	0
235	6148	39.781841365857	0
235	6225	40.383272321564	0
235	6301	40.724492780651	0
235	6535	42.409865152235	0
235	6588	42.822784255791	0
235	6653	43.223451655873	0
235	6692	43.449894565503	0
235	6976	45.197105644499	0
235	7016	45.425891302043	0
235	7046	45.611521844058	0
235	7213	46.755794734732	0
235	7540	48.616327177679	0
235	7561	48.747429394196	0
235	7815	50.078932744799	0
235	7987	51.34828748138	0
235	8236	52.978539389987	0
235	8357	53.938576767195	0
235	8521	54.860112212167	0
235	8616	55.329631428877	0
235	8627	55.361446534018	0
235	8769	56.380575951641	0
235	8894	57.176367581939	0
235	8972	57.80092713289	0
235	9221	59.398046993487	0
236	252	0.691409422679	0.007777777778
236	431	2.018145316543	0.007777777778
236	549	2.823466587814	0.007777777778
236	649	3.655576354777	0.007777777778
236	972	5.103824388015	0.007777777778
236	1237	7.075897266189	0.007777777778
236	1342	7.944017581211	0.007777777778
236	1484	8.887005904823	0.007777777778
236	1926	11.542528544539	0.007777777778
236	1999	11.979865855687	0.007777777778
236	2370	14.382008444448	0.007777777778
236	2377	14.390186840403	0.007777777778
236	2452	14.952387888535	0.007777777778
236	2537	15.312827975009	0.007777777778
236	2690	16.267164534363	0.007777777778
236	2714	16.375924205756	0.007777777778
236	2824	17.050448959683	0.007777777778
236	2838	17.137689563715	0.007777777778
236	2899	17.575353572574	0.007777777778
236	2908	17.583131350352	0.008243127815
236	3155	19.250870027686	0.007777777778
236	3187	19.553349818919	0.007777777778
236	3391	20.982068719695	0.007777777778
236	3495	21.71668799122	0.007777777778
236	3501	21.73098536647	0.007777777778
236	3604	22.435690447779	0.007777777778
236	3622	22.511701702192	0.007777777778
236	3850	24.320853516306	0.007777777778
236	3943	24.981820547812	0.007777777778
236	4029	25.395655532753	0.007777777778
236	4330	27.63943171256	0.007777777778
236	4524	28.856086911888	0.007777777778
236	4677	30.006425262465	0.007777777778
236	4817	30.714841301939	0.007777777778
236	4930	31.441167707493	0.007777777778
236	4936	31.467069379087	0.007777777778
236	5389	34.5967057193	0.007777777778
236	5416	34.79268466165	0.007777777778
236	5681	36.573481414287	0.007777777778
236	5901	38.222157176822	0.007777777778
236	6080	39.38149282403	0.007777777778
236	6092	39.424261246005	0.007777777778
236	6100	39.454743986253	0.007777777778
236	6148	39.781841365857	0.007777777778
236	6225	40.383272321564	0.007777777778
236	6301	40.724492780651	0.007777777778
236	6535	42.409865152235	0.007777777778
236	6588	42.822784255791	0.007777777778
236	6653	43.223451655873	0.007777777778
236	6692	43.449894565503	0.007777777778
236	6976	45.197105644499	0.007777777778
236	7016	45.425891302043	0.007777777778
236	7046	45.611521844058	0.007777777778
236	7213	46.755794734732	0.007777777778
236	7540	48.616327177679	0.007777777778
236	7561	48.747429394196	0.007777777778
236	7815	50.078932744799	0.007777777778
236	7987	51.34828748138	0.007777777778
236	8236	52.978539389987	0.007777777778
236	8357	53.938576767195	0.007777777778
236	8521	54.860112212167	0.007777777778
236	8616	55.329631428877	0.007777777778
236	8627	55.361446534018	0.007777777778
236	8769	56.380575951641	0.007777777778
236	8894	57.176367581939	0.007777777778
236	8972	57.80092713289	0.007777777778
236	9221	59.398046993487	0.007777777778
237	257	0.696903417222	0
237	266	0.736422484055	0
237	729	4.175448791082	0
237	752	4.285774902003	0
237	771	4.368413306636	0
237	976	5.104644859761	0
237	1307	7.69789582663	0
237	1319	7.77532916903	0
237	1416	8.398082600765	0
237	1503	8.969995744211	0
237	1683	10.185802214322	0
237	1787	10.805137122311	0
237	2067	12.387679436268	0
237	2425	14.723473845194	0
237	2576	15.535892269671	0
237	2710	16.375797557199	0
237	2903	17.579706681112	0
237	2947	17.883888419102	0
237	2959	17.990203377543	0
237	3357	20.793182005136	0
237	3823	24.150118904269	0
237	4194	26.662547498403	0
237	4251	26.97405449797	0
237	4801	30.66479070544	0
237	4808	30.687323014401	0
237	4915	31.333824144569	0
237	4980	31.772796462983	0
237	5082	32.544025670877	0
237	5113	32.694055949359	0
237	5261	33.716933796737	0
237	5314	34.077683027086	0
237	5369	34.469752597181	0
237	5493	35.334280468945	0
237	5709	36.694568478197	0
237	5855	37.880663689232	0
237	6050	39.246424711875	0
237	6164	39.922699335412	0
237	6221	40.383212140169	0
237	6229	40.383553801595	0
237	6256	40.467411194256	0
237	6381	41.194961922166	0
237	6431	41.567764163271	0
237	6445	41.650169124449	0
237	6459	41.828500444883	0
237	6467	41.861771844828	0
237	6484	42.0435143109	0
237	6603	42.901464740288	0
237	6697	43.455982967481	0
237	6731	43.606332540503	0
237	6756	43.737036649175	0
237	6769	43.841613805288	0
237	7071	45.696248725577	0
237	7078	45.707519852045	0
237	7234	46.81738252722	0
237	7325	47.34339894024	0
237	7368	47.692154607539	0
237	7667	49.332841741481	0
237	7743	49.72274121943	0
237	7798	50.004738071899	0
237	7848	50.310229094836	0
237	8007	51.428907693935	0
237	8363	53.96899459871	0
237	8370	53.99433555883	0
237	8389	54.114592751045	0
237	8419	54.281551120712	0
237	8572	55.073672578989	0
237	8753	56.314402485765	0
237	8850	56.914859947675	0
237	9084	58.673199116967	0
238	257	0.696903417222	0
238	266	0.736422484055	0
238	729	4.175448791082	0
238	752	4.285774902003	0
238	771	4.368413306636	0
238	976	5.104644859761	0
238	1307	7.69789582663	0
238	1319	7.77532916903	0
238	1416	8.398082600765	0
238	1503	8.969995744211	0
238	1683	10.185802214322	0
238	1787	10.805137122311	0
238	2067	12.387679436268	0
238	2425	14.723473845194	0
238	2576	15.535892269671	0
238	2710	16.375797557199	0
238	2903	17.579706681112	0
238	2947	17.883888419102	0
238	2959	17.990203377543	0
238	3357	20.793182005136	0
238	3823	24.150118904269	0
238	4194	26.662547498403	0
238	4251	26.97405449797	0
238	4801	30.66479070544	0
238	4808	30.687323014401	0
238	4915	31.333824144569	0
238	4980	31.772796462983	0
238	5082	32.544025670877	0
238	5113	32.694055949359	0
238	5261	33.716933796737	0
238	5314	34.077683027086	0
238	5369	34.469752597181	0
238	5493	35.334280468945	0
238	5709	36.694568478197	0
238	5855	37.880663689232	0
238	6050	39.246424711875	0
238	6164	39.922699335412	0
238	6221	40.383212140169	0
238	6234	40.390989917947	0.007436116352
238	6256	40.467411194256	0
238	6381	41.194961922166	0
238	6431	41.567764163271	0
238	6445	41.650169124449	0
238	6459	41.828500444883	0
238	6467	41.861771844828	0
238	6484	42.0435143109	0
238	6603	42.901464740288	0
238	6697	43.455982967481	0
238	6731	43.606332540503	0
238	6756	43.737036649175	0
238	6769	43.841613805288	0
238	7071	45.696248725577	0
238	7078	45.707519852045	0
238	7234	46.81738252722	0
238	7325	47.34339894024	0
238	7368	47.692154607539	0
238	7667	49.332841741481	0
238	7743	49.72274121943	0
238	7798	50.004738071899	0
238	7848	50.310229094836	0
238	8007	51.428907693935	0
238	8363	53.96899459871	0
238	8370	53.99433555883	0
238	8389	54.114592751045	0
238	8419	54.281551120712	0
238	8572	55.073672578989	0
238	8753	56.314402485765	0
238	8850	56.914859947675	0
238	9084	58.673199116967	0
239	257	0.696903417222	0.007777777778
239	266	0.736422484055	0.007777777778
239	729	4.175448791082	0.007777777778
239	752	4.285774902003	0.007777777778
239	771	4.368413306636	0.007777777778
239	976	5.104644859761	0.007777777778
239	1307	7.69789582663	0.007777777778
239	1319	7.77532916903	0.007777777778
239	1416	8.398082600765	0.007777777778
239	1503	8.969995744211	0.007777777778
239	1683	10.185802214322	0.007777777778
239	1787	10.805137122311	0.007777777778
239	2067	12.387679436268	0.007777777778
239	2425	14.723473845194	0.007777777778
239	2576	15.535892269671	0.007777777778
239	2710	16.375797557199	0.007777777778
239	2903	17.579706681112	0.007777777778
239	2947	17.883888419102	0.007777777778
239	2959	17.990203377543	0.007777777778
239	3357	20.793182005136	0.007777777778
239	3823	24.150118904269	0.007777777778
239	4194	26.662547498403	0.007777777778
239	4251	26.97405449797	0.007777777778
239	4801	30.66479070544	0.007777777778
239	4808	30.687323014401	0.007777777778
239	4915	31.333824144569	0.007777777778
239	4980	31.772796462983	0.007777777778
239	5082	32.544025670877	0.007777777778
239	5113	32.694055949359	0.007777777778
239	5261	33.716933796737	0.007777777778
239	5314	34.077683027086	0.007777777778
239	5369	34.469752597181	0.007777777778
239	5493	35.334280468945	0.007777777778
239	5709	36.694568478197	0.007777777778
239	5855	37.880663689232	0.007777777778
239	6050	39.246424711875	0.007777777778
239	6164	39.922699335412	0.007777777778
239	6221	40.383212140169	0.007777777778
239	6234	40.390989917947	0.01521389413
239	6256	40.467411194256	0.007777777778
239	6381	41.194961922166	0.007777777778
239	6431	41.567764163271	0.007777777778
239	6445	41.650169124449	0.007777777778
239	6459	41.828500444883	0.007777777778
239	6467	41.861771844828	0.007777777778
239	6484	42.0435143109	0.007777777778
239	6603	42.901464740288	0.007777777778
239	6697	43.455982967481	0.007777777778
239	6731	43.606332540503	0.007777777778
239	6756	43.737036649175	0.007777777778
239	6769	43.841613805288	0.007777777778
239	7071	45.696248725577	0.007777777778
239	7078	45.707519852045	0.007777777778
239	7234	46.81738252722	0.007777777778
239	7325	47.34339894024	0.007777777778
239	7368	47.692154607539	0.007777777778
239	7667	49.332841741481	0.007777777778
239	7743	49.72274121943	0.007777777778
239	7798	50.004738071899	0.007777777778
239	7848	50.310229094836	0.007777777778
239	8007	51.428907693935	0.007777777778
239	8363	53.96899459871	0.007777777778
239	8370	53.99433555883	0.007777777778
239	8389	54.114592751045	0.007777777778
239	8419	54.281551120712	0.007777777778
239	8572	55.073672578989	0.007777777778
239	8753	56.314402485765	0.007777777778
239	8850	56.914859947675	0.007777777778
239	9084	58.673199116967	0.007777777778

