version 2
run Non-monitoring-4-20210208-19:10:40-17748
attr configname Non-monitoring
attr datetime 20210208-19:10:40
attr experiment Non-monitoring
attr inifile aerocom.ini
attr iterationvars ""
attr iterationvarsf ""
attr measurement ""
attr network Aerocom
attr processid 17748
attr repetition 4
attr replication #4
attr resultdir results
attr runnumber 4
attr seedset 4
param **.t 1s
param **.k 15ms
param **.nA 1
param **.nDL 10
param **.s "70 byte"
param **.X 5s
param **.dimPoolMax 10000
param **.dimPoolMin 8000
param **.tDistribution "\"lognormal\""
param **.m 1s
param **.DLMaxCapacity 0
param **.trasmitting false
param **.operationMode 1

scalar Aerocom.aircraft[0].dataLink[0] sentPackets:count 0
attr source computeSentPackets
scalar Aerocom.aircraft[0].dataLink[0] meanMalus:count 1
attr "" ""
attr source computeMeanMalus
scalar Aerocom.aircraft[0].dataLink[0] actualCapacity:mean 9254.5
attr "" ""
attr source computeActualCapacity
scalar Aerocom.aircraft[0].dataLink[1] sentPackets:count 3962
attr source computeSentPackets
scalar Aerocom.aircraft[0].dataLink[1] meanMalus:count 1
attr "" ""
attr source computeMeanMalus
scalar Aerocom.aircraft[0].dataLink[1] actualCapacity:mean 9390.9043895055
attr "" ""
attr source computeActualCapacity
scalar Aerocom.aircraft[0].dataLink[2] sentPackets:count 0
attr source computeSentPackets
scalar Aerocom.aircraft[0].dataLink[2] meanMalus:count 1
attr "" ""
attr source computeMeanMalus
scalar Aerocom.aircraft[0].dataLink[2] actualCapacity:mean 9122.5
attr "" ""
attr source computeActualCapacity
scalar Aerocom.aircraft[0].dataLink[3] sentPackets:count 0
attr source computeSentPackets
scalar Aerocom.aircraft[0].dataLink[3] meanMalus:count 1
attr "" ""
attr source computeMeanMalus
scalar Aerocom.aircraft[0].dataLink[3] actualCapacity:mean 9135.5
attr "" ""
attr source computeActualCapacity
scalar Aerocom.aircraft[0].dataLink[4] sentPackets:count 0
attr source computeSentPackets
scalar Aerocom.aircraft[0].dataLink[4] meanMalus:count 1
attr "" ""
attr source computeMeanMalus
scalar Aerocom.aircraft[0].dataLink[4] actualCapacity:mean 9215.5
attr "" ""
attr source computeActualCapacity
scalar Aerocom.aircraft[0].dataLink[5] sentPackets:count 0
attr source computeSentPackets
scalar Aerocom.aircraft[0].dataLink[5] meanMalus:count 1
attr "" ""
attr source computeMeanMalus
scalar Aerocom.aircraft[0].dataLink[5] actualCapacity:mean 9342
attr "" ""
attr source computeActualCapacity
scalar Aerocom.aircraft[0].dataLink[6] sentPackets:count 0
attr source computeSentPackets
scalar Aerocom.aircraft[0].dataLink[6] meanMalus:count 1
attr "" ""
attr source computeMeanMalus
scalar Aerocom.aircraft[0].dataLink[6] actualCapacity:mean 8693
attr "" ""
attr source computeActualCapacity
scalar Aerocom.aircraft[0].dataLink[7] sentPackets:count 0
attr source computeSentPackets
scalar Aerocom.aircraft[0].dataLink[7] meanMalus:count 1
attr "" ""
attr source computeMeanMalus
scalar Aerocom.aircraft[0].dataLink[7] actualCapacity:mean 8925
attr "" ""
attr source computeActualCapacity
scalar Aerocom.aircraft[0].dataLink[8] sentPackets:count 0
attr source computeSentPackets
scalar Aerocom.aircraft[0].dataLink[8] meanMalus:count 1
attr "" ""
attr source computeMeanMalus
scalar Aerocom.aircraft[0].dataLink[8] actualCapacity:mean 8683.5
attr "" ""
attr source computeActualCapacity
scalar Aerocom.aircraft[0].dataLink[9] sentPackets:count 0
attr source computeSentPackets
scalar Aerocom.aircraft[0].dataLink[9] meanMalus:count 1
attr "" ""
attr source computeMeanMalus
scalar Aerocom.aircraft[0].dataLink[9] actualCapacity:mean 8794
attr "" ""
attr source computeActualCapacity
scalar Aerocom.controlTower receivedPackets:count 3962
attr source computeReceivedPackets

