version 2
run Non-monitoring-1-20210209-17:43:08-31136
attr configname Non-monitoring
attr datetime 20210209-17:43:08
attr experiment Non-monitoring
attr inifile aerocom.ini
attr iterationvars ""
attr iterationvarsf ""
attr measurement ""
attr network Aerocom
attr processid 31136
attr repetition 1
attr replication #1
attr resultdir results
attr runnumber 1
attr seedset 1
param **.t 1s
param **.k 50ms
param **.nA 1
param **.nDL 1
param **.s "70 byte"
param **.X 0s
param **.dimPoolMax 9000
param **.dimPoolMin 9000
param **.tDistribution "\"exponential\""
param **.m 1s
param **.DLMaxCapacity 0
param **.trasmitting false
param **.operationMode 1

vector 0 Aerocom.aircraft[0].packetGenerator arrivalTime:vector ETV
attr "" ""
attr source computeArrivalTime
vector 1 Aerocom.aircraft[0].dataLink[0] queueLength:vector ETV
attr "" ""
attr source computeQueueLength
vector 2 Aerocom.aircraft[0].dataLink[0] waitingTime:vector ETV
attr "" ""
attr source computeWaitingTime
vector 3 Aerocom.aircraft[0].dataLink[0] serviceTime:vector ETV
attr "" ""
attr source computeServiceTime
vector 4 Aerocom.aircraft[0].dataLink[0] responseTime:vector ETV
attr "" ""
attr source computeResponseTime
vector 5 Aerocom.aircraft[0].dataLink[0] tDistribution:vector ETV
attr "" ""
attr source computeTDistribution
0	1101	10.070387184435	0.015653914091
0	1106	10.086041098526	0.033188567656
0	1111	10.119229666182	0.108973316942
0	1116	10.228202983124	0.030374109936
0	1121	10.25857709306	0.034983952363
0	1126	10.293561045423	0.012294117037
0	1131	10.30585516246	0.042459371212
0	1136	10.348314533672	0.009752919434
0	1141	10.358067453106	0.020959411051
0	1146	10.379026864157	0.003823735863
0	1150	10.38285060002	0.047035026425
0	1156	10.429885626445	0.111463568222
0	1161	10.541349194667	0.006426758588
0	1165	10.547775953255	0.051107099386
0	1171	10.598883052641	0.001984782378
0	1175	10.600867835019	0.00773526002
0	1180	10.608603095039	0.53076813277
0	1186	11.139371227809	0.026732605098
0	1191	11.166103832907	0.015595169719
0	1196	11.181699002626	0.002517788019
0	1200	11.184216790645	0.014866851801
0	1206	11.199083642446	0.011746470978
0	1212	11.210830113424	0.016192519686
0	1217	11.22702263311	0.065597972747
0	1222	11.292620605857	0.014500339331
0	1227	11.307120945188	0.052651759097
0	1232	11.359772704285	0.114010381936
0	1237	11.473783086221	0.032598179215
0	1242	11.506381265436	0.090165185587
0	1247	11.596546451023	0.016064046368
0	1252	11.612610497391	0.007909721879
0	1257	11.62052021927	0.052809708413
0	1262	11.673329927683	0.269556456831
0	1268	11.942886384514	0.15669171816
0	1274	12.099578102674	0.021981798776
0	1279	12.12155990145	0.028592565184
0	1284	12.150152466634	0.039607591791
0	1289	12.189760058425	0.003635659232
0	1293	12.193395717657	0.033845540156
0	1299	12.227241257813	0.002973250011
0	1303	12.230214507824	0.006943474118
0	1308	12.237157981942	0.004325357827
0	1311	12.241483339769	0.098324740361
0	1319	12.33980808013	0.160579112533
0	1324	12.500387192663	0.012320474692
0	1329	12.512707667355	0.038909207443
0	1334	12.551616874798	0.086957799079
0	1339	12.638574673877	0.090842304589
0	1344	12.729416978466	0.318362461334
0	1350	13.0477794398	0.009318499453
0	1355	13.057097939253	0.237197026277
0	1360	13.29429496553	0.01507857588
0	1365	13.30937354141	0.008579156357
0	1370	13.317952697767	0.058879123808
0	1375	13.376831821575	0.031806781553
0	1380	13.408638603128	0.112962072134
0	1386	13.521600675262	0.061452823712
0	1391	13.583053498974	0.020827957284
0	1396	13.603881456258	0.020776221076
0	1401	13.624657677334	0.003342964242
0	1405	13.628000641576	0.059659884543
0	1411	13.687660526119	0.099799035227
0	1416	13.787459561346	0.068997271844
0	1421	13.85645683319	0.017185993055
0	1426	13.873642826245	0.084923118705
0	1431	13.95856594495	0.067562270927
0	1436	14.026128215877	0.094102358995
0	1441	14.120230574872	0.00860076214
0	1446	14.128831337012	0.004254536179
0	1450	14.133085873191	0.059366181779
0	1456	14.19245205497	0.018385619378
0	1461	14.210837674348	0.092074683575
0	1466	14.302912357923	0.041161229216
0	1471	14.344073587139	0.064942033988
0	1476	14.409015621127	0.126199268002
0	1481	14.535214889129	0.022244679408
0	1486	14.557459568537	0.004984461054
0	1490	14.562444029591	0.064857384936
0	1496	14.627301414527	0.026035295678
0	1501	14.653336710205	0.007510173088
0	1505	14.660846883293	0.038659727681
0	1511	14.699506610974	0.018830700046
0	1516	14.71833731102	0.052430180301
0	1521	14.770767491321	0.027200402855
0	1526	14.797967894176	0.018550404052
0	1531	14.816518298228	0.104864813744
0	1537	14.921383111972	0.092053926761
0	1542	15.013437038733	0.0083464441
0	1547	15.021783482833	0.034324961818
0	1552	15.056108444651	0.106065199266
0	1557	15.162173643917	0.060825840984
0	1562	15.222999484901	0.080213642665
0	1567	15.303213127566	0.056797493238
0	1573	15.360010620804	0.178111098284
0	1578	15.538121719088	0.048829062918
0	1583	15.586950782006	0.02291980157
0	1588	15.609870583576	0.306247508434
0	1593	15.91611809201	0.011466870269
0	1598	15.927584962279	0.008696671288
0	1603	15.936281633567	0.013759377074
0	1608	15.950041010641	0.085612883942
0	1613	16.035653894583	0.087973173532
0	1619	16.123627068115	0.01801251579
0	1624	16.141639583905	0.167947354562
0	1629	16.309586938467	0.005598097575
0	1633	16.315185036042	0.060000699589
0	1639	16.375185735631	0.016864917873
0	1644	16.392050653504	0.032937001563
0	1649	16.424987655067	0.062519085507
0	1654	16.487506740574	0.016917182866
0	1659	16.50442392344	0.013619072825
0	1664	16.518042996265	0.089694452038
0	1669	16.607737448303	0.059811090116
0	1674	16.667548538419	0.10285642273
0	1680	16.770404961149	0.001292968132
0	1684	16.771697929281	0.004832791715
0	1687	16.776530720996	0.131902084812
0	1695	16.908432805808	0.012164090381
0	1700	16.920596896189	0.022555268942
0	1705	16.943152165131	0.089118511278
0	1710	17.032270676409	0.080486229462
0	1716	17.112756905871	0.094293803731
0	1721	17.207050709602	0.063569025105
0	1726	17.270619734707	0.018891499564
0	1731	17.289511234271	0.046126826195
0	1736	17.335638060466	0.0163762413
0	1741	17.352014301766	0.013163200449
0	1746	17.365177502215	0.028177489938
0	1751	17.393354992153	0.029312283747
0	1756	17.4226672759	0.038766312764
0	1761	17.461433588664	0.051511477201
0	1766	17.512945065865	0.005022342334
0	1770	17.517967408199	0.076251157055
0	1776	17.594218565254	0.090673308399
0	1781	17.684891873653	0.078936287692
0	1786	17.763828161345	0.038257393275
0	1791	17.80208555462	0.023976755186
0	1796	17.826062309806	0.074575592807
0	1801	17.900637902613	0.026205422414
0	1806	17.926843325027	0.013122570821
0	1811	17.939965895848	0.005583418673
0	1815	17.945549314521	0.168041201306
0	1821	18.113590515827	0.02890195937
0	1826	18.142492475197	0.069520602855
0	1831	18.212013078052	0.096286482894
0	1836	18.308299560946	0.021010706501
0	1841	18.329310267447	0.174385448894
0	1846	18.503695716341	0.148335523602
0	1851	18.652031239943	0.063675297108
0	1856	18.715706537051	0.060284009894
0	1861	18.775990546945	0.026389377934
0	1866	18.802379924879	0.091804722499
0	1871	18.894184647378	0.007493290261
0	1875	18.901677937639	0.002328240739
0	1880	18.904006178378	0.001117179171
0	1883	18.905123357549	0.00286247333
0	1886	18.907985830879	0.012575628654
0	1893	18.920561459533	0.067882871563
0	1901	18.988444331096	0.022060756256
0	1906	19.010505087352	0.018169617625
0	1911	19.028674704977	0.076337058903
0	1916	19.10501176388	0.036364614031
0	1921	19.141376377911	0.029837442677
0	1926	19.171213820588	0.008495688252
0	1931	19.17970950884	0.03240216768
0	1936	19.21211167652	0.190727605345
0	1941	19.402839281865	0.036313047184
0	1946	19.439152329049	0.034933223414
0	1951	19.474085552463	0.022981304346
0	1956	19.497066856809	0.088304901101
0	1961	19.58537175791	0.015219534218
0	1966	19.600591292128	0.003846093035
0	1970	19.604437385163	0.08118393416
0	1976	19.685621319323	0.03259214793
0	1981	19.718213467253	0.115516150217
0	1986	19.83372961747	0.003215166313
0	1990	19.836944783783	0.022399096829
0	1996	19.859343880612	0.107812426828
0	2001	19.96715630744	0.107736136544
0	2006	20.074892443984	0.029512400644
0	2011	20.104404844628	0.018273337968
0	2016	20.122678182596	0.003550634199
0	2020	20.126228816795	0.016682073834
0	2026	20.142910890629	0.003979022599
0	2030	20.146889913228	0.011969638867
0	2036	20.158859552095	0.038695379012
0	2041	20.197554931107	0.027259337826
0	2046	20.224814268933	0.00392870286
0	2050	20.228742971793	0.006723508215
0	2055	20.235466480008	0.01015309692
0	2060	20.245619576928	0.247549195355
0	2066	20.493168772283	0.028666718027
0	2071	20.52183549031	0.028416936614
0	2076	20.550252426924	0.03443613241
0	2081	20.584688559334	0.047947554975
0	2086	20.632636114309	0.043770866027
0	2091	20.676406980336	0.193345921444
0	2096	20.86975290178	0.04844670502
0	2101	20.9181996068	0.017361308641
0	2106	20.935560915441	0.023325407537
0	2111	20.958886322978	0.030285374678
0	2116	20.989171697656	0.048213238044
0	2121	21.0373849357	0.02538626434
0	2126	21.06277120004	0.008553929022
0	2131	21.071325129062	0.077697590856
0	2136	21.149022719918	0.016114260688
0	2141	21.165136980606	0.04804534238
0	2146	21.213182322986	0.080152485967
0	2151	21.293334808953	0.044766351316
0	2156	21.338101160269	0.00830800118
0	2161	21.346409161449	0.006654960021
0	2165	21.35306412147	0.012636534392
0	2171	21.365700655862	0.001570880051
0	2175	21.367271535913	0.013918160302
0	2180	21.381189696215	0.013204683263
0	2186	21.394394379478	0.032648971881
0	2191	21.427043351359	0.000641877053
0	2195	21.427685228412	3.7289913e-005
0	2198	21.427722518325	0.016054185356
0	2205	21.443776703681	0.001539012316
0	2208	21.445315715997	0.142291843327
0	2216	21.587607559324	0.030952860422
0	2221	21.618560419746	0.016201255367
0	2226	21.634761675113	0.008867936094
0	2231	21.643629611207	0.003940700901
0	2235	21.647570312108	0.056893932157
0	2241	21.704464244265	0.01603452294
0	2246	21.720498767205	0.079287188733
0	2252	21.799785955938	0.21352909558
0	2258	22.013315051518	0.04315685775
0	2263	22.056471909268	0.027463115075
0	2268	22.083935024343	0.059333660999
0	2273	22.143268685342	0.065496218867
0	2278	22.208764904209	0.0247934038
0	2283	22.233558308009	0.047750207985
0	2288	22.281308515994	0.00237010719
0	2292	22.283678623184	0.009967709337
0	2297	22.293646332521	0.028939302095
0	2303	22.322585634616	0.0680955847
0	2308	22.390681219316	0.023259187953
0	2313	22.413940407269	0.022744455334
0	2318	22.436684862603	0.045441337971
0	2323	22.482126200574	0.074975848281
0	2328	22.557102048855	0.007206116452
0	2332	22.564308165307	0.07882982669
0	2338	22.643137991997	0.012919945219
0	2343	22.656057937216	0.050297572082
0	2348	22.706355509298	0.08431120013
0	2353	22.790666709428	0.071489568109
0	2358	22.862156277537	0.015348377432
0	2363	22.877504654969	0.050812857961
0	2368	22.92831751293	0.026408780658
0	2373	22.954726293588	0.053229954248
0	2378	23.007956247836	0.137421879571
0	2383	23.145378127407	2.3946509e-005
0	2387	23.145402073916	0.016117296516
0	2393	23.161519370432	0.037907024162
0	2398	23.199426394594	0.007849650013
0	2403	23.207276044607	0.009833530733
0	2408	23.21710957534	0.060536466494
0	2413	23.277646041834	0.073295824342
0	2418	23.350941866176	0.041858562953
0	2423	23.392800429129	0.001267186956
0	2427	23.394067616085	0.047285183681
0	2433	23.441352799766	0.003406976991
0	2437	23.444759776757	0.002146985406
0	2440	23.446906762163	0.01974584721
0	2448	23.466652609373	0.027001299812
0	2453	23.493653909185	0.043845099314
0	2458	23.537499008499	0.000213778393
0	2462	23.537712786892	0.005300131241
0	2465	23.543012918133	0.014153666615
0	2472	23.557166584748	0.034850064244
0	2478	23.592016648992	0.061218331264
0	2484	23.653234980256	0.080721576476
0	2490	23.733956556732	0.003175790567
0	2494	23.737132347299	0.003648418129
0	2497	23.740780765428	0.017456140435
0	2505	23.758236905863	0.091287557045
0	2510	23.849524462908	0.221614440164
0	2515	24.071138903072	0.058603712125
0	2520	24.129742615197	0.177407614168
0	2525	24.307150229365	0.006628454721
0	2529	24.313778684086	0.032874176663
0	2535	24.346652860749	0.038135039208
0	2540	24.384787899957	0.06653227193
0	2545	24.451320171887	0.093038431945
0	2550	24.544358603832	0.05007279565
0	2555	24.594431399482	0.048031025112
0	2560	24.642462424594	0.031339241414
0	2565	24.673801666008	0.260332752741
0	2571	24.934134418749	0.097268765566
0	2576	25.031403184315	0.020337018918
0	2581	25.051740203233	0.009468411209
0	2586	25.061208614442	0.092983385296
0	2591	25.154191999738	0.088138757629
0	2596	25.242330757367	0.026067135503
0	2601	25.26839789287	0.00214900358
0	2605	25.27054689645	0.097112199364
0	2611	25.367659095814	0.100852900995
0	2616	25.468511996809	0.079561733961
0	2621	25.54807373077	0.056350061775
0	2626	25.604423792545	0.005588019729
0	2630	25.610011812274	0.029521778444
0	2636	25.639533590718	0.062829852633
0	2641	25.702363443351	0.055671615536
0	2646	25.758035058887	0.088559632162
0	2651	25.846594691049	0.03084343917
0	2656	25.877438130219	0.050361840027
0	2661	25.927799970246	0.075707119001
0	2666	26.003507089247	0.020800966046
0	2671	26.024308055293	0.006020554131
0	2675	26.030328609424	0.01061532989
0	2681	26.040943939314	0.035479829809
0	2686	26.076423769123	0.041779505352
0	2692	26.118203274475	0.102587250933
0	2697	26.220790525408	0.001370197829
0	2701	26.222160723237	0.131228630519
0	2707	26.353389353756	0.002721490425
0	2711	26.356110844181	0.012444632297
0	2716	26.368555476478	0.084714195067
0	2722	26.453269671545	0.014512956249
0	2727	26.467782627794	0.08664629762
0	2732	26.554428925414	0.117176851551
0	2737	26.671605776965	0.00116460711
0	2741	26.672770384075	0.021195509259
0	2747	26.693965893334	0.010348194747
0	2752	26.704314088081	0.002927693767
0	2756	26.707241781848	0.05609359161
0	2762	26.763335373458	0.062743425983
0	2767	26.826078799441	0.119493290899
0	2772	26.94557209034	0.026757526206
0	2777	26.972329616546	0.062924212604
0	2782	27.03525382915	0.0664624767
0	2787	27.10171630585	0.077805345655
0	2792	27.179521651505	0.032417452419
0	2797	27.211939103924	0.004637455192
0	2801	27.216576559116	0.034713946159
0	2807	27.251290505275	0.028239301177
0	2812	27.279529806452	0.027026618953
0	2817	27.306556425405	0.122892075197
0	2822	27.429448500602	0.017158674386
0	2827	27.446607174988	0.072228862994
0	2832	27.518836037982	0.115485960557
0	2837	27.634321998539	0.011510897792
0	2842	27.645832896331	0.055249767786
0	2847	27.701082664117	0.013184211757
0	2852	27.714266875874	0.077755143562
0	2857	27.792022019436	0.113365234776
0	2863	27.905387254212	0.113043148347
0	2868	28.018430402559	0.067954113494
0	2873	28.086384516053	0.014396701208
0	2878	28.100781217261	0.027083386752
0	2883	28.127864604013	0.126174438674
0	2888	28.254039042687	0.184331286537
0	2894	28.438370329224	0.099244795309
0	2899	28.537615124533	0.180754370813
0	2905	28.718369495346	0.035269618821
0	2910	28.753639114167	0.002918552964
0	2914	28.756557667131	0.04195516324
0	2920	28.798512830371	0.038812544053
0	2926	28.837325374424	0.006104553162
0	2930	28.843429927586	0.099480630198
0	2936	28.942910557784	0.071798572933
0	2941	29.014709130717	0.044882522498
0	2946	29.059591653215	0.009511134803
0	2951	29.069102788018	0.113682201656
0	2956	29.182784989674	0.038160892907
0	2961	29.220945882581	0.039739953184
0	2966	29.260685835765	0.00675876857
0	2970	29.267444604335	0.092334408415
0	2976	29.35977901275	0.003785613895
0	2980	29.363564626645	0.050114294895
0	2986	29.41367892154	0.046955895258
0	2991	29.460634816798	0.078316705872
0	2996	29.53895152267	0.033785321072
0	3001	29.572736843742	0.00222404304
0	3005	29.574960886782	0.056167272795
0	3011	29.631128159577	0.01590936299
0	3016	29.647037522567	0.078236178737
0	3021	29.725273701304	0.04955639199
0	3026	29.774830093294	0.202816302771
0	3031	29.977646396065	0.045429102531
0	3036	30.023075498596	0.004391349664
0	3040	30.02746684826	0.203156164651
0	3046	30.230623012911	0.049876681415
0	3052	30.280499694326	0.047975013005
0	3057	30.328474707331	0.043016187601
0	3062	30.371490894932	0.042330727776
0	3067	30.413821622708	0.052582929341
0	3072	30.466404552049	0.061886255004
0	3077	30.528290807053	0.039173232055
0	3082	30.567464039108	0.019390938927
0	3087	30.586854978035	0.040750758662
0	3092	30.627605736697	0.026858412421
0	3097	30.654464149118	0.101458198288
0	3102	30.755922347406	0.042326428596
0	3107	30.798248776002	0.030075059974
0	3112	30.828323835976	0.009861635829
0	3117	30.838185471805	0.038283267876
0	3122	30.876468739681	0.06007420614
0	3127	30.936542945821	0.058714827257
0	3132	30.995257773078	0.029877209014
0	3137	31.025134982092	0.004687794159
0	3141	31.029822776251	0.026588085302
0	3147	31.056410861553	0.028275119261
0	3152	31.084685980814	0.170155283094
0	3157	31.254841263908	0.005386734707
0	3161	31.260227998615	0.002776004741
0	3166	31.263004003356	0.007413974537
0	3171	31.270417977893	0.064086304411
0	3177	31.334504282304	0.000106391149
0	3181	31.334610673453	0.049446496783
0	3187	31.384057170236	0.011767540357
0	3192	31.395824710593	0.026262274956
0	3197	31.422086985549	0.012207971578
0	3202	31.434294957127	0.008992204299
0	3207	31.443287161426	0.036308781281
0	3212	31.479595942707	0.022614124235
0	3217	31.502210066942	0.042222723775
0	3222	31.544432790717	0.014855828353
0	3227	31.55928861907	0.086852535862
0	3232	31.646141154932	0.046741034584
0	3237	31.692882189516	0.033345829861
0	3242	31.726228019377	0.156204603018
0	3247	31.882432622395	0.11102933535
0	3252	31.993461957745	0.107037830562
0	3257	32.100499788307	0.025131365248
0	3262	32.125631153555	0.049109294458
0	3267	32.174740448013	0.068248457354
0	3272	32.242988905367	0.055503803434
0	3277	32.298492708801	0.040232688986
0	3282	32.338725397787	0.113729456056
0	3288	32.452454853843	0.048885052014
0	3293	32.501339905857	0.057248532454
0	3299	32.558588438311	0.015762393767
0	3304	32.574350832078	0.033771386197
0	3309	32.608122218275	0.138705499734
0	3314	32.746827718009	0.069278820358
0	3319	32.816106538367	0.073408793433
0	3325	32.8895153318	0.013710248831
0	3330	32.903225580631	0.007867499715
0	3335	32.911093080346	0.000495286219
0	3339	32.911588366565	0.038548342152
0	3345	32.950136708717	0.004336324014
0	3349	32.954473032731	0.273470812014
0	3356	33.227943844745	0.035178512507
0	3361	33.263122357252	0.00251502248
0	3365	33.265637379732	0.033947553376
0	3371	33.299584933108	0.018035570714
0	3376	33.317620503822	0.050892693216
0	3381	33.368513197038	0.067510345259
0	3386	33.436023542297	0.042772489465
0	3391	33.478796031762	0.002007852879
0	3395	33.480803884641	0.003883209458
0	3398	33.484687094099	0.068653330606
0	3406	33.553340424705	0.025230762045
0	3411	33.57857118675	0.042597917892
0	3417	33.621169104642	0.024410196199
0	3422	33.645579300841	0.065783533959
0	3427	33.7113628348	0.02067327902
0	3433	33.73203611382	0.040017981492
0	3438	33.772054095312	0.037422836289
0	3443	33.809476931601	0.140175890214
0	3448	33.949652821815	0.038058330074
0	3453	33.987711151889	0.021263116754
0	3458	34.008974268643	0.038675073731
0	3463	34.047649342374	0.042720927869
0	3469	34.090370270243	0.063297295852
0	3474	34.153667566095	0.002605733241
0	3478	34.156273299336	0.026345483246
0	3484	34.182618782582	0.040308273226
0	3489	34.222927055808	0.045914459117
0	3494	34.268841514925	0.027184054154
0	3499	34.296025569079	0.001815471684
0	3503	34.297841040763	0.204205222484
0	3509	34.502046263247	0.026689275608
0	3514	34.528735538855	0.145576282668
0	3519	34.674311821523	0.122950096948
0	3524	34.797261918471	0.007441210408
0	3528	34.804703128879	0.111015094318
0	3534	34.915718223197	0.002125318509
0	3538	34.917843541706	0.096740470106
0	3544	35.014584011812	0.006430039531
0	3548	35.021014051343	0.019892435796
0	3554	35.040906487139	0.010705906031
0	3559	35.05161239317	0.004509564154
0	3563	35.056121957324	0.064762024397
0	3569	35.120883981721	0.020979159974
0	3574	35.141863141695	0.039260706356
0	3579	35.181123848051	0.000303773034
0	3583	35.181427621085	0.038277866004
0	3589	35.219705487089	0.002615502182
0	3593	35.222320989271	0.031231172185
0	3599	35.253552161456	0.155550841751
0	3604	35.409103003207	0.000335836305
0	3608	35.409438839512	0.076140760597
0	3614	35.485579600109	0.024917843652
0	3619	35.510497443761	0.038799353833
0	3624	35.549296797594	0.342400760126
0	3629	35.89169755772	0.304564874476
0	3635	36.196262432196	0.085820875976
0	3640	36.282083308172	0.109809051036
0	3645	36.391892359208	0.042532255681
0	3650	36.434424614889	0.004321051683
0	3654	36.438745666572	0.010936600203
0	3659	36.449682266775	0.012466269542
0	3665	36.462148536317	0.126580683586
0	3670	36.588729219903	0.095228380609
0	3675	36.683957600512	0.027595164476
0	3680	36.711552764988	0.107743170137
0	3685	36.819295935125	0.048290762494
0	3690	36.867586697619	0.032808347041
0	3695	36.90039504466	0.011351784467
0	3700	36.911746829127	0.012887036947
0	3705	36.924633866074	0.019879738718
0	3710	36.944513604792	0.072996942534
0	3715	37.017510547326	0.021152450024
0	3720	37.03866299735	0.003137068618
0	3724	37.041800065968	0.025105838973
0	3730	37.066905904941	0.009262390069
0	3735	37.07616829501	0.001124137093
0	3739	37.077292432103	0.018038419395
0	3745	37.095330851498	0.053991546832
0	3750	37.14932239833	0.001892204666
0	3754	37.151214602996	0.00931587756
0	3759	37.160530480556	0.320260553065
0	3766	37.480791033621	0.046228780685
0	3771	37.527019814306	0.050483026079
0	3776	37.577502840385	0.048324013986
0	3781	37.625826854371	0.027700093416
0	3786	37.653526947787	0.059850645276
0	3791	37.713377593063	0.027805557266
0	3796	37.741183150329	0.017260699499
0	3801	37.758443849828	0.037062755007
0	3806	37.795506604835	0.017267818062
0	3811	37.812774422897	0.067352349772
0	3816	37.880126772669	0.07043302646
0	3822	37.950559799129	0.08770213479
0	3827	38.038261933919	0.024569469992
0	3832	38.062831403911	0.029309582015
0	3837	38.092140985926	0.008271054529
0	3842	38.100412040455	0.033595121993
0	3847	38.134007162448	0.117833535692
0	3852	38.25184069814	0.016982088919
0	3857	38.268822787059	0.000658457188
0	3861	38.269481244247	0.001401335619
0	3864	38.270882579866	0.108790755209
0	3872	38.379673335075	0.005434129827
0	3876	38.385107464902	0.017283696699
0	3882	38.402391161601	0.030892155097
0	3887	38.433283316698	0.024049187729
0	3892	38.457332504427	0.023688493533
0	3897	38.48102099796	0.191765018513
0	3902	38.672786016473	0.048128824562
0	3907	38.720914841035	0.028694993024
0	3912	38.749609834059	0.10982755234
0	3918	38.859437386399	0.062918277168
0	3923	38.922355663567	0.060680556561
0	3928	38.983036220128	0.026583975868
0	3933	39.009620195996	0.002249672509
0	3937	39.011869868505	0.122401248081
0	3943	39.134271116586	0.008480105506
0	3948	39.142751222092	0.063557385268
0	3953	39.20630860736	0.006482507031
0	3957	39.212791114391	0.032762885399
0	3963	39.24555399979	0.0622491909
0	3968	39.30780319069	0.004399046025
0	3972	39.312202236715	0.023505150967
0	3978	39.335707387682	0.022599059941
0	3983	39.358306447623	0.041485214391
0	3988	39.399791662014	0.033726743287
0	3993	39.433518405301	0.133408921872
0	3999	39.566927327173	0.016694271886
0	4004	39.583621599059	0.072073428965
0	4009	39.655695028024	0.038247253326
0	4014	39.69394228135	0.031844751256
0	4019	39.725787032606	0.011764037607
0	4024	39.737551070213	0.002255894845
0	4028	39.739806965058	0.034093507471
0	4034	39.773900472529	0.035915413315
0	4039	39.809815885844	0.037539365147
0	4044	39.847355250991	0.054858234747
0	4049	39.902213485738	0.055944777089
0	4054	39.958158262827	0.004648601494
0	4058	39.962806864321	0.068396372154
0	4064	40.031203236475	0.014765911852
0	4069	40.045969148327	0.065461804685
0	4074	40.111430953012	0.008381330208
0	4079	40.11981228322	0.027592442706
0	4084	40.147404725926	0.039417260513
0	4089	40.186821986439	0.030435920324
0	4094	40.217257906763	0.157878648526
0	4100	40.375136555289	0.103378455742
0	4105	40.478515011031	0.040052320721
0	4110	40.518567331752	0.022532637309
0	4115	40.541099969061	0.06246093181
0	4120	40.603560900871	0.066976804011
0	4125	40.670537704882	0.071468840594
0	4130	40.742006545476	0.256363246348
0	4135	40.998369791824	0.019039804712
0	4140	41.017409596536	0.12938577852
0	4145	41.146795375056	0.003826974241
0	4149	41.150622349297	0.039840663826
0	4155	41.190463013123	0.037638073324
0	4160	41.228101086447	0.018200185703
0	4165	41.24630127215	0.007149811703
0	4169	41.253451083853	0.048684425786
0	4175	41.302135509639	0.004693146772
0	4179	41.306828656411	0.057648408802
0	4185	41.364477065213	0.009715867328
0	4190	41.374192932541	0.037429004961
0	4195	41.411621937502	0.04539403544
0	4200	41.457015972942	0.02088776366
0	4205	41.477903736602	0.040394701529
0	4210	41.518298438131	0.03038762449
0	4215	41.548686062621	0.056351126939
0	4220	41.60503718956	0.004266498083
0	4224	41.609303687643	0.060020522918
0	4230	41.669324210561	0.0172148932
0	4235	41.686539103761	0.071729342401
0	4241	41.758268446162	0.007826653324
0	4246	41.766095099486	0.01429684195
0	4251	41.780391941436	0.054902731438
0	4256	41.835294672874	0.029587254214
0	4261	41.864881927088	0.159995523479
0	4268	42.024877450567	0.005118525982
0	4272	42.029995976549	0.008553337428
0	4277	42.038549313977	0.128763490856
0	4283	42.167312804833	0.001435103152
0	4287	42.168747907985	0.002030379681
0	4290	42.170778287666	0.067615359567
0	4298	42.238393647233	0.109785432161
0	4303	42.348179079394	0.021860522113
0	4309	42.370039601507	0.008415012147
0	4314	42.378454613654	0.03525757498
0	4319	42.413712188634	0.004962190221
0	4323	42.418674378855	0.003149549604
0	4328	42.421823928459	0.149029401315
0	4335	42.570853329774	0.009786448857
0	4340	42.580639778631	0.01568287804
0	4345	42.596322656671	0.059455242492
0	4350	42.655777899163	0.01884395019
0	4355	42.674621849353	0.046470144132
0	4360	42.721091993485	0.019762887294
0	4366	42.740854880779	0.096006202161
0	4371	42.83686108294	0.019487022269
0	4376	42.856348105209	0.164738201025
0	4381	43.021086306234	0.160403347337
0	4386	43.181489653571	0.022284293555
0	4391	43.203773947126	0.040641610899
0	4396	43.244415558025	0.048411910729
0	4401	43.292827468754	0.02226823604
0	4406	43.315095704794	0.029681150186
0	4411	43.34477685498	0.007784922388
0	4416	43.352561777368	0.035220211455
0	4421	43.387781988823	0.048017507071
0	4426	43.435799495894	0.024838062821
0	4431	43.460637558715	0.039473593314
0	4436	43.500111152029	0.189477496461
0	4441	43.68958864849	0.034793632165
0	4446	43.724382280655	0.048860166568
0	4451	43.773242447223	0.154116857682
0	4456	43.927359304905	0.007650882662
0	4460	43.935010187567	0.062653550553
0	4466	43.99766373812	0.059821474008
0	4471	44.057485212128	0.009353286045
0	4476	44.066838498173	0.16871256483
0	4481	44.235551063003	0.054122057378
0	4486	44.289673120381	0.112618077021
0	4491	44.402291197402	0.043227957211
0	4496	44.445519154613	0.040822731975
0	4501	44.486341886588	0.016728264641
0	4507	44.503070151229	0.00074120604
0	4511	44.503811357269	0.092495453903
0	4517	44.596306811172	0.081878068692
0	4522	44.678184879864	0.029769597305
0	4527	44.707954477169	0.134310522908
0	4532	44.842265000077	0.100491508178
0	4538	44.942756508255	0.066199601425
0	4543	45.00895610968	0.032983912866
0	4548	45.041940022546	0.028014199455
0	4553	45.069954222001	0.008931700276
0	4558	45.078885922277	0.023969667713
0	4563	45.10285558999	0.017591152386
0	4568	45.120446742376	0.068247148666
0	4573	45.188693891042	0.050496771293
0	4578	45.239190662335	0.005706111391
0	4582	45.244896773726	0.012536138593
0	4588	45.257432912319	0.076785178668
0	4593	45.334218090987	0.078608622759
0	4598	45.412826713746	0.034538023691
0	4603	45.447364737437	0.006705567649
0	4607	45.454070305086	0.003634933579
0	4612	45.457705238665	0.049914365698
0	4618	45.507619604363	0.086593051514
0	4623	45.594212655877	0.057226295983
0	4628	45.65143895186	0.024854969654
0	4633	45.676293921514	0.051995447822
0	4638	45.728289369336	0.005645275244
0	4642	45.73393464458	0.005104809996
0	4647	45.739039454576	0.009545826175
0	4652	45.748585280751	0.018665581061
0	4658	45.767250861812	0.098103416858
0	4663	45.86535427867	0.00311296837
0	4667	45.86846724704	0.009481920844
0	4672	45.877949167884	0.097961143488
0	4678	45.975910311372	0.076681855428
0	4683	46.0525921668	0.054640555191
0	4688	46.107232721991	0.081511658258
0	4693	46.188744380249	0.001663804531
0	4697	46.19040818478	0.00452458808
0	4700	46.19493277286	0.139223693163
0	4708	46.334156466023	0.028580699551
0	4713	46.362737165574	0.017662002243
0	4718	46.380399167817	0.077360486339
0	4723	46.457759654156	0.2130852852
0	4728	46.670844939356	0.033673196723
0	4734	46.704518136079	0.00294727237
0	4738	46.707465408449	0.100501676962
0	4744	46.807967085411	0.046050185085
0	4750	46.854017270496	0.023879315573
0	4755	46.877896586069	0.03005256118
0	4760	46.907949147249	0.049485349685
0	4765	46.957434496934	0.072155326678
0	4770	47.029589823612	0.012009415933
0	4775	47.041599239545	0.09442680786
0	4780	47.136026047405	0.092339212733
0	4785	47.228365260138	0.015684817554
0	4790	47.244050077692	0.091428625354
0	4795	47.335478703046	0.162035905024
0	4800	47.49751460807	0.041716454848
0	4805	47.539231062918	0.082698767804
0	4810	47.621929830722	0.019510733201
0	4815	47.641440563923	0.014257398561
0	4820	47.655697962484	0.021352432493
0	4825	47.677050394977	0.120121122383
0	4830	47.79717151736	0.045154258577
0	4835	47.842325775937	0.036399328696
0	4840	47.878725104633	0.006871754491
0	4844	47.885596859124	0.036758551674
0	4850	47.922355410798	0.035715766185
0	4855	47.958071176983	0.066352558759
0	4860	48.024423735742	0.017508114519
0	4865	48.041931850261	0.106994194256
0	4870	48.148926044517	0.020895487879
0	4875	48.169821532396	0.051756114207
0	4880	48.221577646603	0.019418531795
0	4885	48.240996178398	0.005405813632
0	4889	48.24640199203	0.089950439267
0	4895	48.336352431297	0.062988597612
0	4900	48.399341028909	0.009648944203
0	4905	48.408989973112	0.030433898083
0	4910	48.439423871195	0.013488674192
0	4915	48.452912545387	0.025283585192
0	4920	48.478196130579	0.008984746071
0	4925	48.48718087665	0.019565840377
0	4930	48.506746717027	0.000760797389
0	4934	48.507507514416	0.032213741026
0	4940	48.539721255442	0.027721874547
0	4945	48.567443129989	0.100873402388
0	4950	48.668316532377	0.092878136582
0	4955	48.761194668959	0.142232942283
0	4960	48.903427611242	0.116523131946
0	4965	49.019950743188	0.016592980256
0	4970	49.036543723444	0.033409623731
0	4976	49.069953347175	0.093156374372
0	4981	49.163109721547	0.02735515129
0	4986	49.190464872837	0.033912675748
0	4991	49.224377548585	0.101311052914
0	4997	49.325688601499	0.015665503046
0	5002	49.341354104545	0.037591254846
0	5007	49.378945359391	0.014682670385
0	5012	49.393628029776	0.039777511507
0	5017	49.433405541283	0.051669533607
0	5022	49.48507507489	0.05239290537
0	5027	49.53746798026	0.025989587459
0	5032	49.563457567719	0.004148037496
0	5036	49.567605605215	0.089693740862
0	5042	49.657299346077	0.091164233995
0	5047	49.748463580072	0.028585243991
0	5052	49.777048824063	0.00558810574
0	5056	49.782636929803	0.090709043699
0	5062	49.873345973502	0.037998713791
0	5067	49.911344687293	0.039021292813
0	5072	49.950365980106	0.130190956267
0	5077	50.080556936373	0.110139214086
0	5082	50.190696150459	0.039781902867
0	5087	50.230478053326	0.074652490294
0	5092	50.30513054362	0.020943313824
0	5097	50.326073857444	0.016181237552
0	5102	50.342255094996	0.064846613035
0	5107	50.407101708031	0.008279575911
0	5112	50.415381283942	0.115639120059
0	5117	50.531020404001	0.091302444984
0	5122	50.622322848985	0.047886291948
0	5127	50.670209140933	0.067230741388
0	5132	50.737439882321	0.002875425734
0	5136	50.740315308055	0.005449218445
0	5141	50.7457645265	0.105519206572
0	5147	50.851283733072	0.027834630145
0	5152	50.879118363217	0.000907050498
0	5156	50.880025413715	0.056547465418
0	5162	50.936572879133	0.056697349126
0	5167	50.993270228259	0.028860101315
0	5172	51.022130329574	0.115152272416
0	5177	51.13728260199	0.018966234306
0	5182	51.156248836296	0.008565849942
0	5187	51.164814686238	0.098723809804
0	5192	51.263538496042	0.037556310137
0	5197	51.301094806179	0.065576149778
0	5202	51.366670955957	0.061048249414
0	5207	51.427719205371	0.008237532014
0	5212	51.435956737385	0.009649612329
0	5217	51.445606349714	0.010059768256
0	5222	51.45566611797	0.014064963273
0	5227	51.469731081243	0.061823696705
0	5232	51.531554777948	0.003444464636
0	5236	51.534999242584	0.055436515382
0	5242	51.590435757966	0.008658330144
0	5247	51.59909408811	0.028815770836
0	5252	51.627909858946	0.006287349512
0	5256	51.634197208458	0.03436496852
0	5262	51.668562176978	0.017169777515
0	5267	51.685731954493	0.14022080182
0	5272	51.825952756313	0.069429532655
0	5277	51.895382288968	0.193469743009
0	5282	52.088852031977	0.059156977678
0	5287	52.148009009655	0.053889855329
0	5292	52.201898864984	0.071900950181
0	5297	52.273799815165	0.025882876671
0	5302	52.299682691836	0.053891087208
0	5307	52.353573779044	0.066176809746
0	5313	52.41975058879	0.079050831695
0	5318	52.498801420485	0.033614522961
0	5323	52.532415943446	0.008064590675
0	5328	52.540480534121	0.069677207079
0	5333	52.6101577412	0.040406985358
0	5338	52.650564726558	0.008524071709
0	5343	52.659088798267	0.001084668044
0	5347	52.660173466311	0.016512013612
0	5353	52.676685479923	0.033830621591
0	5358	52.710516101514	0.012855746204
0	5363	52.723371847718	0.092708403475
0	5368	52.816080251193	0.186454914489
0	5373	53.002535165682	0.031960146493
0	5378	53.034495312175	0.052472775024
0	5383	53.086968087199	0.017519449703
0	5388	53.104487536902	0.012517748896
0	5393	53.117005285798	0.016055393928
0	5398	53.133060679726	0.013756695728
0	5403	53.146817375454	0.025005944595
0	5408	53.171823320049	0.046433083634
0	5413	53.218256403683	0.122567596112
0	5418	53.340823999795	0.10279820184
0	5423	53.443622201635	0.183055562561
0	5428	53.626677764196	0.005925795205
0	5432	53.632603559401	0.068992367407
0	5438	53.701595926808	0.114974777518
0	5443	53.816570704326	0.219141637175
0	5448	54.035712341501	0.026104667526
0	5453	54.061817009027	0.071824339706
0	5458	54.133641348733	0.009061170649
0	5463	54.142702519382	0.01672053113
0	5468	54.159423050512	0.021907752683
0	5473	54.181330803195	0.028553738449
0	5478	54.209884541644	0.006638598
0	5482	54.216523139644	0.064213819897
0	5488	54.280736959541	0.015725211186
0	5493	54.296462170727	0.061780057164
0	5498	54.358242227891	0.053761283169
0	5503	54.41200351106	0.056679608277
0	5508	54.468683119337	0.034051308621
0	5513	54.502734427958	0.033460606529
0	5518	54.536195034487	0.057549819201
0	5523	54.593744853688	0.00772357749
0	5527	54.601468431178	0.005482161216
0	5532	54.606950592394	0.160494028286
0	5538	54.76744462068	0.125255407202
0	5543	54.892700027882	0.012430968874
0	5548	54.905130996756	0.025780646916
0	5553	54.930911643672	0.194085223635
0	5558	55.124996867307	0.046335930878
0	5563	55.171332798185	0.006815261756
0	5567	55.178148059941	0.000382332664
0	5570	55.178530392605	0.196447350275
0	5578	55.37497774288	0.03354107365
0	5583	55.40851881653	0.023589551632
0	5588	55.432108368162	0.14413489098
0	5593	55.576243259142	0.083283646901
0	5598	55.659526906043	0.031430385725
0	5603	55.690957291768	0.000365942261
0	5607	55.691323234029	0.007078896857
0	5610	55.698402130886	0.029439429648
0	5618	55.727841560534	0.019197323429
0	5624	55.747038883963	0.014313605118
0	5629	55.761352489081	0.007390391819
0	5633	55.7687428809	0.059294399108
0	5639	55.828037280008	0.055527931914
0	5644	55.883565211922	0.054387586099
0	5649	55.937952798021	0.096146648499
0	5654	56.03409944652	0.03098723919
0	5659	56.06508668571	0.002339579077
0	5663	56.067426264787	0.061317033542
0	5669	56.128743298329	0.001091973425
0	5673	56.129835271754	0.191433793267
0	5679	56.321269065021	0.012846579285
0	5684	56.334115644306	0.004894291706
0	5688	56.339009936012	0.011492161298
0	5694	56.35050209731	0.041354053853
0	5699	56.391856151163	0.000213185654
0	5703	56.392069336817	0.05634457757
0	5709	56.448413914387	0.020988165128
0	5714	56.469402079515	0.050149459636
0	5719	56.519551539151	0.008811815705
0	5724	56.528363354856	0.015207669346
0	5729	56.543571024202	0.082951605637
0	5735	56.626522629839	0.103953597099
0	5740	56.730476226938	0.027455544985
0	5745	56.757931771923	0.014087065282
0	5750	56.772018837205	0.013517481555
0	5755	56.78553631876	0.093204102839
0	5760	56.878740421599	0.128432266392
0	5765	57.007172687991	0.031812698052
0	5770	57.038985386043	0.017172021525
0	5775	57.056157407568	0.007721266078
0	5779	57.063878673646	0.183334105368
0	5785	57.247212779014	0.086900398479
0	5790	57.334113177493	0.007383196747
0	5794	57.34149637424	0.004070389795
0	5799	57.345566764035	0.086577175336
0	5805	57.432143939371	0.079234735078
0	5810	57.511378674449	0.075887696402
0	5815	57.587266370851	0.045816063823
0	5820	57.633082434674	0.049215102436
0	5825	57.68229753711	0.104640322192
0	5830	57.786937859302	0.030862541022
0	5835	57.817800400324	0.081279512254
0	5840	57.899079912578	0.025563996699
0	5845	57.924643909277	0.02570578048
0	5850	57.950349689757	0.167219237825
0	5855	58.117568927582	0.007262396949
0	5859	58.124831324531	0.050909754111
0	5865	58.175741078642	0.015475358609
0	5870	58.191216437251	0.122033678295
0	5875	58.313250115546	6.6170335e-005
0	5879	58.313316285881	0.039153339445
0	5885	58.352469625326	0.052979663764
0	5890	58.40544928909	0.026937088308
0	5895	58.432386377398	0.004469568574
0	5899	58.436855945972	0.012147685791
0	5905	58.449003631763	0.009879186395
0	5910	58.458882818158	0.030599372307
0	5915	58.489482190465	0.01405032158
0	5920	58.503532512045	0.145441786249
0	5925	58.648974298294	0.026052425352
0	5930	58.675026723646	0.036959625189
0	5935	58.711986348835	0.05804565705
0	5940	58.770032005885	0.046517375325
0	5945	58.81654938121	0.029391414163
0	5950	58.845940795373	0.055794004042
0	5955	58.901734799415	0.035035844306
0	5960	58.936770643721	0.076402193637
0	5965	59.013172837358	0.004892097978
0	5969	59.018064935336	0.076242415811
0	5975	59.094307351147	0.020637886665
0	5980	59.114945237812	0.028726555054
0	5985	59.143671792866	0.011575708272
0	5990	59.155247501138	0.037397089011
0	5995	59.192644590149	0.067188101171
0	6000	59.25983269132	0.029925506021
0	6005	59.289758197341	0.000890514031
0	6009	59.290648711372	0.089994495925
0	6015	59.380643207297	0.047959382061
0	6020	59.428602589358	0.138115646675
0	6025	59.566718236033	0.059847695474
0	6030	59.626565931507	0.041538244649
0	6035	59.668104176156	0.035123830488
0	6040	59.703228006644	0.011731270911
0	6045	59.714959277555	0.002274848557
0	6049	59.717234126112	0.004441743233
0	6052	59.721675869345	0.014456992452
0	6059	59.736132861797	0.096953084893
0	6066	59.83308594669	0.01357899517
0	6071	59.84666494186	0.051922329668
0	6077	59.898587271528	0.015582837948
0	6082	59.914170109476	0.101805949243
0	6087	60.015976058719	0.015271255651
0	6092	60.03124731437	0.161624955653
0	6098	60.192872270023	0.180071792833
0	6103	60.372944062856	0.046959334663
0	6108	60.419903397519	0.078309642426
0	6113	60.498213039945	0.06257688458
0	6118	60.560789924525	0.110779438549
0	6123	60.671569363074	0.014300443189
0	6128	60.685869806263	0.062501342679
0	6133	60.748371148942	0.033668370463
0	6138	60.782039519405	0.021283013481
0	6143	60.803322532886	0.118927968902
0	6148	60.922250501788	0.142239415458
0	6153	61.064489917246	0.030659121245
0	6158	61.095149038491	0.03312654867
0	6163	61.128275587161	0.033674549079
0	6168	61.16195013624	0.010255048848
0	6173	61.172205185088	0.019121506549
0	6178	61.191326691637	0.065374014756
0	6183	61.256700706393	0.090117268421
0	6188	61.346817974814	0.015008323761
0	6193	61.361826298575	0.059722417945
0	6198	61.42154871652	0.086519695749
0	6203	61.508068412269	0.056388690782
0	6208	61.564457103051	0.067445865542
0	6213	61.631902968593	0.056129823858
0	6218	61.688032792451	0.01713862419
0	6223	61.705171416641	0.00353659388
0	6227	61.708708010521	0.030776248876
0	6233	61.739484259397	0.066858131164
0	6238	61.806342390561	0.062780381051
0	6243	61.869122771612	0.085320107402
0	6248	61.954442879014	0.055133344294
0	6253	62.009576223308	0.123788270668
0	6258	62.133364493976	0.037388454964
0	6263	62.17075294894	0.004028112569
0	6267	62.174781061509	0.01204901686
0	6273	62.186830078369	0.03557719206
0	6278	62.222407270429	0.019607186681
0	6283	62.24201445711	0.007829998972
0	6288	62.249844456082	0.059338266564
0	6293	62.309182722646	0.013060861934
0	6298	62.32224358458	0.030530740278
0	6303	62.352774324858	0.00485458185
0	6307	62.357628906708	0.063267620063
0	6313	62.420896526771	0.038536722321
0	6318	62.459433249092	0.057619013441
0	6323	62.517052262533	0.111812894473
0	6328	62.628865157006	0.021975790856
0	6333	62.650840947862	0.008297451877
0	6338	62.659138399739	0.005217948565
0	6342	62.664356348304	0.034884870649
0	6348	62.699241218953	0.057094735811
0	6353	62.756335954764	0.048668454061
0	6358	62.805004408825	0.021970489171
0	6363	62.826974897996	0.149433424282
0	6368	62.976408322278	0.041616417427
0	6373	63.018024739705	0.048630123727
0	6378	63.066654863432	0.00667629412
0	6382	63.073331157552	0.046561813196
0	6388	63.119892970748	0.007892448117
0	6393	63.127785418865	0.008309278876
0	6398	63.136094697741	0.027568410249
0	6403	63.16366310799	0.024384875616
0	6408	63.188047983606	0.055339104102
0	6413	63.243387087708	0.028578983392
0	6418	63.2719660711	0.00624782331
0	6422	63.27821389441	0.028942035896
0	6428	63.307155930306	0.074460046521
0	6433	63.381615976827	0.035767944619
0	6438	63.417383921446	0.095312772455
0	6443	63.512696693901	0.022766025682
0	6448	63.535462719583	0.055832124696
0	6453	63.591294844279	0.061040234227
0	6458	63.652335078506	0.069236583897
0	6463	63.721571662403	0.078428870349
0	6468	63.800000532752	0.0136219605
0	6473	63.813622493252	0.012764192751
0	6478	63.826386686003	0.005282861979
0	6482	63.831669547982	0.012937419273
0	6488	63.844606967255	0.019958969458
0	6493	63.864565936713	0.192547158477
0	6498	64.05711309519	0.006707538311
0	6502	64.063820633501	0.001375886956
0	6507	64.065196520457	0.026934675632
0	6513	64.092131196089	0.037972452926
0	6518	64.130103649015	0.07159060911
0	6523	64.201694258125	0.003323332085
0	6527	64.20501759021	0.016501447196
0	6533	64.221519037406	0.005662948638
0	6537	64.227181986044	0.096843127216
0	6543	64.32402511326	0.045726914302
0	6548	64.369752027562	0.030163923393
0	6553	64.399915950955	0.010913152783
0	6558	64.410829103738	0.008831203906
0	6563	64.419660307644	0.050456743395
0	6568	64.470117051039	0.051400237804
0	6573	64.521517288843	0.0457036754
0	6578	64.567220964243	0.028859320245
0	6583	64.596080284488	0.166098227994
0	6588	64.762178512482	0.020041009334
0	6593	64.782219521816	0.06975982327
0	6598	64.851979345086	0.03632333398
0	6603	64.888302679066	0.076347643976
0	6608	64.964650323042	0.235930572982
0	6613	65.200580896024	0.004879199602
0	6617	65.205460095626	0.069692761538
0	6623	65.275152857164	0.039478274788
0	6628	65.314631131952	0.017375704873
0	6633	65.332006836825	0.023269712787
0	6638	65.355276549612	0.131166943863
0	6643	65.486443493475	0.026087790901
0	6648	65.512531284376	0.010177202722
0	6653	65.522708487098	0.152229349803
0	6660	65.674937836901	0.026224432746
0	6665	65.701162269647	0.006125257072
0	6669	65.707287526719	0.023308107689
0	6675	65.730595634408	0.052367091719
0	6680	65.782962726127	0.212363218803
0	6685	65.99532594493	0.099176964544
0	6690	66.094502909474	0.000226430582
0	6694	66.094729340056	0.005924813223
0	6697	66.100654153279	0.05238630068
0	6705	66.153040453959	0.06149212313
0	6710	66.214532577089	0.035531075908
0	6715	66.250063652997	0.012419233807
0	6720	66.262482886804	0.008476254668
0	6725	66.270959141472	0.019133559724
0	6731	66.290092701196	0.051316181438
0	6736	66.341408882634	0.091544644402
0	6741	66.432953527036	0.08247607621
0	6747	66.515429603246	0.002121629954
0	6751	66.5175512332	0.072831903539
0	6757	66.590383136739	0.079699053802
0	6762	66.670082190541	0.004040193066
0	6766	66.674122383607	0.086591348617
0	6772	66.760713732224	0.079261522043
0	6777	66.839975254267	0.021654923313
0	6782	66.86163017758	0.021225309634
0	6787	66.882855487214	0.048662566038
0	6792	66.931518053252	0.095729167592
0	6797	67.027247220844	0.035430138747
0	6802	67.062677359591	0.04128769843
0	6807	67.103965058021	0.014904512697
0	6812	67.118869570718	0.004165406734
0	6816	67.123034977452	0.076387776687
0	6822	67.199422754139	0.068275713478
0	6827	67.267698467617	0.000914033492
0	6831	67.268612501109	0.041459157956
0	6837	67.310071659065	0.038596398105
0	6842	67.34866805717	0.030021780474
0	6847	67.378689837644	0.162101791142
0	6852	67.540791628786	0.050868912587
0	6857	67.591660541373	0.044999671549
0	6862	67.636660212922	0.029323103311
0	6867	67.665983316233	0.019284915658
0	6873	67.685268231891	0.001881215212
0	6877	67.687149447103	0.0113035794
0	6882	67.698453026503	0.121922806936
0	6888	67.820375833439	0.166982941701
0	6893	67.98735877514	0.016970202135
0	6898	68.004328977275	0.042415919467
0	6903	68.046744896742	0.016379672922
0	6908	68.063124569664	0.000465707345
0	6912	68.063590277009	0.002550149189
0	6915	68.066140426198	0.00965841335
0	6920	68.075798839548	0.063185308846
0	6928	68.138984148394	0.0238225053
0	6933	68.162806653694	0.120094936249
0	6938	68.282901589943	0.029849758746
0	6943	68.312751348689	0.031083600012
0	6948	68.343834948701	0.022344609191
0	6953	68.366179557892	0.084133835284
0	6958	68.450313393176	0.127794262863
0	6963	68.578107656039	0.019935539312
0	6968	68.598043195351	0.018675059285
0	6973	68.616718254636	0.024285129166
0	6978	68.641003383802	0.085649177037
0	6983	68.726652560839	0.017246056836
0	6988	68.743898617675	0.107168965464
0	6993	68.851067583139	0.017473513769
0	6998	68.868541096908	0.02735322333
0	7004	68.895894320238	0.041195736315
0	7009	68.937090056553	0.000313487544
0	7013	68.937403544097	0.019721923615
0	7019	68.957125467712	0.020568373494
0	7024	68.977693841206	0.003403028102
0	7028	68.981096869308	0.132865414495
0	7034	69.113962283803	0.058602427048
0	7039	69.172564710851	0.093018425699
0	7044	69.26558313655	0.018454563179
0	7049	69.284037699729	0.041009260635
0	7054	69.325046960364	0.02490247967
0	7059	69.349949440034	0.053854703496
0	7064	69.40380414353	0.010307758071
0	7069	69.414111901601	0.098625990797
0	7074	69.512737892398	0.002531241023
0	7078	69.515269133421	0.022531848476
0	7084	69.537800981897	0.053106741745
0	7089	69.590907723642	0.019457418875
0	7094	69.610365142517	0.027514030549
0	7099	69.637879173066	0.050291772512
0	7104	69.688170945578	0.134700268651
0	7109	69.822871214229	0.043754603001
0	7114	69.86662581723	0.000955285095
0	7118	69.867581102325	0.004364030686
0	7121	69.871945133011	0.087118740273
0	7129	69.959063873284	0.02750183996
0	7134	69.986565713244	0.000935659539
0	7138	69.987501372783	0.006639604325
0	7141	69.994140977108	0.009495546514
0	7148	70.003636523622	0.033592338648
0	7154	70.03722886227	0.000696634819
0	7158	70.037925497089	0.039066164199
0	7164	70.076991661288	0.035604683583
0	7169	70.112596344871	0.022575177593
0	7174	70.135171522464	0.021824933551
0	7179	70.156996456015	0.033696213228
0	7184	70.190692669243	0.01916184408
0	7189	70.209854513323	0.059649509205
0	7194	70.269504022528	0.18324135982
0	7199	70.452745382348	0.007953084806
0	7204	70.460698467154	0.043143134857
0	7209	70.503841602011	0.018554732202
0	7214	70.522396334213	0.130416972692
0	7219	70.652813306905	0.0319831499
0	7224	70.684796456805	0.109893053076
0	7230	70.794689509881	0.052160612957
0	7235	70.846850122838	0.020742988846
0	7240	70.867593111684	0.066829745847
0	7245	70.934422857531	0.053000225196
0	7250	70.987423082727	0.017762733002
0	7255	71.005185815729	0.010848988942
0	7260	71.016034804671	0.031383697236
0	7265	71.047418501907	0.022745757991
0	7270	71.070164259898	0.015123129321
0	7275	71.085287389219	0.057725169424
0	7280	71.143012558643	0.006623998188
0	7284	71.149636556831	0.042061606861
0	7290	71.191698163692	0.01299779082
0	7295	71.204695954512	0.004438923774
0	7299	71.209134878286	0.170036759068
0	7305	71.379171637354	0.004068056978
0	7309	71.383239694332	0.085495432521
0	7315	71.468735126853	0.073702089314
0	7320	71.542437216167	0.049104167079
0	7325	71.591541383246	0.06037587611
0	7330	71.651917259356	0.015872628585
0	7335	71.667789887941	0.052288061017
0	7340	71.720077948958	0.077007091359
0	7345	71.797085040317	0.012475684484
0	7350	71.809560724801	0.172192715983
0	7355	71.981753440784	0.076581811534
0	7360	72.058335252318	0.007652800935
0	7364	72.065988053253	0.043012177808
0	7370	72.109000231061	0.004657307016
0	7374	72.113657538077	0.00795640753
0	7379	72.121613945607	0.008896960199
0	7384	72.130510905806	0.00908646853
0	7389	72.139597374336	0.113302253693
0	7396	72.252899628029	0.048484864954
0	7401	72.301384492983	0.015188693742
0	7406	72.316573186725	0.19146061225
0	7411	72.508033798975	0.039266546303
0	7416	72.547300345278	0.044103105611
0	7421	72.591403450889	0.178494802465
0	7426	72.769898253354	0.017489729855
0	7431	72.787387983209	0.138864248893
0	7436	72.926252232102	0.06295716385
0	7441	72.989209395952	0.040511766899
0	7446	73.029721162851	0.011358449471
0	7451	73.041079612322	0.03502401838
0	7456	73.076103630702	0.051273063074
0	7461	73.127376693776	0.020717846111
0	7466	73.148094539887	0.026713599057
0	7471	73.174808138944	0.00112609342
0	7475	73.175934232364	0.00156433247
0	7478	73.177498564834	0.033217046532
0	7487	73.210715611366	0.036324769602
0	7493	73.247040380968	0.014529626296
0	7498	73.261570007264	0.035414121082
0	7503	73.296984128346	0.000309142696
0	7507	73.297293271042	0.121477578376
0	7513	73.418770849418	0.002498815559
0	7517	73.421269664977	0.06204371549
0	7523	73.483313380467	0.117427721885
0	7528	73.600741102352	0.018108191894
0	7533	73.618849294246	0.008041270103
0	7538	73.626890564349	0.051803350535
0	7543	73.678693914884	0.010792247926
0	7548	73.68948616281	0.01438422648
0	7553	73.70387038929	0.035583494173
0	7558	73.739453883463	0.053087533978
0	7563	73.792541417441	0.046453421271
0	7568	73.838994838712	0.045995038365
0	7573	73.884989877077	0.007987038741
0	7578	73.892976915818	0.047658872206
0	7583	73.940635788024	0.021430637754
0	7588	73.962066425778	0.008784739204
0	7593	73.970851164982	0.210335749087
0	7599	74.181186914069	0.062011846887
0	7604	74.243198760956	0.077728496403
0	7609	74.320927257359	0.038579605872
0	7614	74.359506863231	0.011727684168
0	7619	74.371234547399	0.067798914117
0	7624	74.439033461516	0.162686883924
0	7629	74.60172034544	0.002284950705
0	7633	74.604005296145	0.001661882317
0	7636	74.605667178462	0.066027895678
0	7644	74.67169507414	0.021278451467
0	7649	74.692973525607	0.150049002785
0	7654	74.843022528392	0.25877090865
0	7660	75.101793437042	0.044052328876
0	7665	75.145845765918	0.040940165853
0	7670	75.186785931771	0.007549802496
0	7674	75.194335734267	0.042736461598
0	7680	75.237072195865	0.128702182076
0	7685	75.365774377941	0.119138210838
0	7692	75.484912588779	0.040562717195
0	7697	75.525475305974	0.065217536117
0	7702	75.590692842091	0.016246098048
0	7707	75.606938940139	0.040417731215
0	7712	75.647356671354	0.048661634853
0	7717	75.696018306207	0.10400146345
0	7722	75.800019769657	0.097911854355
0	7727	75.897931624012	0.003378030658
0	7731	75.90130965467	0.005731207919
0	7736	75.907040862589	0.070445854526
0	7742	75.977486717115	0.041010737427
0	7747	76.018497454542	0.032054752107
0	7752	76.050552206649	0.05008381455
0	7757	76.100636021199	0.007643312447
0	7761	76.108279333646	0.130264052871
0	7767	76.238543386517	0.034384391702
0	7772	76.272927778219	0.001946807434
0	7776	76.274874585653	0.093770906319
0	7782	76.368645491972	0.035406142877
0	7787	76.404051634849	0.062921379755
0	7792	76.466973014604	0.065955008317
0	7797	76.532928022921	0.028759865609
0	7803	76.56168788853	0.053895299374
0	7808	76.615583187904	0.066183081354
0	7813	76.681766269258	0.098815666966
0	7818	76.780581936224	0.014114803988
0	7823	76.794696740212	0.053419137149
0	7828	76.848115877361	0.006053441972
0	7832	76.854169319333	0.049933294768
0	7838	76.904102614101	0.00294227801
0	7842	76.907044892111	0.047067995336
0	7848	76.954112887447	0.011538652043
0	7853	76.96565153949	0.008997477893
0	7858	76.974649017383	0.149724293919
0	7863	77.124373311302	0.096441011194
0	7868	77.220814322496	0.068521023244
0	7874	77.28933534574	0.036268796294
0	7879	77.325604142034	0.087586164383
0	7884	77.413190306417	0.00107911648
0	7888	77.414269422897	0.073386109736
0	7894	77.487655532633	0.085869393216
0	7899	77.573524925849	0.010105412909
0	7904	77.583630338758	0.058324451829
0	7909	77.641954790587	0.047900872174
0	7914	77.689855662761	0.053560466667
0	7919	77.743416129428	0.067582719828
0	7924	77.810998849256	0.002657515094
0	7928	77.81365636435	0.044018929026
0	7934	77.857675293376	0.061114808316
0	7939	77.918790101692	0.02075297568
0	7944	77.939543077372	0.02062555233
0	7949	77.960168629702	0.036697846924
0	7954	77.996866476626	0.08422851453
0	7959	78.081094991156	0.081840407472
0	7964	78.162935398628	0.008483419009
0	7969	78.171418817637	0.019041493615
0	7974	78.190460311252	0.020431032847
0	7979	78.210891344099	0.042137626416
0	7984	78.253028970515	0.005440863788
0	7988	78.258469834303	0.047591369334
0	7994	78.306061203637	0.000926333858
0	7998	78.306987537495	0.009510188859
0	8003	78.316497726354	0.01954604116
0	8009	78.336043767514	0.013301227994
0	8014	78.349344995508	0.060095330779
0	8019	78.409440326287	0.083094189913
0	8024	78.4925345162	0.027217338795
0	8029	78.519751854995	0.070715126144
0	8034	78.590466981139	0.017687043153
0	8039	78.608154024292	0.007639331142
0	8043	78.615793355434	0.137641330163
0	8049	78.753434685597	0.044227125115
0	8054	78.797661810712	0.064859355272
0	8059	78.862521165984	0.022130762862
0	8064	78.884651928846	0.178113464743
0	8070	79.062765393589	0.010251524035
0	8075	79.073016917624	0.018044616135
0	8080	79.091061533759	0.066752810074
0	8085	79.157814343833	0.010785096465
0	8090	79.168599440298	0.108828292955
0	8095	79.277427733253	0.172661323562
0	8100	79.450089056815	0.033196043966
0	8105	79.483285100781	0.004139214455
0	8109	79.487424315236	0.024850350516
0	8115	79.512274665752	0.076970519597
0	8120	79.589245185349	0.011515251609
0	8125	79.600760436958	0.147140787658
0	8130	79.747901224616	0.103176348072
0	8135	79.851077572688	0.063304559836
0	8140	79.914382132524	0.027100042632
0	8145	79.941482175156	0.042717834139
0	8151	79.984200009295	0.022159769705
0	8156	80.006359779	0.023018784665
0	8161	80.029378563665	0.008116692787
0	8166	80.037495256452	0.017515128263
0	8171	80.055010384715	0.058366673636
0	8176	80.113377058351	0.003472651565
0	8180	80.116849709916	0.042147011041
0	8186	80.158996720957	0.023811081298
0	8191	80.182807802255	0.032320920998
0	8196	80.215128723253	0.034950559778
0	8201	80.250079283031	0.035015294703
0	8206	80.285094577734	0.014304561322
0	8211	80.299399139056	0.1135846279
0	8216	80.412983766956	0.174692570557
0	8221	80.587676337513	0.024987433477
0	8226	80.61266377099	0.326692549817
0	8231	80.939356320807	0.163961686927
0	8236	81.103318007734	0.017087986142
0	8241	81.120405993876	0.053914229222
0	8246	81.174320223098	0.045846053499
0	8251	81.220166276597	0.011673346513
0	8256	81.23183962311	0.107187712217
0	8261	81.339027335327	0.072930040294
0	8266	81.411957375621	0.043818618094
0	8271	81.455775993715	0.03141959424
0	8276	81.487195587955	0.021682822214
0	8281	81.508878410169	0.024556969428
0	8286	81.533435379597	0.093497948323
0	8291	81.62693332792	0.029015306157
0	8296	81.655948634077	0.037615933995
0	8301	81.693564568072	0.030897874158
0	8306	81.72446244223	0.048283518298
0	8311	81.772745960528	0.135116266171
0	8316	81.907862226699	0.070722522445
0	8321	81.978584749144	0.03086307866
0	8326	82.009447827804	0.017003515488
0	8331	82.026451343292	0.015038443774
0	8336	82.041489787066	0.05794879301
0	8341	82.099438580076	0.108582327881
0	8346	82.208020907957	0.01549850382
0	8351	82.223519411777	0.076840431752
0	8356	82.300359843529	0.052843585039
0	8361	82.353203428568	0.045094213742
0	8366	82.39829764231	0.014826640024
0	8371	82.413124282334	0.030961514792
0	8376	82.444085797126	0.079540780689
0	8381	82.523626577815	0.059405028668
0	8387	82.583031606483	0.021333619976
0	8392	82.604365226459	0.114758927056
0	8397	82.719124153515	0.161478398667
0	8402	82.880602552182	0.011768328792
0	8407	82.892370880974	0.009520575688
0	8412	82.901891456662	0.074362667105
0	8417	82.976254123767	0.06264539886
0	8422	83.038899522627	0.047161720803
0	8427	83.08606124343	0.096542182037
0	8432	83.182603425467	0.040527581372
0	8437	83.223131006839	0.102496917306
0	8442	83.325627924145	0.09865957957
0	8447	83.424287503715	0.036701082632
0	8452	83.460988586347	0.283858117817
0	8457	83.744846704164	0.03985444802
0	8462	83.784701152184	0.047129256921
0	8467	83.831830409105	0.017421940869
0	8472	83.849252349974	0.001229614024
0	8476	83.850481963998	0.097115813049
0	8482	83.947597777047	0.051505403524
0	8487	83.999103180571	0.071833544039
0	8492	84.07093672461	0.047165637949
0	8497	84.118102362559	0.036011986565
0	8502	84.154114349124	0.008337673412
0	8507	84.162452022536	0.034956487942
0	8512	84.197408510478	0.081086611861
0	8517	84.278495122339	0.125949805859
0	8522	84.404444928198	0.024713059272
0	8527	84.42915798747	0.041150214968
0	8532	84.470308202438	0.00260345283
0	8536	84.472911655268	0.00492734905
0	8539	84.477839004318	0.013358543537
0	8546	84.491197547855	0.005724228744
0	8551	84.496921776599	0.010596977042
0	8556	84.507518753641	0.072753615426
0	8562	84.580272369067	0.091590563234
0	8567	84.671862932301	0.03730959905
0	8572	84.709172531351	0.045781114724
0	8577	84.754953646075	0.040637235988
0	8582	84.795590882063	0.026319911419
0	8587	84.821910793482	0.028362894288
0	8592	84.85027368777	0.018292684577
0	8597	84.868566372347	0.001147998061
0	8601	84.869714370408	0.020414108038
0	8607	84.890128478446	0.081287808611
0	8612	84.971416287057	0.004935815418
0	8616	84.976352102475	0.02402627631
0	8622	85.000378378785	0.001339349767
0	8626	85.001717728552	0.03119912579
0	8632	85.032916854342	0.072342591102
0	8637	85.105259445444	0.029054349618
0	8642	85.134313795062	0.067248166384
0	8647	85.201561961446	0.007176436272
0	8651	85.208738397718	0.026343883974
0	8657	85.235082281692	0.165135823902
0	8662	85.400218105594	0.000553283469
0	8666	85.400771389063	0.160216174052
0	8672	85.560987563115	0.062401888848
0	8677	85.623389451963	0.000491147237
0	8681	85.6238805992	0.129737299013
0	8687	85.753617898213	0.002805602334
0	8691	85.756423500547	0.121343768105
0	8697	85.877767268652	0.024402410855
0	8702	85.902169679507	0.006165066775
0	8706	85.908334746282	0.200267187968
0	8712	86.10860193425	0.019841510608
0	8717	86.128443444858	0.032869473953
0	8722	86.161312918811	0.015250247703
0	8727	86.176563166514	0.127978946453
0	8732	86.304542112967	0.056801655066
0	8737	86.361343768033	0.020904503651
0	8742	86.382248271684	0.034485449835
0	8747	86.416733721519	0.034192796792
0	8752	86.450926518311	0.051690079263
0	8757	86.502616597574	0.088248689119
0	8762	86.590865286693	0.120797953086
0	8767	86.711663239779	0.053737727445
0	8772	86.765400967224	0.039297681404
0	8777	86.804698648628	0.018304031203
0	8782	86.823002679831	0.011680378604
0	8789	86.834683058435	0.030499773746
0	8794	86.865182832181	0.06095710642
0	8799	86.926139938601	0.048923116051
0	8804	86.975063054652	0.024511705598
0	8809	86.99957476025	0.025615063569
0	8814	87.025189823819	0.061870125694
0	8819	87.087059949513	0.011047823118
0	8824	87.098107772631	0.010027634607
0	8829	87.108135407238	0.012728749473
0	8834	87.120864156711	0.030395986744
0	8840	87.151260143455	0.067467879215
0	8845	87.21872802267	0.011131712943
0	8850	87.229859735613	0.011814204202
0	8855	87.241673939815	0.039973001584
0	8860	87.281646941399	0.010258143943
0	8865	87.291905085342	0.154311424679
0	8870	87.446216510021	0.016931319797
0	8875	87.463147829818	0.008901393866
0	8880	87.472049223684	0.225713642886
0	8885	87.69776286657	0.018887673573
0	8890	87.716650540143	0.238020483452
0	8895	87.954671023595	0.014924811968
0	8900	87.969595835563	0.032679038905
0	8905	88.002274874468	0.027185832816
0	8910	88.029460707284	0.0122957552
0	8915	88.041756462484	0.04095655775
0	8920	88.082713020234	0.029295897594
0	8925	88.112008917828	0.046363783755
0	8930	88.158372701583	0.107250306434
0	8935	88.265623008017	0.057653966874
0	8940	88.323276974891	0.043334173278
0	8945	88.366611148169	0.020532862399
0	8950	88.387144010568	0.115426939641
0	8956	88.502570950209	0.051273089919
0	8961	88.553844040128	0.106152268468
0	8966	88.659996308596	0.028569461889
0	8971	88.688565770485	0.084145211756
0	8976	88.772710982241	0.001378436651
0	8980	88.774089418892	0.107680443719
0	8986	88.881769862611	0.058981624322
0	8991	88.940751486933	0.035962815334
0	8996	88.976714302267	0.059435034662
0	9001	89.036149336929	0.009244936583
0	9006	89.045394273512	0.018912150155
0	9011	89.064306423667	0.075588687783
0	9016	89.13989511145	0.084265117426
0	9021	89.224160228876	0.243748306
0	9026	89.467908534876	0.01489723566
0	9031	89.482805770536	0.054278664654
0	9036	89.53708443519	0.042410153012
0	9041	89.579494588202	0.01419409225
0	9046	89.593688680452	0.026353100363
0	9051	89.620041780815	0.131640784803
0	9056	89.751682565618	0.043869785226
0	9061	89.795552350844	0.128664857034
0	9066	89.924217207878	0.048297564765
0	9071	89.972514772643	0.128909391794
0	9077	90.101424164437	0.006290771866
0	9081	90.107714936303	0.054381035177
0	9087	90.16209597148	0.002101693035
0	9091	90.164197664515	0.139285624949
0	9097	90.303483289464	0.064372247724
0	9102	90.367855537188	0.013248306366
0	9107	90.381103843554	0.011903695902
0	9112	90.393007539456	0.042782455837
0	9117	90.435789995293	0.002723536495
0	9121	90.438513531788	0.251046476879
0	9127	90.689560008667	0.097626600446
0	9132	90.787186609113	0.263685413814
0	9137	91.050872022927	0.010655663313
0	9142	91.06152768624	0.080721162597
0	9148	91.142248848837	0.101695713184
0	9153	91.243944562021	0.044212678585
0	9158	91.288157240606	0.011566915275
0	9163	91.299724155881	0.049399312224
0	9168	91.349123468105	0.003923159007
0	9172	91.353046627112	0.024905515721
0	9178	91.377952142833	0.00112964017
0	9182	91.379081783003	0.012597542583
0	9187	91.391679325586	0.088609755701
0	9193	91.480289081287	0.113411312144
0	9198	91.593700393431	0.066958773824
0	9203	91.660659167255	0.043983538991
0	9208	91.704642706246	0.117161839977
0	9213	91.821804546223	0.022223699107
0	9218	91.84402824533	0.057998507896
0	9223	91.902026753226	0.019822991946
0	9228	91.921849745172	0.013587118187
0	9233	91.935436863359	0.009464518642
0	9238	91.944901382001	0.004575082403
0	9242	91.949476464404	0.010231265044
0	9247	91.959707729448	0.077149692176
0	9253	92.036857421624	0.055077675229
0	9258	92.091935096853	0.008227467014
0	9263	92.100162563867	0.016867794558
0	9268	92.117030358425	0.109638344099
0	9273	92.226668702524	0.019053013359
0	9278	92.245721715883	0.041810750995
0	9283	92.287532466878	0.093245181447
0	9288	92.380777648325	0.017424520966
0	9293	92.398202169291	0.0049125648
0	9297	92.403114734091	0.070187036187
0	9303	92.473301770278	0.148930024534
0	9308	92.622231794812	0.074701849816
0	9313	92.696933644628	0.026808583321
0	9318	92.723742227949	0.107351952381
0	9323	92.83109418033	0.087853162242
0	9328	92.918947342572	0.007051564736
0	9332	92.925998907308	0.086839497425
0	9338	93.012838404733	0.048486043465
0	9343	93.061324448198	0.057366782894
0	9348	93.118691231092	0.026995052229
0	9353	93.145686283321	0.00271175052
0	9357	93.148398033841	0.063084693045
0	9364	93.211482726886	0.05316810509
0	9369	93.264650831976	0.030588155879
0	9374	93.295238987855	0.029580168341
0	9379	93.324819156196	0.106908636497
0	9385	93.431727792693	0.018585150785
0	9390	93.450312943478	0.129860396269
0	9395	93.580173339747	0.036582043465
0	9400	93.616755383212	0.002121696235
0	9404	93.618877079447	0.054617128703
0	9410	93.67349420815	0.008642174301
0	9415	93.682136382451	0.024723371527
0	9420	93.706859753978	0.048250658443
0	9425	93.755110412421	0.02628369747
0	9430	93.781394109891	0.015098721
0	9435	93.796492830891	0.012129542085
0	9440	93.808622372976	0.049161311983
0	9445	93.857783684959	0.009104724504
0	9450	93.866888409463	0.028808961555
0	9455	93.895697371018	0.048743293157
0	9460	93.944440664175	0.027301497736
0	9465	93.971742161911	0.183896349947
0	9470	94.155638511858	0.001215159334
0	9474	94.156853671192	0.005162555369
0	9477	94.162016226561	0.197766651962
0	9485	94.359782878523	0.053492770855
0	9490	94.413275649378	0.000611395868
0	9494	94.413887045246	0.045776331066
0	9500	94.459663376312	0.016014011599
0	9505	94.475677387911	0.068846231898
0	9510	94.544523619809	0.009948190219
0	9515	94.554471810028	0.019219967191
0	9520	94.573691777219	0.03661742416
0	9525	94.610309201379	0.015165068691
0	9530	94.62547427007	1.9777123e-005
0	9534	94.625494047193	0.016921892685
0	9540	94.642415939878	0.012135223934
0	9545	94.654551163812	0.090951058432
0	9550	94.745502222244	0.028902792176
0	9555	94.77440501442	0.09446564841
0	9560	94.86887066283	0.147628237302
0	9565	95.016498900132	0.083769745045
0	9570	95.100268645177	0.056008485587
0	9575	95.156277130764	0.01632846183
0	9580	95.172605592594	0.00623708487
0	9584	95.178842677464	0.023727955886
0	9590	95.20257063335	0.086248655707
0	9595	95.288819289057	0.017142267051
0	9600	95.305961556108	0.069316089261
0	9605	95.375277645369	0.057976957798
0	9610	95.433254603167	0.045811081693
0	9615	95.47906568486	0.013401263089
0	9620	95.492466947949	0.060271865488
0	9625	95.552738813437	0.067940881553
0	9630	95.62067969499	0.09796809373
0	9635	95.71864778872	0.078738529358
0	9640	95.797386318078	0.046718976304
0	9645	95.844105294382	0.038109323283
0	9650	95.882214617665	0.032022621932
0	9655	95.914237239597	0.009588885609
0	9660	95.923826125206	0.001695946991
0	9664	95.925522072197	0.015226178897
0	9670	95.940748251094	0.131891909522
0	9676	96.072640160616	0.041875410236
0	9681	96.114515570852	0.019289721686
0	9686	96.133805292538	0.066428928999
0	9691	96.200234221537	0.001122037819
0	9695	96.201356259356	0.011209500963
0	9700	96.212565760319	0.003263255182
0	9705	96.215829015501	0.052236100603
0	9711	96.268065116104	0.02471188546
0	9716	96.292777001564	0.119625332834
0	9721	96.412402334398	0.158872142016
0	9726	96.571274476414	0.065880710045
0	9731	96.637155186459	0.015666053767
0	9736	96.652821240226	0.109649294486
0	9741	96.762470534712	0.007444100027
0	9745	96.769914634739	0.159436407177
0	9751	96.929351041916	0.037280453383
0	9756	96.966631495299	0.016043499921
0	9761	96.98267499522	0.00741290907
0	9765	96.99008790429	0.011662228564
0	9771	97.001750132854	0.04365142542
0	9776	97.045401558274	0.115439133032
0	9783	97.160840691306	0.014519284337
0	9788	97.175359975643	0.024675435486
0	9793	97.200035411129	0.045336452235
0	9798	97.245371863364	0.005709562857
0	9802	97.251081426221	0.033269719875
0	9808	97.284351146096	0.048839829383
0	9813	97.333190975479	0.042217140459
0	9818	97.375408115938	0.032555540314
0	9823	97.407963656252	0.040489423226
0	9828	97.448453079478	0.010661855661
0	9833	97.459114935139	0.138952151162
0	9838	97.598067086301	0.123954020958
0	9843	97.722021107259	0.012885485496
0	9848	97.734906592755	0.03267844835
0	9853	97.767585041105	0.057860022316
0	9858	97.825445063421	0.236519313522
0	9864	98.061964376943	0.022249307826
0	9869	98.084213684769	0.016515777765
0	9874	98.100729462534	0.00965995395
0	9879	98.110389416484	0.003074136575
0	9883	98.113463553059	0.019891500377
0	9889	98.133355053436	0.119104506886
0	9894	98.252459560322	0.008195696457
0	9899	98.260655256779	0.017566088046
0	9904	98.278221344825	0.012067917127
0	9909	98.290289261952	0.128722082268
0	9914	98.41901134422	0.038603912668
0	9919	98.457615256888	0.033142010754
0	9924	98.490757267642	0.009178909859
0	9929	98.499936177501	0.059101230451
0	9934	98.559037407952	0.177034335709
0	9940	98.736071743661	0.006178288051
0	9944	98.742250031712	0.10722587139
0	9950	98.849475903102	0.015367451596
0	9955	98.864843354698	0.022746068083
0	9960	98.887589422781	0.056797472138
0	9965	98.944386894919	0.01051005456
0	9970	98.954896949479	0.152116828681
0	9975	99.10701377816	0.018352534109
0	9980	99.125366312269	0.085740571089
0	9985	99.211106883358	0.068324275634
0	9990	99.279431158992	0.117444887802
0	9995	99.396876046794	0.013270237313
0	10000	99.410146284107	0.074514180987
0	10005	99.484660465094	0.061727718095
0	10011	99.546388183189	0.178817408406
0	10016	99.725205591595	0.011023536052
0	10021	99.736229127647	0.0135949644
0	10026	99.749824092047	0.079903276142
0	10031	99.829727368189	0.006526885911
0	10035	99.8362542541	0.001791079115
0	10040	99.838045333215	0.013756081887
0	10045	99.851801415102	0.042951652374
0	10051	99.894753067476	0.043384777714
0	10056	99.93813784519	0.014562463141
0	10061	99.952700308331	0.023157214341
0	10066	99.975857522672	0.003865971351
0	10070	99.979723494023	0.001789928769
0	10073	99.981513422792	0.094413537671
0	10081	100.075926960463	0.006659073554
0	10085	100.082586034017	0.007166696157
0	10090	100.089752730174	0.016507606211
0	10096	100.106260336385	0.062097903469
0	10101	100.168358239854	0.020430185954
0	10106	100.188788425808	0.005400026505
0	10110	100.194188452313	0.019103617342
0	10116	100.213292069655	0.053383463152
0	10121	100.266675532807	0.041679189963
0	10126	100.30835472277	0.124891528151
0	10131	100.433246250921	0.053273484464
0	10136	100.486519735385	0.003368396428
0	10140	100.489888131813	0.093156746004
0	10146	100.583044877817	0.011264308899
0	10151	100.594309186716	0.023893592818
0	10156	100.618202779534	0.07392963754
0	10161	100.692132417074	0.139027039297
0	10166	100.831159456371	0.03840612594
0	10171	100.869565582311	0.023987914921
0	10176	100.893553497232	0.239973654159
0	10181	101.133527151391	0.027525577626
0	10186	101.161052729017	0.022606882967
0	10191	101.183659611984	0.026744104129
0	10196	101.210403716113	0.028910940261
0	10201	101.239314656374	0.072336550593
0	10206	101.311651206967	0.034747744645
0	10211	101.346398951612	0.066930653302
0	10216	101.413329604914	0.00711818171
0	10220	101.420447786624	0.027438965925
0	10226	101.447886752549	0.019891469617
0	10231	101.467778222166	0.020976167365
0	10236	101.488754389531	0.036730868054
0	10241	101.525485257585	0.004302988073
0	10245	101.529788245658	0.021566625139
0	10251	101.551354870797	0.014638333371
0	10256	101.565993204168	0.129978722943
0	10261	101.695971927111	0.003926504346
0	10265	101.699898431457	0.014418947877
0	10271	101.714317379334	0.020217951396
0	10276	101.73453533073	0.035797116225
0	10281	101.770332446955	0.010498496218
0	10286	101.780830943173	0.08588859545
0	10291	101.866719538623	0.051895596893
0	10296	101.918615135516	0.066825514265
0	10301	101.985440649781	0.068573780442
0	10306	102.054014430223	0.023165473512
0	10311	102.077179903735	0.033521610251
0	10316	102.110701513986	0.047287417767
0	10321	102.157988931753	0.032940972011
0	10326	102.190929903764	0.06372794848
0	10331	102.254657852244	0.021122376609
0	10336	102.275780228853	0.021228487708
0	10341	102.297008716561	0.159868080209
0	10346	102.45687679677	0.00635115338
0	10350	102.46322795015	0.250783067004
0	10356	102.714011017154	0.032652267719
0	10361	102.746663284873	0.051404173892
0	10366	102.798067458765	0.036487958235
0	10371	102.834555417	0.093608303167
0	10376	102.928163720167	0.02015138226
0	10381	102.948315102427	0.023552200769
0	10386	102.971867303196	0.148722036315
0	10391	103.120589339511	0.044316576093
0	10396	103.164905915604	0.081828369937
0	10401	103.246734285541	0.023050626659
0	10406	103.2697849122	0.09226636084
0	10411	103.36205127304	0.148831159873
0	10417	103.510882432913	0.054736314063
0	10423	103.565618746976	0.046792381206
0	10428	103.612411128182	0.034768130632
0	10433	103.647179258814	0.112268675282
0	10438	103.759447934096	0.008056147169
0	10443	103.767504081265	0.048118515652
0	10448	103.815622596917	0.017113394006
0	10453	103.832735990923	0.004428968371
0	10457	103.837164959294	0.022879268347
0	10463	103.860044227641	0.01843087752
0	10468	103.878475105161	0.001206097306
0	10472	103.879681202467	0.044960931851
0	10478	103.924642134318	0.015799858178
0	10483	103.940441992496	0.123614037564
0	10488	104.06405603006	0.1323289136
0	10494	104.19638494366	0.053464646221
0	10499	104.249849589881	0.037843586862
0	10505	104.287693176743	0.021872763257
0	10510	104.30956594	0.002807659607
0	10514	104.312373599607	0.053627510168
0	10520	104.366001109775	0.145281810835
0	10525	104.51128292061	0.050065471081
0	10530	104.561348391691	0.063593589695
0	10535	104.624941981386	0.178880972386
0	10540	104.803822953772	0.009613473766
0	10545	104.813436427538	0.046738891276
0	10550	104.860175318814	0.005230542053
0	10554	104.865405860867	0.000405334726
0	10557	104.865811195593	0.112846086935
0	10565	104.978657282528	0.217519272392
0	10570	105.19617655492	0.076494165294
0	10575	105.272670720214	0.007875048816
0	10580	105.28054576903	0.015975732366
0	10585	105.296521501396	0.02239672161
0	10590	105.318918223006	0.007121084534
0	10594	105.32603930754	0.167128144363
0	10600	105.493167451903	0.01784689987
0	10605	105.511014351773	0.055790981882
0	10610	105.566805333655	0.008822519642
0	10615	105.575627853297	0.05734825567
0	10620	105.632976108967	0.053997554055
0	10625	105.686973663022	0.028451862449
0	10630	105.715425525471	0.083107411941
0	10635	105.798532937412	0.025599485161
0	10640	105.824132422573	0.062232672748
0	10645	105.886365095321	0.018062520591
0	10650	105.904427615912	0.007250040875
0	10654	105.911677656787	0.071616606471
0	10661	105.983294263258	0.002921614721
0	10665	105.986215877979	0.022640574783
0	10671	106.008856452762	0.032436340413
0	10676	106.041292793175	0.006622636635
0	10680	106.04791542981	0.003021496248
0	10685	106.050936926058	0.011353319437
0	10690	106.062290245495	0.042474791486
0	10696	106.104765036981	0.007768776496
0	10700	106.112533813477	0.003859610793
0	10705	106.11639342427	0.113973874635
0	10711	106.230367298905	0.068909708826
0	10716	106.299277007731	0.015593678698
0	10721	106.314870686429	0.050823761429
0	10727	106.365694447858	0.013145946007
0	10732	106.378840393865	0.014387175809
0	10737	106.393227569674	0.05322177392
0	10742	106.446449343594	0.004835161321
0	10746	106.451284504915	0.017889363476
0	10752	106.469173868391	0.008859100768
0	10757	106.478032969159	0.081438986069
0	10762	106.559471955228	0.04264449821
0	10767	106.602116453438	0.058055599838
0	10772	106.660172053276	0.007708059167
0	10776	106.667880112443	0.044515128073
0	10782	106.712395240516	0.018020187019
0	10787	106.730415427535	0.032352157755
0	10792	106.76276758529	0.005828027716
0	10796	106.768595613006	0.023617618584
0	10802	106.79221323159	0.040545606327
0	10807	106.832758837917	0.029078105364
0	10812	106.861836943281	0.064156071193
0	10817	106.925993014474	0.061379541896
0	10822	106.98737255637	0.039281436965
0	10827	107.026653993335	0.00304146148
0	10831	107.029695454815	0.066445250473
0	10837	107.096140705288	0.013166054432
0	10842	107.10930675972	0.076197153489
0	10848	107.185503913209	0.060131133056
0	10853	107.245635046265	0.051152261754
0	10858	107.296787308019	0.061695762752
0	10863	107.358483070771	0.048185831102
0	10868	107.406668901873	0.04246133383
0	10873	107.449130235703	0.079022762073
0	10878	107.528152997776	0.015156376884
0	10883	107.54330937466	0.08124755786
0	10888	107.62455693252	0.012775785443
0	10893	107.637332717963	0.02158086438
0	10898	107.658913582343	0.03811837855
0	10903	107.697031960893	0.093968873585
0	10908	107.791000834478	0.015303501606
0	10913	107.806304336084	0.128244322628
0	10918	107.934548658712	0.067247700813
0	10923	108.001796359525	0.003992212068
0	10927	108.005788571593	0.072985231921
0	10933	108.078773803514	0.09244919922
0	10939	108.171223002734	0.063535450581
0	10944	108.234758453315	0.001216656633
0	10948	108.235975109948	0.049595441818
0	10954	108.285570551766	0.035924406449
0	10959	108.321494958215	0.111917067297
0	10964	108.433412025512	0.109705716803
0	10969	108.543117742315	0.040216938221
0	10974	108.583334680536	0.030749973606
0	10979	108.614084654142	0.016567861237
0	10984	108.630652515379	0.023983640751
0	10989	108.65463615613	0.013574991758
0	10994	108.668211147888	0.056840216432
0	10999	108.72505136432	0.005272992455
0	11003	108.730324356775	0.005050052146
0	11008	108.735374408921	0.048084483014
0	11014	108.783458891935	0.119673080408
0	11019	108.903131972343	0.072450889644
0	11024	108.975582861987	0.049348862823
0	11029	109.02493172481	0.047113964551
0	11034	109.072045689361	0.06727165073
0	11039	109.139317340091	0.007101624272
0	11043	109.146418964363	0.017767177491
0	11049	109.164186141854	0.060391305566
0	11054	109.22457744742	0.05521425513
0	11059	109.27979170255	0.067191813211
0	11064	109.346983515761	0.076743067687
0	11069	109.423726583448	0.023014337019
0	11074	109.446740920467	0.017295392742
0	11079	109.464036313209	0.03962911382
0	11084	109.503665427029	0.033321388653
0	11089	109.536986815682	0.004011719692
0	11093	109.540998535374	0.010199216431
0	11098	109.551197751805	0.045637482489
0	11105	109.596835234294	0.011139292733
0	11110	109.607974527027	0.000941046628
0	11114	109.608915573655	0.073332665769
0	11120	109.682248239424	0.021396538597
0	11125	109.703644778021	0.038107924432
0	11130	109.741752702453	0.082775932646
0	11136	109.824528635099	0.054977349395
0	11141	109.879505984494	0.049547670616
0	11146	109.92905365511	0.008952989815
0	11151	109.938006644925	0.023491381443
0	11156	109.961498026368	0.043356661209
0	11161	110.004854687577	0.122555070508
0	11166	110.127409758085	0.063476356675
0	11171	110.19088611476	0.049330268488
0	11176	110.240216383248	0.017861658994
0	11181	110.258078042242	0.132731486133
0	11186	110.390809528375	0.142742322083
0	11192	110.533551850458	0.033597927946
0	11197	110.567149778404	0.005364418355
0	11201	110.572514196759	0.053101906148
0	11209	110.625616102907	0.004913797358
0	11213	110.630529900265	0.051470292295
0	11219	110.68200019256	0.048151356878
0	11224	110.730151549438	0.002659538057
0	11228	110.732811087495	0.09240735154
0	11234	110.825218439035	0.00752447262
0	11238	110.832742911655	0.099427672016
0	11244	110.932170583671	0.00663260021
0	11248	110.938803183881	0.04631904337
0	11254	110.985122227251	0.011672727891
0	11259	110.996794955142	0.051412359426
0	11264	111.048207314568	0.218792043654
0	11269	111.266999358222	0.014058406617
0	11274	111.281057764839	0.055702407166
0	11279	111.336760172005	0.006218555222
0	11283	111.342978727227	0.063833195252
0	11289	111.406811922479	0.015444728543
0	11294	111.422256651022	0.127098781658
0	11299	111.54935543268	0.048116888579
0	11304	111.597472321259	0.010028218751
0	11309	111.60750054001	0.20415512561
0	11314	111.81165566562	0.069977552582
0	11319	111.881633218202	0.163119510253
0	11324	112.044752728455	0.037053241852
0	11329	112.081805970307	0.131863252973
0	11334	112.21366922328	0.023833503168
0	11339	112.237502726448	0.186636915822
0	11344	112.42413964227	0.068519560375
0	11349	112.492659202645	0.189438010994
0	11354	112.682097213639	0.080191180532
0	11359	112.762288394171	0.062495259363
0	11364	112.824783653534	0.045279382295
0	11369	112.870063035829	0.01790069164
0	11374	112.887963727469	0.057971788929
0	11379	112.945935516398	0.007689178199
0	11383	112.953624694597	0.09532931345
0	11389	113.048954008047	0.003450507416
0	11393	113.052404515463	0.022432951179
0	11399	113.074837466642	0.059712194909
0	11404	113.134549661551	0.090340656992
0	11409	113.224890318543	0.024870915588
0	11414	113.249761234131	0.032435237253
0	11419	113.282196471384	0.025361857249
0	11424	113.307558328633	0.123043233934
0	11431	113.430601562567	0.030442483907
0	11436	113.461044046474	0.063219617951
0	11441	113.524263664425	0.006308820088
0	11445	113.530572484513	0.047699869959
0	11451	113.578272354472	0.002219482927
0	11455	113.580491837399	0.194723198304
0	11461	113.775215035703	0.026914328731
0	11467	113.802129364434	0.035769886846
0	11472	113.83789925128	0.08433104798
0	11478	113.92223029926	0.012092515755
0	11483	113.934322815015	0.069336705316
0	11488	114.003659520331	0.03750182596
0	11493	114.041161346291	0.019418541975
0	11498	114.060579888266	0.023401899628
0	11503	114.083981787894	0.101395465934
0	11508	114.185377253828	0.174227711776
0	11513	114.359604965604	0.046887201898
0	11518	114.406492167502	0.009808378017
0	11523	114.416300545519	0.08237109132
0	11528	114.498671636839	0.048769199914
0	11533	114.547440836753	0.032947426451
[...]
4	39626	393.21456754863	0.011420579728
4	39631	393.29735202986	0.007777777778
4	39636	393.305129807638	0.00987173132
4	39641	393.40549147911	0.007777777778
4	39646	393.595531868602	0.007777777778
4	39651	393.702297899572	0.007777777778
4	39656	393.71007567735	0.013605712797
4	39662	393.742777631845	0.007777777778
4	39667	393.750555409623	0.008002052089
4	39672	393.774340935028	0.007777777778
4	39677	393.784199972976	0.007777777778
4	39682	393.895366358253	0.007777777778
4	39687	393.949631687333	0.007777777778
4	39692	393.961475820352	0.007777777778
4	39697	394.097374737451	0.007777777778
4	39702	394.178833863211	0.007777777778
4	39707	394.188288179193	0.007777777778
4	39712	394.263069760963	0.007777777778
4	39717	394.285429984381	0.007777777778
4	39722	394.343031608348	0.007777777778
4	39727	394.404507746822	0.007777777778
4	39732	394.423880309313	0.007777777778
4	39737	394.453124041815	0.007777777778
4	39742	394.466189563686	0.007777777778
4	39747	394.48147253078	0.007777777778
4	39752	394.506027439136	0.007777777778
4	39757	394.53436961947	0.007777777778
4	39762	394.542147397248	0.00935487633
4	39767	394.601247128506	0.007777777778
4	39772	394.64664810606	0.007777777778
4	39777	394.654425883838	0.008902883751
4	39782	394.711589843139	0.007777777778
4	39787	394.719367620917	0.009592781429
4	39792	394.786387628804	0.007777777778
4	39797	394.810043953587	0.007777777778
4	39802	394.817821731365	0.010730439941
4	39807	394.830786510455	0.007777777778
4	39812	394.870469951912	0.007777777778
4	39818	394.997958126686	0.007777777778
4	39823	395.190290358605	0.007777777778
4	39828	395.251796780742	0.007777777778
4	39833	395.296442075874	0.007777777778
4	39838	395.396820117046	0.007777777778
4	39843	395.404597894824	0.01132209063
4	39848	395.451159490574	0.007777777778
4	39853	395.508562137844	0.007777777778
4	39858	395.543629080562	0.007777777778
4	39863	395.55140685834	0.013629855291
4	39868	395.60639778254	0.007777777778
4	39873	395.693455400084	0.007777777778
4	39878	395.707618905062	0.007777777778
4	39883	395.755900055194	0.007777777778
4	39888	396.141963850074	0.007777777778
4	39893	396.228184321903	0.007777777778
4	39898	396.258277920555	0.007777777778
4	39903	396.309673921609	0.007777777778
4	39908	396.511177431588	0.007777777778
4	39913	396.615880970821	0.007777777778
4	39918	396.707384061063	0.007777777778
4	39923	396.715161838841	0.00932018359
4	39928	396.758712209201	0.007777777778
4	39933	396.818564005136	0.007777777778
4	39938	396.826341782914	0.008244140793
4	39943	396.934598840329	0.007777777778
4	39948	396.942376618107	0.010038309467
4	39953	396.950154395885	0.012081130557
4	39958	397.056017601573	0.007777777778
4	39963	397.101005159328	0.007777777778
4	39968	397.108782937106	0.008739911923
4	39973	397.166696609776	0.007777777778
4	39978	397.174474387554	0.007975608929
4	39983	397.20617466575	0.007777777778
4	39988	397.253235970719	0.007777777778
4	39993	397.342115320535	0.007777777778
4	39998	397.47445450237	0.007777777778
4	40003	397.482232280148	0.007956630572
4	40008	397.49094594421	0.007777777778
4	40013	397.530660894836	0.007777777778
4	40018	397.541129006246	0.007777777778
4	40023	397.588641646484	0.007777777778
4	40028	397.596419424262	0.011298456506
4	40033	397.640665431637	0.007777777778
4	40038	397.745908337494	0.007777777778
4	40043	397.758511764671	0.007777777778
4	40048	397.877573148315	0.007777777778
4	40053	397.8896348323	0.007777777778
4	40058	397.952469334835	0.007777777778
4	40063	397.971020070586	0.007777777778
4	40068	398.020035282327	0.007777777778
4	40073	398.034328164723	0.007777777778
4	40078	398.097148066346	0.007777777778
4	40083	398.11189679326	0.007777777778
4	40088	398.148712504586	0.007777777778
4	40093	398.23340551351	0.007777777778
4	40098	398.252043646007	0.007777777778
4	40103	398.259821423785	0.008364441783
4	40108	398.308385368799	0.007777777778
4	40113	398.319257509848	0.007777777778
4	40118	398.329772389702	0.007777777778
4	40123	398.352865795568	0.007777777778
4	40128	398.375826067447	0.007777777778
4	40133	398.383603845225	0.012427282392
4	40138	398.56002143667	0.007777777778
4	40143	398.612743833901	0.007777777778
4	40148	398.699474202937	0.007777777778
4	40153	398.793222152381	0.007777777778
4	40158	398.80309841571	0.007777777778
4	40163	398.866628447595	0.007777777778
4	40168	398.88465770667	0.007777777778
4	40173	398.928172807947	0.007777777778
4	40178	399.075494573682	0.007777777778
4	40183	399.252126991281	0.007777777778
4	40188	399.299136673873	0.007777777778
4	40193	399.339764137192	0.007777777778
4	40198	399.380120619792	0.007777777778
4	40203	399.40513249985	0.007777777778
4	40208	399.42632735532	0.007777777778
4	40213	399.447407576172	0.007777777778
4	40218	399.45518535395	0.011498349327
4	40223	399.512927172257	0.007777777778
4	40228	399.622087865853	0.007777777778
4	40233	399.637705984342	0.007777777778
4	40238	399.64548376212	0.012541052521
4	40243	399.655191741688	0.007777777778
4	40248	399.789363527351	0.007777777778
4	40253	399.966895424537	0.007777777778
5	1211	11.210335135261	0.67023408205039
5	1267	11.880569217311	0.09411403299543
5	1273	11.974683250306	0.94609000658648
5	1349	12.920773256892	0.50540137246879
5	1385	13.426174629361	1.4520404809918
5	1536	14.878215110353	0.43716948654467
5	1572	15.315384596898	0.73067874289489
5	1618	16.046063339793	0.66677402647532
5	1679	16.712837366268	0.3521146377079
5	1715	17.064952003976	4.6908296265693
5	2251	21.755781630545	0.20791168016846
5	2257	21.963693310713	1.6517281008374
5	2483	23.61542141155	0.084187660684832
5	2489	23.699609072235	1.0482772594805
5	2570	24.747886331716	1.3410926996217
5	2691	26.088979031338	1.7118737981657
5	2862	27.800852829504	0.58215913219843
5	2893	28.383011961702	0.27778508589579
5	2904	28.660797047598	0.17234334266074
5	2925	28.833140390259	1.4455035450777
5	3051	30.278643935337	2.1197389560452
5	3287	32.398382891382	0.11754642616773
5	3298	32.51592931755	0.3203243692222
5	3324	32.836253686772	0.22835052141783
5	3355	33.06460420819	0.53483663631422
5	3416	33.599440844504	0.12680589893072
5	3432	33.726246743435	0.35109047071598
5	3468	34.077337214151	2.1029400611329
5	3634	36.180277275284	0.99098170067314
5	3764	37.171258975957	0.74165548843152
5	3821	37.912914464389	0.86711447229277
5	3917	38.780028936682	0.67754157636187
5	3998	39.457570513044	0.91611374293023
5	4099	40.373684255974	1.3162874384044
5	4239	41.689971694378	0.3089998524125
5	4266	41.99897154679	0.014688094463003
5	4267	42.013659641253	0.33503350922546
5	4307	42.348693150478	0.098013168093032
5	4334	42.446706318571	0.2924778214009
5	4365	42.739184139972	1.7518904218681
5	4505	44.49107456184	0.39684825229233
5	4537	44.887922814132	1.7927163952199
5	4733	46.680639209352	0.15567685459813
5	4749	46.83631606395	2.2294370453036
5	4975	49.065753109254	0.18105778168802
5	4996	49.246810890942	3.1704071263745
5	5312	52.417218017317	3.3223084586805
5	5623	55.739526475998	0.82402408726164
5	5734	56.56355056326	3.2245599949173
5	6065	59.788110558177	0.094913822423652
5	6076	59.883024380601	0.20876572085646
5	6097	60.091790101457	5.5186933205464
5	6658	65.610483422003	0.024606840441151
5	6659	65.635090262444	0.64894222272666
5	6730	66.284032485171	0.22885425853307
5	6746	66.512886743704	1.1549147598432
5	6871	67.667801503547	1.2034516461559
5	7002	68.871253149703	1.8539025451746
5	7229	70.725155694878	1.5119237204992
5	7395	72.237079415377	0.95743786276469
5	7485	73.194517278142	0.023200145187021
5	7491	73.217717423329	0.82825124999577
5	7598	74.045968673325	0.86195137956775
5	7659	74.907920052893	0.45912256237729
5	7689	75.36704261527	0.0016435199686904
5	7690	75.368686135239	1.174191360501
5	7802	76.54287749574	0.72458130956534
5	7873	77.267458805305	1.693731249251
5	8069	78.961190054556	1.0210824356337
5	8150	79.98227249019	2.5988840062719
5	8386	82.581156496462	4.2422231947216
5	8786	86.823379691184	0.0057515695091922
5	8787	86.829131260693	0.2998863685708
5	8839	87.129017629264	1.2749661522161
5	8955	88.40398378148	1.6220009329676
5	9076	90.025984714448	1.099790375939
5	9147	91.125775090387	2.0439438375156
5	9363	93.169718927903	0.22285034928693
5	9384	93.39256927719	2.5607033196562
5	9675	95.953272596846	1.192917253151
5	9781	97.146189849997	0.00221667022934
5	9782	97.148406520226	0.8566400128014
5	9863	98.005046533027	0.63391340503614
5	9939	98.638959938063	0.86683745051736
5	10010	99.50579738858	3.9882962011113
5	10416	103.494093589691	0.066681506076734
5	10422	103.560775095768	0.50906851184957
5	10492	104.069843607618	0.19509818412341
5	10504	104.264941791741	1.6805713386665
5	10660	105.945513130408	0.41783188619455
5	10726	106.363345016603	0.79066408561342
5	10847	107.154009102216	0.93828735325544
5	10938	108.092296455471	1.4733963223071
5	11104	109.565692777778	0.21750318250116
5	11135	109.783195960279	0.66345456048624
5	11191	110.446650520765	0.1295945452681
5	11206	110.576245066033	0.029543707684069
5	11208	110.605788773717	2.7284495924594
5	11429	113.334238366176	0.090500021879298
5	11430	113.424738388055	0.37248486534439
5	11466	113.797223253399	0.11816864808812
5	11477	113.915391901487	0.64305608838669
5	11538	114.558447989874	0.28934360468116
5	11589	114.847791594555	0.064230893008916
5	11595	114.912022487564	3.3499900685755
5	11916	118.26201255614	0.32205834763849
5	11967	118.584070903778	0.99903681197293
5	12038	119.583107715751	0.2561683954802
5	12074	119.839276111231	1.6964140021493
5	12225	121.53569011338	2.8656436417389
5	12456	124.401333755119	0.83489970183037
5	12556	125.236233456949	0.4736496859262
5	12583	125.709883142875	1.0088342997654
5	12699	126.71871744264	0.48435022926136
5	12765	127.203067671901	1.6707942752598
5	12886	128.873861947161	0.35953898907408
5	12922	129.233400936235	2.6129576009887
5	13233	131.846358537224	0.21707572619266
5	13264	132.063434263417	2.4375662812386
5	13470	134.501000544656	1.3329987124214
5	13630	135.833999257077	1.7418882592777
5	13817	137.575887516355	2.6214421913539
5	14058	140.197329707709	0.098939764205559
5	14069	140.296269471915	1.1527498991371
5	14164	141.449019371052	0.44792659659476
5	14235	141.896945967647	0.55200481699502
5	14304	142.448950784642	0.036154813253514
5	14317	142.485105597896	0.83552069333082
5	14409	143.320626291227	0.79044771793299
5	14500	144.11107400916	0.24204509281671
5	14516	144.353119101977	1.5903351636917
5	14692	145.943454265669	0.17082522753562
5	14713	146.114279493205	0.052496969454137
5	14724	146.166776462659	1.8067563620638
5	15004	147.973532824723	0.20907760580529
5	15026	148.182610430528	1.8646865524034
5	15207	150.047296982931	0.45488295163597
5	15248	150.502179934567	1.0319318772482
5	15344	151.534111811815	0.28009872540327
5	15380	151.814210537218	0.14414840706516
5	15401	151.958358944283	1.585172090745
5	15547	153.543531035028	0.19446188679345
5	15573	153.737992921821	0.43401110197683
5	15634	154.172004023798	0.38399904869443
5	15670	154.556003072492	1.0185385455096
5	15806	155.574541618002	3.1246709525567
5	16111	158.699212570559	0.68006325701799
5	16203	159.379275827577	0.25693974271068
5	16218	159.636215570288	0.87586819730466
5	16300	160.512083767593	2.2135514731675
5	16546	162.725635240761	2.8018008748579
5	16827	165.527436115619	2.6970320749973
5	17118	168.224468190616	2.8742243759167
5	17449	171.098692566533	0.088946006016068
5	17460	171.187638572549	0.11843722625425
5	17481	171.306075798803	1.6680442042716
5	17647	172.974120003075	1.855050532764
5	17858	174.829170535839	5.1905826652754
5	18424	180.019753201114	0.42469097135541
5	18469	180.444444172469	0.43498116369921
5	18501	180.879425336168	0.10628013135241
5	18512	180.98570546752	0.66176537276535
5	18558	181.647470840285	0.48354946138914
5	18584	182.131020301674	1.3553001056876
5	18760	183.486320407362	0.71407422067756
5	18851	184.20039462804	0.46644884345049
5	18889	184.66684347149	3.2468404382185
5	19198	187.913683909708	0.035790408778099
5	19204	187.949474318486	0.46443933183736
5	19245	188.413913650323	0.1656569264631
5	19246	188.579570576786	0.012446548520259
5	19247	188.592017125306	0.38816096674295
5	19298	188.980178092049	1.9640214258708
5	19479	190.94419951792	0.12500537094738
5	19489	191.069204888867	0.11778262954162
5	19496	191.186987518409	0.44579483336389
5	19557	191.632782351773	0.65073741331651
5	19637	192.28351976509	1.195999182967
5	19754	193.479518948057	1.896986866462
5	19955	195.376505814519	1.5713780652
5	20101	196.947883879719	0.72306625670288
5	20187	197.670950136422	0.59089772115223
5	20238	198.261847857574	0.59168835516284
5	20313	198.853536212737	3.531802431274
5	20700	202.385338644011	1.6118228470074
5	20861	203.997161491018	0.71480711331864
5	20917	204.711968604337	0.020602153905119
5	20923	204.732570758242	0.66572455906238
5	20989	205.398295317304	0.85007857362497
5	21069	206.248373890929	0.054892102218669
5	21076	206.303265993148	0.52998061323758
5	21126	206.833246606386	0.28280449772122
5	21143	207.116051104107	4.2088665110362
5	21638	211.324917615143	1.4102859805034
5	21795	212.735203595646	1.6164702274426
5	21936	214.351673823089	0.98750950286976
5	22047	215.339183325959	0.05547264491477
5	22053	215.394655970874	1.3784275644113
5	22209	216.773083535285	0.21131104865216
5	22235	216.984394583937	4.3978540399863
5	22746	221.382248623923	0.60224459810798
5	22792	221.984493222031	0.89144387881095
5	22863	222.875937100842	1.2138281199553
5	22968	224.089765220797	0.70598082037507
5	23039	224.795746041172	0.40353918646011
5	23116	225.199285227632	0.24498393534791
5	23132	225.44426916298	0.44626084856768
5	23187	225.890530011548	0.8534884330651
5	23264	226.744018444613	2.5442817328964
5	23460	229.288300177509	1.5228698349082
5	23636	230.811170012417	3.0711135092455
5	23936	233.882283521663	1.7732253752333
5	24093	235.655508896896	0.523717927244
5	24129	236.17922682414	0.27584661476205
5	24164	236.455073438902	2.2883977473849
5	24386	238.743471186287	1.9307709794292
5	24577	240.674242165716	0.4008556321134
5	24633	241.075097797829	0.15386995310768
5	24639	241.228967750937	0.086362747488022
5	24655	241.315330498425	1.426645624721
5	24811	242.741976123146	0.74806294522735
5	24902	243.490039068373	2.7112063882798
5	25173	246.201245456653	1.0812962436491
5	25289	247.282541700302	1.2587043539909
5	25435	248.541246054293	2.2347796820557
5	25631	250.776025736349	0.1370247739389
5	25659	250.913050510288	3.3569187429311
5	26013	254.269969253219	0.13047093542951
5	26029	254.400440188649	1.4693832881672
5	26165	255.869823476816	0.92965558624774
5	26246	256.799479063064	1.4233696953086
5	26352	258.222848758373	4.1102657052756
5	26793	262.333114463649	1.2380434790845
5	26914	263.571157942733	2.3483897511043
5	27120	265.919547693837	1.2091623496506
5	27216	267.128710043488	0.30250631439371
5	27232	267.431216357882	1.4581400602066
5	27353	268.889356418089	0.90815146120841
5	27469	269.797507879297	3.663191330511
5	27845	273.460699209808	0.40648828945772
5	27885	273.867187499266	0.46794896478298
5	27917	274.335136464049	0.58969474861679
5	27958	274.924831212666	0.086707177365035
5	27969	275.011538390031	1.035427645906
5	28075	276.046966035937	0.27396385397144
5	28101	276.320929889908	0.41805508730357
5	28141	276.738984977212	0.25036414345199
5	28168	276.989349120664	1.8587970683724
5	28344	278.848146189036	0.45192766245852
5	28390	279.300073851495	0.98969181696284
5	28435	280.289765668458	1.6623864323537
5	28587	281.952152100812	0.22337419573181
5	28598	282.175526296544	0.061977718511718
5	28614	282.237504015056	0.47959110986232
5	28645	282.717095124918	0.59737084988576
5	28726	283.314465974804	0.74131321476185
5	28767	284.055779189566	1.6775590003008
5	28973	285.733338189867	1.1250880792946
5	29114	286.858426269162	0.30684909148154
5	29135	287.165275360644	0.33025410706556
5	29171	287.49552946771	0.065500031147874
5	29177	287.561029498858	1.4001275911044
5	29293	288.961157089962	0.27721395081513
5	29324	289.238371040777	1.2091871295518
5	29455	290.447558170329	0.088908228102265
5	29471	290.536466398431	0.10095340987535
5	29476	290.637419808306	1.6491014149377
5	29668	292.286521223244	0.10757239647072
5	29683	292.394093619715	0.18663092234378
5	29700	292.580724542059	0.42155110894279
5	29736	293.002275651002	0.2173411982891
5	29754	293.219616849291	1.7148054159848
5	29963	294.934422265276	1.6854662201988
5	30114	296.619888485475	2.5855550273318
5	30305	299.205443512807	1.6622351293503
5	30466	300.867678642157	1.4194469772561
5	30582	302.287125619413	0.8900721419457
5	30658	303.177197761359	2.1126392052686
5	30874	305.289836966628	2.4619834332606
5	31120	307.751820399889	1.9251424354833
5	31286	309.676962835372	0.06168567570091
5	31297	309.738648511073	0.18686990236458
5	31323	309.925518413438	3.3523113115661
5	31709	313.277829725004	0.87879581953922
5	31770	314.156625544543	0.84624058877906
5	31845	315.002866133322	0.43185050074242
5	31867	315.434716634064	0.36027872848027
5	31893	315.794995362544	1.3418998427552
5	31984	317.136895205299	1.7470107911685
5	32135	318.883905996467	0.029398765058824
5	32140	318.913304761526	1.077097245344
5	32262	319.99040200687	0.18990442706425
5	32293	320.180306433934	4.3051726236822
5	32659	324.485479057616	0.14374213717312
5	32680	324.629221194789	0.11371703091015
5	32696	324.742938225699	3.9235644681648
5	33057	328.666502693864	0.86968991826914
5	33118	329.536192612133	2.6891236716205
5	33384	332.225316283754	0.64022869301078
5	33464	332.865544976765	1.2249266733315
5	33626	334.090471650097	1.0563312221166
5	33697	335.146802872214	2.749550868695
5	33953	337.896353740909	0.27688596444608
5	33979	338.173239705355	1.336308875428
5	34124	339.509548580783	0.031624899199545
5	34126	339.541173479983	0.4853436910977
5	34181	340.026517171081	0.78577213181475
5	34278	340.812289302896	2.2044391797089
5	34549	343.016728482605	0.45367397453714
5	34575	343.470402457142	0.85799282714789
5	34720	344.32839528429	2.2287146501748
5	34947	346.557109934465	1.768226365201
5	35107	348.325336299666	0.61497502189121
5	35159	348.940311321557	0.10016729457025
5	35169	349.040478616127	0.54240935652061
5	35238	349.582887972648	0.1333455471791
5	35247	349.716233519827	1.0021360844428
5	35358	350.71836960427	1.2858155183328
5	35489	352.004185122603	0.74903804252397
5	35569	352.753223165127	0.23291504680334
5	35586	352.98613821193	3.2496222959203
5	35952	356.23576050785	0.45013712044759
5	36002	356.685897628298	1.5559450573034
5	36164	358.241842685601	2.8960455714308
5	36415	361.137888257032	0.68655994341583
5	36505	361.824448200448	1.3557182889339
5	36651	363.180166489382	0.23716768491825
5	36683	363.4173341743	0.55804053632563
5	36744	363.975374710626	0.92630102119786
5	36837	364.901675731824	0.18149144574831
5	36851	365.083167177572	1.3806137565452
5	36976	366.463780934117	0.75167940408652
5	37028	367.215460338204	1.410029157443
5	37139	368.625489495647	0.11560729487232
5	37165	368.741096790519	5.0365692336411
5	37661	373.77766602416	1.2161013313127
5	37761	374.993767355473	0.24653728743602
5	37792	375.240304642909	1.5348355443466
5	37974	376.775140187256	0.55449425927596
5	38035	377.329634446532	1.9593084044708
5	38216	379.288942851003	0.5513865382591
5	38267	379.840329389262	1.2113983563687
5	38383	381.051727745631	0.3836739224339
5	38414	381.435401668065	2.3127981349745
5	38650	383.74819980304	0.45465485381452
5	38681	384.202854656855	1.4471343984053
5	38822	385.64998905526	0.64997526720893
5	38868	386.299964322469	1.4253554575782
5	38989	387.725319780047	0.78108352554557
5	39095	388.506403305593	0.080024915379693
5	39120	388.586428220973	0.30819809457789
5	39167	388.894626315551	0.10439264966751
5	39178	388.999018965219	0.14429047070265
5	39194	389.143309435922	0.32566629871092
5	39240	389.468975734633	0.35937300747667
5	39296	389.82834874211	0.16543254926756
5	39302	389.993781291378	0.14673833455396
5	39313	390.140519625932	0.11644212140339
5	39324	390.256961747335	0.38228613274614
5	39335	390.639247880081	0.65224053701985
5	39401	391.291488417101	1.1368834321234
5	39557	392.428371849224	0.39077391326433
5	39573	392.819145762488	0.91964924737013
5	39659	393.738795009858	1.1945930464664
5	39815	394.933388056324	5.8872733794159

