file 15958864 1609699890                                        
version 2
run non-monitoring-0-20210103-19:51:23-22281
attr configname non-monitoring
attr datetime 20210103-19:51:23
attr experiment non-monitoring
attr inifile ../simulations/aerocom.ini
attr iterationvars ""
attr iterationvarsf ""
attr measurement ""
attr network Aerocom
attr processid 22281
attr repetition 0
attr replication #0
attr resultdir results
attr runnumber 0
attr seedset 0
param **.t 2s
param **.k 0.05s
param **.nDL 2
param **.dataLink[*].s "70 byte"
param **.dataLink[*].X 5s
param **.dataLink[*].dimPoolMax 1500
param **.dataLink[*].dimPoolMin 1400
param **.dataLink[*].tDistribution "\"exponential\""
param **.aircraft[*].m 1s
param **.aircraft[*].linkSelector.DLMaxCapacity 0
param **.aircraft[*].linkSelector.trasmitting false
param **.operationMode 1

vector 0 Aerocom.aircraft[0].dataLink[0] waitingTime:vector ETV
attr "" ""
attr source computeWaitingTime
vector 1 Aerocom.aircraft[0].dataLink[0] responseTime:vector ETV
attr "" ""
attr source computeResponseTime
vector 2 Aerocom.aircraft[0].packetGenerator arrivalTime:vector ETV
attr "" ""
attr source computeArrivalTime
vector 3 Aerocom.aircraft[0].dataLink[0] queueLength:vector ETV
attr "" ""
attr source computeQueueLength
0	1205 1422401 1011173 1176691 10000.02725958355 11642.234956333659 32768 -1e-12 3.291078281689 19375.872582442 21238.509251305
1	1423606 1434649 1011173 1176691 10000.02725958355 11642.234956333659 32768 0.046728971963 3.338407558226 20958.423112399 23188.848431721
2	2858255 1434426 1011179 1176698 10000.143954667181 11642.287289620925 32768 1.460743e-06 0.566525934355 1642.3098973427 164.65112086387
3	4292681 1027368 1011181 1176700 10000.143954667181 11642.287289620925 32768 0 68 384787 8686013
2	5320049 1434585 1176704 1342150 11642.453852009868 13287.014691313407 32768 9.94779e-07 0.509397706144 1644.6754999492 163.74456072407
3	6754634 1026665 1176706 1342152 11642.453852009868 13287.014691313407 32768 0 58 385800 9001152
0	7781299 1421817 1176696 1342209 11642.28356744477 13287.650183112183 32768 -1e-12 2.877680786143 19447.942917402 22057.177428706
1	9203116 1434724 1176696 1342209 11642.28356744477 13287.650183112183 32768 0.046760187041 2.927046089386 21032.83395234 24017.744614164
0	10637840 1421059 1342214 1507669 13287.698425703499 14936.465131995103 32768 -1e-12 2.647406333787 16605.517125864 15397.011721918
1	12058899 1434605 1342214 1507669 13287.698425703499 14936.465131995103 32768 0.046728971963 2.695025381407 18189.054500238 17079.376767952
2	13493504 1434490 1342159 1507677 13287.129351959096 14936.683066124643 32768 1.761581e-06 0.52892278115 1649.5978731044 166.03023653619
3	14927994 1025635 1342161 1507679 13287.129351959096 14936.683066124643 32768 0 55 327661 6252457
0	15953629 1406 1507674 1507840 14936.512718670834 14938.430930091265 33 -1e-12 0.187102364621 2.266896069264 0.24711194126252
1	15955035 1444 1507674 1507840 14936.512718670834 14938.430930091265 33 0.047586675731 0.236363448364 3.871360021747 0.54615849266809
2	15956479 1397 1507681 1507837 14936.727225063551 14938.418284324512 32 0.00385079791 0.169081946062 1.70397948588 0.16754791901801
3	15957876 987 1507683 1507839 14936.727225063551 14938.418284324512 32 0 3 34 68

