version 2
run Non-monitoring-5-20210208-19:10:40-18592
attr configname Non-monitoring
attr datetime 20210208-19:10:40
attr experiment Non-monitoring
attr inifile aerocom.ini
attr iterationvars ""
attr iterationvarsf ""
attr measurement ""
attr network Aerocom
attr processid 18592
attr repetition 5
attr replication #5
attr resultdir results
attr runnumber 5
attr seedset 5
param **.t 1s
param **.k 15ms
param **.nA 1
param **.nDL 10
param **.s "70 byte"
param **.X 5s
param **.dimPoolMax 10000
param **.dimPoolMin 8000
param **.tDistribution "\"lognormal\""
param **.m 1s
param **.DLMaxCapacity 0
param **.trasmitting false
param **.operationMode 1

vector 0 Aerocom.aircraft[0].packetGenerator arrivalTime:vector ETV
attr "" ""
attr source computeArrivalTime
vector 1 Aerocom.aircraft[0].dataLink[0] serviceTime:vector ETV
attr "" ""
attr source computeServiceTime
vector 2 Aerocom.aircraft[0].dataLink[0] tDistribution:vector ETV
attr "" ""
attr source computeTDistribution
vector 3 Aerocom.aircraft[0].dataLink[1] serviceTime:vector ETV
attr "" ""
attr source computeServiceTime
vector 4 Aerocom.aircraft[0].dataLink[1] tDistribution:vector ETV
attr "" ""
attr source computeTDistribution
vector 5 Aerocom.aircraft[0].dataLink[2] serviceTime:vector ETV
attr "" ""
attr source computeServiceTime
vector 6 Aerocom.aircraft[0].dataLink[2] tDistribution:vector ETV
attr "" ""
attr source computeTDistribution
vector 7 Aerocom.aircraft[0].dataLink[3] serviceTime:vector ETV
attr "" ""
attr source computeServiceTime
vector 8 Aerocom.aircraft[0].dataLink[3] tDistribution:vector ETV
attr "" ""
attr source computeTDistribution
vector 9 Aerocom.aircraft[0].dataLink[4] serviceTime:vector ETV
attr "" ""
attr source computeServiceTime
vector 10 Aerocom.aircraft[0].dataLink[4] tDistribution:vector ETV
attr "" ""
attr source computeTDistribution
vector 11 Aerocom.aircraft[0].dataLink[5] serviceTime:vector ETV
attr "" ""
attr source computeServiceTime
vector 12 Aerocom.aircraft[0].dataLink[5] tDistribution:vector ETV
attr "" ""
attr source computeTDistribution
vector 13 Aerocom.aircraft[0].dataLink[6] serviceTime:vector ETV
attr "" ""
attr source computeServiceTime
vector 14 Aerocom.aircraft[0].dataLink[6] tDistribution:vector ETV
attr "" ""
attr source computeTDistribution
vector 15 Aerocom.aircraft[0].dataLink[7] serviceTime:vector ETV
attr "" ""
attr source computeServiceTime
vector 16 Aerocom.aircraft[0].dataLink[7] tDistribution:vector ETV
attr "" ""
attr source computeTDistribution
vector 17 Aerocom.aircraft[0].dataLink[8] serviceTime:vector ETV
attr "" ""
attr source computeServiceTime
vector 18 Aerocom.aircraft[0].dataLink[8] tDistribution:vector ETV
attr "" ""
attr source computeTDistribution
vector 19 Aerocom.aircraft[0].dataLink[9] serviceTime:vector ETV
attr "" ""
attr source computeServiceTime
vector 20 Aerocom.aircraft[0].dataLink[9] tDistribution:vector ETV
attr "" ""
attr source computeTDistribution
vector 21 Aerocom.aircraft[0].dataLink[6] queueLength:vector ETV
attr "" ""
attr source computeQueueLength
vector 22 Aerocom.aircraft[0].dataLink[6] waitingTime:vector ETV
attr "" ""
attr source computeWaitingTime
vector 23 Aerocom.aircraft[0].dataLink[6] responseTime:vector ETV
attr "" ""
attr source computeResponseTime
0	0	0	0.028339032596
0	12	0.028339032596	0.000495528539
0	16	0.028834561135	0.004600870578
0	20	0.033435431713	0.012007069854
0	27	0.045442501567	0.030116866573
0	33	0.07555936814	0.06245041139
0	38	0.13800977953	0.024682154991
0	43	0.162691934521	0.008232863429
0	48	0.17092479795	0.003546292759
0	52	0.174471090709	0.026895372491
0	58	0.2013664632	0.002745201438
0	62	0.204111664638	0.018358380555
0	68	0.222470045193	0.000717485012
0	72	0.223187530205	0.022351226541
0	78	0.245538756746	0.000603306302
0	82	0.246142063048	0.00185964213
0	85	0.248001705178	0.003351481662
0	88	0.25135318684	0.006780432367
0	93	0.258133619207	0.09797477015
0	103	0.356108389357	0.026010571403
0	108	0.38211896076	0.006997035693
0	112	0.389115996453	0.004499445573
0	117	0.393615442026	0.021438671629
0	123	0.415054113655	0.001371884805
0	127	0.41642599846	0.009621830949
0	132	0.426047829409	0.049452613633
0	138	0.475500443042	0.010691535701
0	143	0.486191978743	0.004796278895
0	147	0.490988257638	0.043516812146
0	153	0.534505069784	0.003881898424
0	157	0.538386968208	0.001738684017
0	160	0.540125652225	0.009741416209
0	167	0.549867068434	0.009384940173
0	172	0.559252008607	0.006374191394
0	177	0.565626200001	0.00228949458
0	180	0.567915694581	0.006938512083
0	185	0.574854206664	0.011594183388
0	192	0.586448390052	0.019546676107
0	198	0.605995066159	0.00532868211
0	202	0.611323748269	0.006473641866
0	207	0.617797390135	0.011574585934
0	213	0.629371976069	0.013493630412
0	218	0.642865606481	0.016432496045
0	223	0.659298102526	0.025812752286
0	228	0.685110854812	0.006796107424
0	232	0.691906962236	0.029196929721
0	238	0.721103891957	0.014633392085
0	243	0.735737284042	0.01332946153
0	248	0.749066745572	0.015438737335
0	253	0.764505482907	0.026288628612
0	259	0.790794111519	0.007743665014
0	264	0.798537776533	0.005918632391
0	268	0.804456408924	0.007424784373
0	273	0.811881193297	0.002152804765
0	278	0.814033998062	0.007817925991
0	283	0.821851924053	0.027836097084
0	289	0.849688021137	0.00124528116
0	293	0.850933302297	0.016361476825
0	299	0.867294779122	0.000877650118
0	303	0.86817242924	0.01980986245
0	309	0.88798229169	0.00122353528
0	313	0.88920582697	0.013334102221
0	319	0.902539929191	0.017845024658
0	324	0.920384953849	0.002686863119
0	328	0.923071816968	0.000443887968
0	331	0.923515704936	0.009911045274
0	336	0.93342675021	0.010381987994
0	343	0.943808738204	0.019598947242
0	349	0.963407685446	0.002134419176
0	353	0.965542104622	0.022882772356
0	359	0.988424876978	0.000468577796
0	363	0.988893454774	0.004470347847
0	366	0.993363802621	0.015303510141
0	373	1.008667312762	0.002407950305
0	378	1.011075263067	0.00885880888
0	383	1.019934071947	0.000805620514
0	386	1.020739692461	0.055099011523
0	394	1.075838703984	0.006232759241
0	398	1.082071463225	0.006001924194
0	403	1.088073387419	0.003625660074
0	408	1.091699047493	0.003261613067
0	411	1.09496066056	0.021817032854
0	419	1.116777693414	0.017282389644
0	424	1.134060083058	0.009346243767
0	429	1.143406326825	0.006487123393
0	433	1.149893450218	0.039014325487
0	439	1.188907775705	0.022112864762
0	444	1.211020640467	0.006195212347
0	448	1.217215852814	0.023538805945
0	454	1.240754658759	0.001669736553
0	458	1.242424395312	0.008801421591
0	463	1.251225816903	0.03052833887
0	469	1.281754155773	0.004696604424
0	473	1.286450760197	0.02547244356
0	479	1.311923203757	0.000362921598
0	483	1.312286125355	0.003675284753
0	486	1.315961410108	0.006962293231
0	491	1.322923703339	0.005560913226
0	496	1.328484616565	0.001542636635
0	499	1.3300272532	0.014626739707
0	506	1.344653992907	0.019502991099
0	514	1.364156984006	0.011612008452
0	519	1.375768992458	0.009227367375
0	524	1.384996359833	0.036257387796
0	529	1.421253747629	0.011025060559
0	534	1.432278808188	0.004947838999
0	538	1.437226647187	0.017307231749
0	545	1.454533878936	0.002878097329
0	549	1.457411976265	0.013875169174
0	555	1.471287145439	0.016249816256
0	560	1.487536961695	0.026046214582
0	566	1.513583176277	0.005957509522
0	570	1.519540685799	0.032831509134
0	576	1.552372194933	0.009556991815
0	581	1.561929186748	0.003734605746
0	585	1.565663792494	0.001001531089
0	588	1.566665323583	0.00169455172
0	591	1.568359875303	0.014234689382
0	598	1.582594564685	0.000181242424
0	601	1.582775807109	0.022373077747
0	610	1.605148884856	0.037504824424
0	616	1.64265370928	0.049934671977
0	621	1.692588381257	0.015182372256
0	627	1.707770753513	0.006508926996
0	631	1.714279680509	0.011896250875
0	638	1.726175931384	0.017917772532
0	643	1.744093703916	0.031271749903
0	649	1.775365453819	0.002407579548
0	653	1.777773033367	0.005428623683
0	658	1.78320165705	0.000815910378
0	661	1.784017567428	0.005249673461
0	664	1.789267240889	0.042102619762
0	674	1.831369860651	0.012628364095
0	679	1.843998224746	0.00236281229
0	683	1.846361037036	0.020404699815
0	689	1.866765736851	0.014416507031
0	694	1.881182243882	0.00600750355
0	698	1.887189747432	0.00698977593
0	703	1.894179523362	0.014041751176
0	709	1.908221274538	0.015967442583
0	714	1.924188717121	0.010874997666
0	719	1.935063714787	0.00503550692
0	723	1.940099221707	0.037848612204
0	729	1.977947833911	0.009571063456
0	734	1.987518897367	0.003372799265
0	738	1.990891696632	0.00074339988
0	741	1.991635096512	2.4691665e-005
0	744	1.991659788177	0.015733068278
0	751	2.007392856455	0.001116541192
0	754	2.008509397647	0.017467312862
0	763	2.025976710509	0.008183701647
0	768	2.034160412156	0.047865616786
0	774	2.082026028942	0.010364763986
0	779	2.092390792928	0.001742704008
0	783	2.094133496936	0.0127909981
0	788	2.106924495036	0.024647780376
0	795	2.131572275412	0.003360658668
0	799	2.13493293408	0.027636624355
0	805	2.162569558435	0.008201405633
0	810	2.170770964068	0.003322243067
0	814	2.174093207135	0.040385016435
0	820	2.21447822357	0.037142718407
0	825	2.251620941977	0.006771633529
0	829	2.258392575506	0.010852910286
0	835	2.269245485792	0.000226767813
0	839	2.269472253605	0.022430954137
0	845	2.291903207742	0.034497943583
0	850	2.326401151325	0.014911088121
0	856	2.341312239446	0.053076959036
0	861	2.394389198482	0.008393127221
0	866	2.402782325703	0.014577857718
0	871	2.417360183421	0.037626045516
0	876	2.454986228937	0.041294722863
0	881	2.4962809518	0.017652864386
0	886	2.513933816186	0.013708391654
0	891	2.52764220784	0.016942319226
0	896	2.544584527066	0.002249768046
0	900	2.546834295112	0.019578782782
0	906	2.566413077894	0.017015522253
0	911	2.583428600147	0.001344984947
0	915	2.584773585094	0.011856077366
0	920	2.59662966246	0.015778802129
0	926	2.612408464589	0.000136283025
0	930	2.612544747614	0.014087588367
0	935	2.626632335981	0.022359513576
0	941	2.648991849557	0.005875339491
0	945	2.654867189048	0.00194180157
0	950	2.656808990618	0.002760421651
0	953	2.659569412269	0.01092832479
0	958	2.670497737059	0.005278207738
0	963	2.675775944797	0.016438096358
0	970	2.692214041155	1.639835e-005
0	973	2.692230439505	0.021589911751
0	981	2.713820351256	0.00428853967
0	985	2.718108890926	0.04242250486
0	992	2.760531395786	0.003283291823
0	996	2.763814687609	0.003535753977
0	999	2.767350441586	0.028430969452
0	1007	2.795781411038	0.00682064253
0	1011	2.802602053568	0.029135508969
0	1017	2.831737562537	0.007694631431
0	1022	2.839432193968	0.018418202989
0	1027	2.857850396957	0.013374171648
0	1032	2.871224568605	0.011565481892
0	1037	2.882790050497	0.07652820341
0	1042	2.959318253907	0.000373687538
0	1046	2.959691941445	0.014182274159
0	1051	2.973874215604	0.016157933812
0	1057	2.990032149416	0.017233812833
0	1062	3.007265962249	0.033549544838
0	1067	3.040815507087	0.001517395226
0	1071	3.042332902313	0.003805567533
0	1074	3.046138469846	0.008537992418
0	1079	3.054676462264	0.016160661621
0	1087	3.070837123885	0.002074432784
0	1091	3.072911556669	0.015098605739
0	1097	3.088010162408	0.003638783068
0	1101	3.091648945476	0.024418096712
0	1107	3.116067042188	0.028463395555
0	1112	3.144530437743	0.078643538696
0	1117	3.223173976439	0.006930275913
0	1121	3.230104252352	0.000482988196
0	1124	3.230587240548	0.003885690036
0	1129	3.234472930584	0.009815071768
0	1134	3.244288002352	0.029484478197
0	1142	3.273772480549	0.017619852199
0	1147	3.291392332748	0.00940339269
0	1152	3.300795725438	0.006758696681
0	1156	3.307554422119	0.017003506165
0	1162	3.324557928284	0.002929853488
0	1166	3.327487781772	0.007119237267
0	1171	3.334607019039	0.001735153879
0	1174	3.336342172918	0.018904632159
0	1182	3.355246805077	0.000825391376
0	1186	3.356072196453	0.006812421555
0	1191	3.362884618008	0.011641346549
0	1196	3.374525964557	0.012028430397
0	1202	3.386554394954	0.015391875187
0	1207	3.401946270141	0.013238078041
0	1212	3.415184348182	0.045246670694
0	1217	3.460431018876	0.001839098207
0	1221	3.462270117083	8.824049e-006
0	1224	3.462278941132	0.002607012845
0	1227	3.464885953977	0.051249370733
0	1237	3.51613532471	0.020523176446
0	1242	3.536658501156	0.004841155603
0	1246	3.541499656759	0.009589595372
0	1251	3.551089252131	0.000387091677
0	1254	3.551476343808	0.014922013134
0	1261	3.566398356942	0.003376492052
0	1266	3.569774848994	0.025070792135
0	1272	3.594845641129	0.014319686398
0	1277	3.609165327527	0.001024200554
0	1281	3.610189528081	0.018761571888
0	1287	3.628951099969	0.005348386727
0	1291	3.634299486696	0.064295742473
0	1297	3.698595229169	0.014655827793
0	1302	3.713251056962	0.009193884509
0	1307	3.722444941471	0.010194213526
0	1312	3.732639154997	0.019451470173
0	1317	3.75209062517	0.02335408586
0	1322	3.77544471103	0.037172660273
0	1327	3.812617371303	0.027375704824
0	1332	3.839993076127	0.006561758141
0	1336	3.846554834268	0.02148675028
0	1342	3.868041584548	0.003015038295
0	1346	3.871056622843	0.001942946911
0	1349	3.872999569754	0.018367012633
0	1357	3.891366582387	0.05247027371
0	1362	3.943836856097	0.012058476958
0	1367	3.955895333055	0.029905479504
0	1372	3.985800812559	0.088113669687
0	1377	4.073914482246	0.001568588362
0	1381	4.075483070608	0.00038078895
0	1384	4.075863859558	0.006293194279
0	1389	4.082157053837	0.046413889099
0	1397	4.128570942936	0.000551936821
0	1401	4.129122879757	0.03320742998
0	1407	4.162330309737	0.013258837315
0	1412	4.175589147052	0.011632848041
0	1417	4.187221995093	0.023946751564
0	1422	4.211168746657	0.01317290904
0	1427	4.224341655697	0.052170068937
0	1432	4.276511724634	0.014358540528
0	1437	4.290870265162	0.051869018007
0	1442	4.342739283169	0.005509852962
0	1446	4.348249136131	0.001234909177
0	1449	4.349484045308	0.01445178089
0	1456	4.363935826198	0.003063777746
0	1461	4.366999603944	0.022384113869
0	1467	4.389383717813	0.032252561788
0	1472	4.421636279601	0.043066945261
0	1477	4.464703224862	0.020468799036
0	1482	4.485172023898	0.001311686087
0	1486	4.486483709985	0.002741117161
0	1489	4.489224827146	5.8030751e-005
0	1492	4.489282857897	0.00865740138
0	1497	4.497940259277	0.003352311121
0	1502	4.501292570398	0.010781819647
0	1507	4.512074390045	0.009531054815
0	1512	4.52160544486	0.003676651997
0	1517	4.525282096857	0.001811043203
0	1520	4.52709314006	0.001607823286
0	1523	4.528700963346	0.010887718332
0	1530	4.539588681678	0.004294543879
0	1533	4.543883225557	0.001031370418
0	1538	4.544914595975	0.050993525863
0	1552	4.595908121838	0.001313740389
0	1556	4.597221862227	0.025876646232
0	1562	4.623098508459	0.019841546193
0	1567	4.642940054652	0.008567026735
0	1572	4.651507081387	0.009862701222
0	1577	4.661369782609	0.026387554515
0	1582	4.687757337124	0.048754239966
0	1587	4.73651157709	0.00073056008
0	1591	4.73724213717	0.020942677578
0	1597	4.758184814748	0.02203557167
0	1602	4.780220386418	0.004931845594
0	1606	4.785152232012	0.050546162067
0	1612	4.835698394079	0.043844033923
0	1617	4.879542428002	0.000470396197
0	1621	4.880012824199	0.06005037971
0	1627	4.940063203909	0.0134067887
0	1632	4.953469992609	0.004547920245
0	1636	4.958017912854	0.02069489572
0	1642	4.978712808574	0.010898700711
0	1647	4.989611509285	0.00331775475
0	1651	4.992929264035	0.005728934286
0	1656	4.998658198321	0.009029483231
0	1672	5.007687681552	0.035129354443
0	1677	5.042817035995	0.004370714162
0	1681	5.047187750157	0.011194637896
0	1687	5.058382388053	0.025495073136
0	1692	5.083877461189	0.006994541673
0	1696	5.090872002862	0.045196473588
0	1702	5.13606847645	0.020140533321
0	1707	5.156209009771	0.004562205183
0	1711	5.160771214954	0.000170245319
0	1714	5.160941460273	0.002144962276
0	1717	5.163086422549	0.006717158995
0	1722	5.169803581544	0.002756537543
0	1727	5.172560119087	0.011415445576
0	1732	5.183975564663	0.007924630549
0	1737	5.191900195212	0.01021318253
0	1744	5.202113377742	0.009930895407
0	1749	5.212044273149	0.001057916471
0	1752	5.21310218962	0.00236896405
0	1755	5.21547115367	0.009661983594
0	1762	5.225133137264	0.018963991796
0	1769	5.24409712906	0.014377625264
0	1776	5.258474754324	0.006927059447
0	1781	5.265401813771	0.016859147654
0	1787	5.282260961425	0.002589373926
0	1791	5.284850335351	0.004636684718
0	1794	5.289487020069	0.013859105435
0	1801	5.303346125504	0.002227680746
0	1806	5.30557380625	0.005612582768
0	1809	5.311186389018	0.032386106515
0	1817	5.343572495533	0.03830011234
0	1822	5.381872607873	0.022976893339
0	1827	5.404849501212	0.02199292556
0	1832	5.426842426772	0.005306577462
0	1836	5.432149004234	0.011674848085
0	1842	5.443823852319	0.011834216546
0	1847	5.455658068865	0.004685037501
0	1851	5.460343106366	0.029756819622
0	1857	5.490099925988	0.019809325154
0	1862	5.509909251142	0.05350937961
0	1867	5.563418630752	0.0001103778
0	1871	5.563529008552	0.008176248292
0	1876	5.571705256844	0.033963530525
0	1882	5.605668787369	0.096824318869
0	1887	5.702493106238	0.003520787982
0	1891	5.70601389422	0.006920141709
0	1896	5.712934035929	0.027613315957
0	1902	5.740547351886	0.003702367177
0	1906	5.744249719063	0.010038138763
0	1911	5.754287857826	0.003567052667
0	1916	5.757854910493	0.032390791049
0	1922	5.790245701542	0.0124948918
0	1927	5.802740593342	0.010043366776
0	1932	5.812783960118	0.002082110986
0	1936	5.814866071104	0.010233421745
0	1941	5.825099492849	0.019506876129
0	1947	5.844606368978	0.003524829265
0	1951	5.848131198243	0.053241659449
0	1957	5.901372857692	0.004560996151
0	1961	5.905933853843	0.040634590274
0	1967	5.946568444117	0.01465061697
0	1972	5.961219061087	0.0028327083
0	1976	5.964051769387	0.009109517175
0	1981	5.973161286562	0.014347072324
0	1987	5.987508358886	0.035928470359
0	1992	6.023436829245	0.011459965749
0	1997	6.034896794994	0.01214495695
0	2002	6.047041751944	0.019367453265
0	2007	6.066409205209	0.01821534168
0	2012	6.084624546889	0.018518471733
0	2017	6.103143018622	0.003444876251
0	2021	6.106587894873	0.013333250962
0	2027	6.119921145835	0.00460758787
0	2031	6.124528733705	0.01638507791
0	2037	6.140913811615	0.008092835533
0	2042	6.149006647148	0.008127762258
0	2047	6.157134409406	0.000397067428
0	2051	6.157531476834	0.029559791635
0	2057	6.187091268469	0.018517919501
0	2062	6.20560918797	0.023264594039
0	2067	6.228873782009	0.008165174299
0	2072	6.237038956308	0.013792614303
0	2077	6.250831570611	0.000303693411
0	2081	6.251135264022	0.022729927462
0	2087	6.273865191484	0.016993455015
0	2092	6.290858646499	0.00434207206
0	2096	6.295200718559	0.006810507788
0	2101	6.302011226347	0.002073456478
0	2104	6.304084682825	0.003830150608
0	2109	6.307914833433	0.003179504341
0	2112	6.311094337774	0.010669697963
0	2119	6.321764035737	0.002292874858
0	2122	6.324056910595	0.002339814836
0	2125	6.326396725431	0.003387946755
0	2130	6.329784672186	0.042462270619
0	2142	6.372246942805	0.000381550309
0	2146	6.372628493114	0.000240971685
0	2149	6.372869464799	0.037372414993
0	2157	6.410241879792	0.01952342589
0	2162	6.429765305682	0.013188453506
0	2167	6.442953759188	0.029335662625
0	2172	6.472289421813	0.007096019389
0	2176	6.479385441202	0.030925816453
0	2182	6.510311257655	0.047761097922
0	2187	6.558072355577	0.011274569736
0	2192	6.569346925313	0.024276576213
0	2197	6.593623501526	0.007874141496
0	2202	6.601497643022	0.014757899289
0	2207	6.616255542311	0.020353863352
0	2212	6.636609405663	0.017859008602
0	2217	6.654468414265	0.024173083118
0	2222	6.678641497383	0.027288673809
0	2227	6.705930171192	0.004710032055
0	2231	6.710640203247	0.031103853801
0	2237	6.741744057048	0.004601672915
0	2241	6.746345729963	0.004462363577
0	2246	6.75080809354	0.004270552885
0	2249	6.755078646425	0.020217623915
0	2257	6.77529627034	0.029505554446
0	2262	6.804801824786	0.01795444763
0	2267	6.822756272416	0.044218321331
0	2272	6.866974593747	0.051629987399
0	2277	6.918604581146	0.00250873975
0	2281	6.921113320896	0.008356869065
0	2286	6.929470189961	0.04361288925
0	2292	6.973083079211	0.022051879251
0	2297	6.995134958462	0.010497127374
0	2302	7.005632085836	0.00010788613
0	2306	7.005739971966	0.005836634841
0	2309	7.011576606807	0.019658134928
0	2317	7.031234741735	0.021404049748
0	2322	7.052638791483	0.008086564397
0	2327	7.06072535588	0.038950040471
0	2332	7.099675396351	0.029277825229
0	2337	7.12895322158	0.004527068771
0	2341	7.133480290351	0.024539101929
0	2347	7.15801939228	0.001292914405
0	2351	7.159312306685	0.015464453391
0	2357	7.174776760076	0.000825210178
0	2361	7.175601970254	0.004274312606
0	2364	7.17987628286	0.024531059112
0	2372	7.204407341972	0.003756006161
0	2376	7.208163348133	0.005603583101
0	2381	7.213766931234	0.005049068153
0	2384	7.218815999387	0.015750157549
0	2392	7.234566156936	0.005997487124
0	2396	7.24056364406	0.002820625123
0	2401	7.243384269183	0.001403453152
0	2404	7.244787722335	0.024149886997
0	2412	7.268937609332	0.008783835114
0	2417	7.277721444446	0.007725224479
0	2422	7.285446668925	0.005741205447
0	2426	7.291187874372	0.000934629747
0	2429	7.292122504119	0.02968584601
0	2437	7.321808350129	0.013836134369
0	2442	7.335644484498	0.005073228652
0	2446	7.34071771315	0.002872469752
0	2452	7.343590182902	0.035323986974
0	2458	7.378914169876	0.008131235944
0	2463	7.38704540582	0.004574403271
0	2467	7.391619809091	0.039521178697
0	2473	7.431140987788	0.043934523271
0	2478	7.475075511059	0.039542780656
0	2483	7.514618291715	0.004564079222
0	2487	7.519182370937	0.005599874391
0	2492	7.524782245328	0.03322972637
0	2498	7.558011971698	0.004328091802
0	2502	7.5623400635	0.002165382305
0	2505	7.564505445805	0.03067735892
0	2513	7.595182804725	0.019099951881
0	2518	7.614282756606	0.017373946681
0	2523	7.631656703287	0.001773991648
0	2527	7.633430694935	0.005804751961
0	2532	7.639235446896	0.004266385706
0	2535	7.643501832602	0.016602825135
0	2542	7.660104657737	0.012215980776
0	2548	7.672320638513	0.042202568032
0	2553	7.714523206545	0.015578975972
0	2558	7.730102182517	0.025178937685
0	2563	7.755281120202	0.015368697099
0	2568	7.770649817301	0.000883487961
0	2572	7.771533305262	0.029392678578
0	2578	7.80092598384	0.057653537006
0	2583	7.858579520846	0.008103215855
0	2588	7.866682736701	0.034647033647
0	2593	7.901329770348	0.02936940586
0	2598	7.930699176208	0.007481588192
0	2602	7.9381807644	0.004318494163
0	2607	7.942499258563	0.033305891067
0	2613	7.97580514963	0.013885845988
0	2618	7.989690995618	0.009633313827
0	2623	7.999324309445	0.00010409919
0	2627	7.999428408635	0.021387985174
0	2633	8.020816393809	0.003744771682
0	2637	8.024561165491	0.026398237431
0	2643	8.050959402922	0.002160856788
0	2647	8.05312025971	0.002176917119
0	2650	8.055297176829	0.007428323092
0	2655	8.062725499921	0.006053386882
0	2660	8.068778886803	0.013122682902
0	2667	8.081901569705	0.000655467583
0	2670	8.082557037288	0.001101449572
0	2673	8.08365848686	0.001079669724
0	2676	8.084738156584	0.013836218923
0	2683	8.098574375507	0.014395406553
0	2690	8.11296978206	0.002578139101
0	2693	8.115547921161	0.013458064221
0	2700	8.129005985382	0.028481607342
0	2708	8.157487592724	0.049024203253
0	2713	8.206511795977	0.001204352452
0	2717	8.207716148429	0.004329176798
0	2720	8.212045325227	0.001597719942
0	2723	8.213643045169	0.041024278815
0	2733	8.254667323984	0.003541200711
0	2737	8.258208524695	0.009669935414
0	2742	8.267878460109	0.015075861473
0	2748	8.282954321582	0.01720219474
0	2753	8.300156516322	0.008811825451
0	2758	8.308968341773	0.000649631809
0	2762	8.309617973582	0.014333915627
0	2767	8.323951889209	0.048941616774
0	2773	8.372893505983	0.017978681418
0	2778	8.390872187401	0.003710012085
0	2782	8.394582199486	0.020108053026
0	2788	8.414690252512	0.004570945098
0	2792	8.41926119761	0.003217541134
0	2797	8.422478738744	0.022174173471
0	2803	8.444652912215	0.013289362064
0	2808	8.457942274279	0.031078771034
0	2813	8.489021045313	0.014463129649
0	2818	8.503484174962	0.072486933231
0	2823	8.575971108193	0.00366139876
0	2827	8.579632506953	0.018480592455
0	2833	8.598113099408	0.015084104895
0	2838	8.613197204303	0.008010741646
0	2843	8.621207945949	0.009686806219
0	2848	8.630894752168	2.1684793e-005
0	2852	8.630916436961	0.017944302927
0	2858	8.648860739888	0.040553055661
0	2863	8.689413795549	0.000818089253
0	2867	8.690231884802	0.029451784397
0	2873	8.719683669199	0.011411554824
0	2878	8.731095224023	0.001107771015
0	2882	8.732202995038	0.012293543716
0	2887	8.744496538754	0.004057789445
0	2892	8.748554328199	0.024989634098
0	2898	8.773543962297	0.019985526946
0	2903	8.793529489243	0.030939851619
0	2909	8.824469340862	0.002753788329
0	2913	8.827223129191	0.050648615932
0	2919	8.877871745123	0.055145217827
0	2924	8.93301696295	0.000605492652
0	2928	8.933622455602	0.007455660768
0	2933	8.94107811637	0.000477902759
0	2936	8.941556019129	0.005541913209
0	2939	8.947097932338	0.014748865497
0	2946	8.961846797835	0.003908892654
0	2951	8.965755690489	0.004005091228
0	2954	8.969760781717	0.000946903426
0	2959	8.970707685143	0.022433470432
0	2968	8.993141155575	0.009481452093
0	2973	9.002622607668	0.004435235509
0	2976	9.007057843177	0.000360709029
0	2979	9.007418552206	0.019819835834
0	2988	9.02723838804	0.018996331772
0	2994	9.046234719812	0.004757390854
0	2998	9.050992110666	0.006898015402
0	3003	9.057890126068	0.002718470883
0	3006	9.060608596951	0.012020667212
0	3013	9.072629264163	0.005349696914
0	3018	9.077978961077	0.028454080265
0	3024	9.106433041342	0.043156960965
0	3029	9.149590002307	0.011348262826
0	3034	9.160938265133	0.009376734785
0	3039	9.170314999918	0.083074265636
0	3045	9.253389265554	0.01861236257
0	3050	9.272001628124	0.011806765944
0	3055	9.283808394068	0.014811975227
0	3060	9.298620369295	0.017861973812
0	3065	9.316482343107	0.011106326107
0	3070	9.327588669214	0.026616360945
0	3075	9.354205030159	0.015522061243
0	3080	9.369727091402	0.003720216154
0	3084	9.373447307556	0.020095442416
0	3090	9.393542749972	0.008646601901
0	3095	9.402189351873	0.016365594833
0	3100	9.418554946706	0.032349553568
0	3105	9.450904500274	0.004623011502
0	3109	9.455527511776	0.000767493103
0	3112	9.456295004879	0.003640773131
0	3117	9.45993577801	0.011546061677
0	3122	9.471481839687	0.001843973482
0	3125	9.473325813169	0.004408142639
0	3130	9.477733955808	0.012223125055
0	3137	9.489957080863	0.00762108498
0	3142	9.497578165843	0.021065209502
0	3150	9.518643375345	0.003967367815
0	3154	9.52261074316	0.020270930996
0	3160	9.542881674156	0.014212627994
0	3165	9.55709430215	0.001049943202
0	3169	9.558144245352	0.026528634815
0	3175	9.584672880167	0.018736165388
0	3180	9.603409045555	0.038792304441
0	3185	9.642201349996	0.00221134192
0	3189	9.644412691916	0.002417700156
0	3192	9.646830392072	0.035476818529
0	3200	9.682307210601	0.036774660114
0	3205	9.719081870715	0.005817655833
0	3209	9.724899526548	0.022200413078
0	3215	9.747099939626	0.013001195453
0	3220	9.760101135079	0.02270715097
0	3225	9.782808286049	0.020229633824
0	3230	9.803037919873	0.022745825673
0	3235	9.825783745546	0.015746421157
0	3240	9.841530166703	0.004771153525
0	3244	9.846301320228	0.050360017104
0	3250	9.896661337332	0.005734675778
0	3254	9.90239601311	0.016007356888
0	3260	9.918403369998	0.009194113632
0	3265	9.92759748363	0.009930925918
0	3270	9.937528409548	0.001299789843
0	3274	9.938828199391	0.015388618057
0	3280	9.954216817448	0.010789541862
0	3285	9.96500635931	0.015226367877
0	3290	9.980232727187	0.015700518976
0	3295	9.995933246163	0.003869902648
0	3299	9.999803148811	0.002659345644
0	3302	10.002462494455	0.007097106182
0	3307	10.009559600637	0.00089111867
0	3310	10.010450719307	0.024160266657
0	3320	10.034610985964	0.031653645402
0	3325	10.066264631366	0.017877171657
0	3330	10.084141803023	0.011297416643
0	3335	10.095439219666	0.02797357123
0	3341	10.123412790896	0.022714969553
0	3346	10.146127760449	0.017746636429
0	3351	10.163874396878	0.011100054495
0	3356	10.174974451373	0.00433703921
0	3360	10.179311490583	0.009841419788
0	3365	10.189152910371	9.491414e-005
0	3368	10.189247824511	0.002263694252
0	3373	10.191511518763	0.008777898332
0	3378	10.200289417095	0.00409387904
0	3381	10.204383296135	0.019140321948
0	3390	10.223523618083	0.005886369267
0	3395	10.22940998735	0.00657271619
0	3400	10.23598270354	0.018029077569
0	3406	10.254011781109	0.001174534174
0	3410	10.255186315283	0.004017118843
0	3413	10.259203434126	0.025459242177
0	3421	10.284662676303	0.00856559813
0	3426	10.293228274433	0.020931804196
0	3431	10.314160078629	0.046243743445
0	3436	10.360403822074	0.048466554479
0	3441	10.408870376553	0.049245400822
0	3446	10.458115777375	0.025099274337
0	3451	10.483215051712	0.004819527889
0	3455	10.488034579601	0.005067976172
0	3460	10.493102555773	0.021753604941
0	3466	10.514856160714	0.050864249938
0	3471	10.565720410652	0.040414974741
0	3476	10.606135385393	0.013381520181
0	3481	10.619516905574	0.011200104377
0	3486	10.630717009951	0.015885747483
0	3492	10.646602757434	0.009973892201
0	3497	10.656576649635	0.057578838292
0	3502	10.714155487927	0.004461589235
0	3506	10.718617077162	8.7750978e-005
0	3509	10.71870482814	0.009616576453
0	3514	10.728321404593	0.012246899051
0	3521	10.740568303644	0.02223460637
0	3527	10.762802910014	0.023171472453
0	3532	10.785974382467	0.020957508238
0	3537	10.806931890705	0.002461711107
0	3541	10.809393601812	0.004448837386
0	3544	10.813842439198	0.022690502535
0	3552	10.836532941733	0.021148606128
0	3557	10.857681547861	0.006861038626
0	3561	10.864542586487	0.006779737827
0	3566	10.871322324314	0.002004698092
0	3571	10.873327022406	0.001128607839
0	3574	10.874455630245	0.016682171956
0	3581	10.891137802201	0.02475548619
0	3587	10.915893288391	0.020037501525
0	3592	10.935930789916	0.041349510886
0	3597	10.977280300802	0.007236213393
0	3601	10.984516514195	0.001463505229
0	3606	10.985980019424	0.019059899198
0	3612	11.005039918622	0.070922027553
0	3618	11.075961946175	0.010915459615
0	3623	11.08687740579	0.034261612937
0	3628	11.121139018727	0.004220496792
0	3632	11.125359515519	0.015927627218
0	3638	11.141287142737	0.017848951556
0	3643	11.159136094293	0.021976056538
0	3648	11.181112150831	0.002865110656
0	3652	11.183977261487	0.002777381066
0	3655	11.186754642553	0.006021097389
0	3660	11.192775739942	0.016974587485
0	3667	11.209750327427	0.05375963912
0	3673	11.263509966547	0.010386289148
0	3678	11.273896255695	0.004282805725
0	3682	11.27817906142	0.005909564504
0	3688	11.284088625924	0.005052441781
0	3693	11.289141067705	0.036376313496
0	3699	11.325517381201	0.018073667433
0	3704	11.343591048634	0.015838176165
0	3709	11.359429224799	0.014070809969
0	3714	11.373500034768	0.020809872357
0	3719	11.394309907125	0.014928853008
0	3724	11.409238760133	0.016946522432
0	3729	11.426185282565	0.014713430007
0	3734	11.440898712572	0.003345746393
0	3738	11.444244458965	0.008084969611
0	3743	11.452329428576	0.052242953022
0	3749	11.504572381598	0.03777130857
0	3754	11.542343690168	0.00764408341
0	3759	11.549987773578	0.000659527076
0	3763	11.550647300654	0.006485548605
0	3766	11.557132849259	0.012905564803
0	3773	11.570038414062	0.005880698552
0	3778	11.575919112614	0.015013562783
0	3784	11.590932675397	0.028226059498
0	3789	11.619158734895	0.01308971241
0	3794	11.632248447305	0.00725871383
0	3798	11.639507161135	0.00528451546
0	3803	11.644791676595	0.009942237996
0	3808	11.654733914591	0.010571178244
0	3814	11.665305092835	0.000424767424
0	3818	11.665729860259	0.001794331552
0	3821	11.667524191811	0.002002633617
0	3824	11.669526825428	0.005126771131
0	3829	11.674653596559	0.000763716137
0	3832	11.675417312696	0.003955026345
0	3835	11.679372339041	0.006678118322
0	3840	11.686050457363	0.003585438335
0	3845	11.689635895698	0.022759462732
0	3854	11.71239535843	0.000830803625
0	3857	11.713226162055	0.001733755173
0	3860	11.714959917228	0.018038931309
0	3867	11.732998848537	0.026024631995
0	3878	11.759023480532	0.015296912742
0	3884	11.774320393274	0.00307479263
0	3888	11.777395185904	0.034711272231
0	3894	11.812106458135	0.004498092837
0	3898	11.816604550972	0.023964718345
0	3904	11.840569269317	0.025343115822
0	3909	11.865912385139	0.017282966471
0	3914	11.88319535161	0.000242704303
0	3918	11.883438055913	0.019469358697
0	3924	11.90290741461	6.6620228e-005
0	3928	11.902974034838	0.042587634822
0	3934	11.94556166966	0.03029448166
0	3939	11.97585615132	0.000352258276
0	3943	11.976208409596	0.006284352695
0	3946	11.982492762291	0.007075415415
0	3951	11.989568177706	0.024025494404
0	3959	12.01359367211	0.035667723441
0	3964	12.049261395551	0.000213272249
0	3968	12.0494746678	0.029644161913
0	3974	12.079118829713	0.014857489171
0	3979	12.093976318884	0.019384933933
0	3984	12.113361252817	0.021700843326
0	3989	12.135062096143	0.005857149448
0	3993	12.140919245591	0.000116195967
0	3996	12.141035441558	0.008972190976
0	4001	12.150007632534	0.007306165884
0	4006	12.157313798418	0.022956041605
0	4014	12.180269840023	0.004776834467
0	4018	12.18504667449	0.008198430143
0	4023	12.193245104633	0.020225564466
0	4029	12.213470669099	0.000733775834
0	4033	12.214204444933	0.04058503231
0	4039	12.254789477243	0.063416433998
0	4044	12.318205911241	0.04141135893
0	4049	12.359617270171	0.011610132636
0	4054	12.371227402807	5.8419592e-005
0	4058	12.371285822399	0.011133109411
0	4063	12.38241893181	0.001030263447
0	4066	12.383449195257	0.005924088688
0	4071	12.389373283945	0.00032114268
0	4074	12.389694426625	0.006811034733
0	4079	12.396505461358	0.024869841399
0	4088	12.421375302757	0.06569849652
0	4094	12.487073799277	0.015147873858
0	4099	12.502221673135	0.001908069748
0	4103	12.504129742883	0.001129922554
0	4106	12.505259665437	0.032896883221
0	4114	12.538156548658	0.016276491082
0	4119	12.55443303974	0.023552366625
0	4124	12.577985406365	0.010866980742
0	4129	12.588852387107	0.03699974213
0	4134	12.625852129237	0.005675155544
0	4138	12.631527284781	0.050497521933
0	4144	12.682024806714	0.01897762226
0	4149	12.701002428974	0.021354139456
0	4154	12.72235656843	0.029658898303
0	4159	12.752015466733	0.010821283292
0	4164	12.762836750025	2.2976235e-005
0	4168	12.76285972626	0.007511182989
0	4171	12.770370909249	0.001126418653
0	4176	12.771497327902	0.008129525485
0	4181	12.779626853387	0.002665926285
0	4184	12.782292779672	0.007743979033
0	4189	12.790036758705	0.019966172955
0	4198	12.81000293166	0.007613548804
0	4203	12.817616480464	0.005490222994
0	4206	12.823106703458	0.021631954184
0	4214	12.844738657642	0.012191370487
0	4219	12.856930028129	0.030865771119
0	4224	12.887795799248	0.038724577597
0	4229	12.926520376845	0.042858921797
0	4234	12.969379298642	0.003900376076
0	4238	12.973279674718	0.004654638302
0	4243	12.97793431302	0.007911944502
0	4248	12.985846257522	0.018093721516
0	4254	13.003939979038	0.008335738753
0	4259	13.012275717791	0.000673161626
0	4263	13.012948879417	0.020571883128
0	4269	13.033520762545	0.009539423566
0	4274	13.043060186111	0.02399481842
0	4279	13.067055004531	0.002201441021
0	4283	13.069256445552	0.018333035952
0	4289	13.087589481504	0.004082924201
0	4293	13.091672405705	0.012913921852
0	4299	13.104586327557	0.029287230617
0	4304	13.133873558174	0.0655618051
0	4309	13.199435363274	0.007257801836
0	4313	13.20669316511	0.015890118917
0	4319	13.222583284027	0.018770895299
0	4324	13.241354179326	0.002520090934
0	4328	13.24387427026	0.016237293829
0	4335	13.260111564089	0.012569268629
0	4340	13.272680832718	0.008036467296
0	4345	13.280717300014	0.002858672877
0	4349	13.283575972891	0.002960371308
0	4352	13.286536344199	0.002162030108
0	4357	13.288698374307	0.050442332169
0	4365	13.339140706476	0.005158887654
0	4369	13.34429959413	0.013019513608
0	4375	13.357319107738	0.005537077508
0	4379	13.362856185246	0.040147907726
0	4385	13.403004092972	0.030275764677
0	4390	13.433279857649	0.031009836703
0	4395	13.464289694352	0.001224183507
0	4399	13.465513877859	0.041365538303
0	4405	13.506879416162	0.062565116312
0	4410	13.569444532474	0.030242383965
0	4415	13.599686916439	0.017061665697
0	4420	13.616748582136	0.003146993591
0	4424	13.619895575727	0.003917279185
0	4427	13.623812854912	0.019130919844
0	4435	13.642943774756	0.006989604329
0	4439	13.649933379085	0.058902353776
0	4445	13.708835732861	0.000772182481
0	4449	13.709607915342	0.034732034301
0	4455	13.744339949643	0.006429418178
0	4459	13.750769367821	0.073655812793
0	4465	13.824425180614	0.031992845108
0	4470	13.856418025722	0.002320716964
0	4474	13.858738742686	0.026300133353
0	4480	13.885038876039	0.008876809339
0	4485	13.893915685378	0.00275896468
0	4489	13.896674650058	0.016250477658
0	4495	13.912925127716	0.007783025599
0	4500	13.920708153315	0.005817531076
0	4504	13.926525684391	0.013508380429
0	4510	13.94003406482	0.024604998998
0	4515	13.964639063818	0.013820949452
0	4520	13.97846001327	0.002320454814
0	4524	13.980780468084	0.0166596732
0	4530	13.997440141284	0.009715265205
0	4535	14.007155406489	0.028274157412
0	4540	14.035429563901	0.01719172387
0	4545	14.052621287771	0.021737187431
0	4550	14.074358475202	0.003150037037
0	4554	14.077508512239	0.013666154898
0	4560	14.091174667137	0.007688921689
0	4565	14.098863588826	0.00305460505
0	4569	14.101918193876	0.00381692233
0	4572	14.105735116206	0.001342367792
0	4577	14.107077483998	0.022903328055
0	4585	14.129980812053	0.034952425382
0	4590	14.164933237435	0.004090860827
0	4594	14.169024098262	0.011646953478
0	4600	14.18067105174	0.02452171043
0	4605	14.20519276217	0.030598299074
0	4610	14.235791061244	0.017014261287
0	4615	14.252805322531	0.008897588948
0	4620	14.261702911479	0.001542269924
0	4624	14.263245181403	0.004156541487
0	4627	14.26740172289	0.014435468094
0	4634	14.281837190984	0.006845522146
0	4639	14.28868271313	0.023342080815
0	4645	14.312024793945	0.00647763543
0	4649	14.318502429375	0.003825819274
0	4654	14.322328248649	0.017094914409
0	4660	14.339423163058	0.019193424019
0	4665	14.358616587077	0.004227893789
0	4669	14.362844480866	0.01040942903
0	4674	14.373253909896	0.009356874384
0	4680	14.38261078428	0.013603793176
0	4685	14.396214577456	0.022295805918
0	4690	14.418510383374	0.004944115631
0	4694	14.423454499005	0.006101404193
0	4699	14.429555903198	0.013576622505
0	4705	14.443132525703	0.024083520073
0	4710	14.467216045776	0.019622768629
0	4715	14.486838814405	0.024903636799
0	4720	14.511742451204	0.001064537871
0	4724	14.512806989075	0.007396128071
0	4729	14.520203117146	0.020442256514
0	4735	14.54064537366	0.012061878441
0	4740	14.552707252101	0.000299197508
0	4744	14.553006449609	0.013445300082
0	4749	14.566451749691	0.010001843868
0	4755	14.576453593559	0.003723266544
0	4759	14.580176860103	0.005076325147
0	4764	14.58525318525	0.001324969337
0	4767	14.586578154587	0.027171164961
0	4775	14.613749319548	0.009903740876
0	4780	14.623653060424	0.006483396796
0	4784	14.63013645722	0.007816916458
0	4789	14.637953373678	0.000898455408
0	4794	14.638851829086	0.026601888484
0	4800	14.66545371757	0.004469132266
0	4804	14.669922849836	0.001631873816
0	4807	14.671554723652	0.003819999971
0	4812	14.675374723623	0.027886043383
0	4820	14.703260767006	0.020322327565
0	4826	14.723583094571	0.002697019367
0	4830	14.726280113938	0.001915570345
0	4833	14.728195684283	0.000882677536
0	4836	14.729078361819	0.014521805938
0	4843	14.743600167757	0.012354828633
0	4850	14.75595499639	0.000847488779
0	4853	14.756802485169	0.009724332657
0	4858	14.766526817826	0.042295771601
0	4866	14.808822589427	0.010141289466
0	4871	14.818963878893	0.002057698241
0	4875	14.821021577134	0.005659223975
0	4880	14.826680801109	0.002670051575
0	4883	14.829350852684	0.006635586565
0	4888	14.835986439249	0.001296568689
0	4891	14.837283007938	0.002563508376
0	4894	14.839846516314	0.005674474214
0	4899	14.845520990528	0.031908594161
0	4910	14.877429584689	0.019109856813
0	4916	14.896539441502	0.001275531926
0	4920	14.897814973428	0.005764672106
0	4923	14.903579645534	0.001140300891
0	4928	14.904719946425	0.026344122265
0	4936	14.93106406869	0.00916773725
0	4941	14.94023180594	0.000939117717
0	4945	14.941170923657	0.000300073831
0	4948	14.941470997488	0.004603318071
0	4951	14.946074315559	0.000516592414
0	4954	14.946590907973	0.001059109435
0	4957	14.947650017408	0.004740918131
0	4962	14.952390935539	0.01236407956
0	4969	14.964755015099	0.010673889572
0	4974	14.975428904671	0.005206614786
0	4979	14.980635519457	0.013091805588
0	4986	14.993727325045	0.013572001666
0	4991	15.007299326711	0.00235876141
0	4996	15.009658088121	6.5725703e-005
0	4999	15.009723813824	0.012409816891
0	5004	15.022133630715	0.011141909886
0	5011	15.033275540601	0.003562655889
0	5014	15.03683819649	0.004867934727
0	5019	15.041706131217	0.04545428791
0	5031	15.087160419127	0.025854836093
0	5036	15.11301525522	0.002860137056
0	5040	15.115875392276	0.000285332386
0	5043	15.116160724662	0.00420834995
0	5046	15.120369074612	0.003089171797
0	5051	15.123458246409	0.006786882503
0	5056	15.130245128912	0.034493462686
0	5066	15.164738591598	0.052107609585
0	5071	15.216846201183	0.009748679691
0	5076	15.226594880874	0.001084711149
0	5080	15.227679592023	0.000755491576
0	5083	15.228435083599	0.001257477339
0	5086	15.229692560938	0.001539503062
0	5089	15.231232064	0.009424994199
0	5094	15.240657058199	0.006262223098
0	5099	15.246919281297	0.01057583116
0	5106	15.257495112457	0.006087491501
0	5109	15.263582603958	0.02049906746
0	5118	15.284081671418	0.000969772689
0	5121	15.285051444107	0.007490281206
0	5126	15.292541725313	0.037402521808
0	5136	15.329944247121	0.016928080465
0	5141	15.346872327586	0.002939353123
0	5145	15.349811680709	0.031658395595
0	5151	15.381470076304	0.00961276228
0	5156	15.391082838584	0.031922002534
0	5161	15.423004841118	0.010922207157
0	5166	15.433927048275	0.009836441934
0	5171	15.443763490209	0.026373220527
0	5176	15.470136710736	0.031265906131
0	5181	15.501402616867	0.005562088545
0	5185	15.506964705412	0.004010508063
0	5190	15.510975213475	0.001202966706
0	5193	15.512178180181	0.025092928581
0	5201	15.537271108762	0.006751695864
0	5205	15.544022804626	0.014064844374
0	5211	15.558087649	0.031330796866
0	5216	15.589418445866	0.012293114026
0	5221	15.601711559892	0.026605313442
0	5226	15.628316873334	0.004156351341
0	5230	15.632473224675	0.007311166667
0	5235	15.639784391342	0.004808963742
0	5240	15.644593355084	0.016163795278
0	5246	15.660757150362	0.000141355302
0	5250	15.660898505664	0.021091015853
0	5256	15.681989521517	0.001627089612
0	5260	15.683616611129	0.015961307638
0	5266	15.699577918767	0.000738525367
0	5270	15.700316444134	0.009442231264
0	5275	15.709758675398	0.001874174056
0	5278	15.711632849454	0.010500950424
0	5283	15.722133799878	0.008691342505
0	5290	15.730825142383	0.007806988834
0	5295	15.738632131217	0.013897905571
0	5300	15.752530036788	0.016322772473
0	5306	15.768852809261	0.001386540646
0	5310	15.770239349907	0.004065636302
0	5313	15.774304986209	0.00686307625
0	5318	15.781168062459	0.000905499426
0	5321	15.782073561885	0.008403132818
0	5326	15.790476694703	0.021986267923
0	5335	15.812462962626	0.004824035392
0	5340	15.817286998018	0.031790394271
0	5346	15.849077392289	0.02369421654
0	5351	15.872771608829	0.002768775844
0	5355	15.875540384673	0.000155670598
0	5358	15.875696055271	0.000608084681
0	5361	15.876304139952	0.00703151577
0	5366	15.883335655722	0.006366591979
0	5371	15.889702247701	0.010047865417
0	5376	15.899750113118	0.025669760518
0	5385	15.925419873636	0.010858571024
0	5391	15.93627844466	0.000688326371
0	5395	15.936966771031	0.032089253899
0	5401	15.96905602493	0.006511511459
0	5405	15.975567536389	0.010352971569
0	5411	15.985920507958	0.004466500432
0	5415	15.99038700839	0.008237265174
0	5420	15.998624273564	2.3712239e-005
0	5423	15.998647985803	0.00885215583
0	5428	16.007500141633	0.006358713931
0	5433	16.013858855564	0.014089158689
0	5440	16.027948014253	0.032746753407
0	5446	16.06069476766	0.020906617817
0	5451	16.081601385477	0.002745950617
0	5455	16.084347336094	0.010470475546
0	5460	16.09481781164	0.016562952309
0	5466	16.111380763949	0.011451799428
0	5471	16.122832563377	0.004020352371
0	5475	16.126852915748	0.008487410942
0	5480	16.13534032669	0.033757511304
0	5486	16.169097837994	0.012803258394
0	5491	16.181901096388	0.014764694346
0	5496	16.196665790734	0.013464685234
0	5501	16.210130475968	0.002042523115
0	5505	16.212172999083	0.01529967643
0	5511	16.227472675513	0.006956320805
0	5515	16.234428996318	0.004377034817
0	5520	16.238806031135	0.01071315789
0	5525	16.249519189025	0.02232745548
0	5531	16.271846644505	0.003571952645
0	5535	16.27541859715	0.009201077059
0	5540	16.284619674209	0.019512182484
0	5546	16.304131856693	0.006998600272
0	5550	16.311130456965	0.038718710346
0	5556	16.349849167311	0.025798149445
0	5561	16.375647316756	0.000381192425
0	5565	16.376028509181	0.001678619896
0	5568	16.377707129077	0.005879659848
0	5573	16.383586788925	0.009420004425
0	5578	16.39300679335	0.013402331752
0	5585	16.406409125102	0.003563152205
0	5588	16.409972277307	0.051343621617
0	5596	16.461315898924	0.002200775113
0	5600	16.463516674037	0.000278526028
0	5603	16.463795200065	0.00018380325
0	5606	16.463979003315	0.003181682491
0	5609	16.467160685806	0.009416893582
0	5616	16.476577579388	0.001572364403
0	5619	16.478149943791	0.01082818867
0	5624	16.488978132461	0.000319873493
0	5627	16.489298005954	0.001287056903
0	5630	16.490585062857	0.0513434079
0	5646	16.541928470757	0.0080143696
0	5651	16.549942840357	0.024437125095
0	5656	16.574379965452	0.000630459372
0	5660	16.575010424824	0.013251437825
0	5665	16.588261862649	0.01916765687
0	5671	16.607429519519	0.055900395663
0	5676	16.663329915182	0.006650259764
0	5680	16.669980174946	0.037696043298
0	5686	16.707676218244	0.016721974699
0	5691	16.724398192943	0.010334219357
0	5696	16.7347324123	0.017075084642
0	5701	16.751807496942	0.008284322024
0	5706	16.760091818966	0.012346286673
0	5711	16.772438105639	0.004346203547
0	5715	16.776784309186	0.002321944839
0	5718	16.779106254025	0.0089044115
0	5725	16.788010665525	0.010654424193
0	5730	16.798665089718	0.014697165396
0	5736	16.813362255114	0.000264714059
0	5740	16.813626969173	0.034261413913
0	5746	16.847888383086	0.028026401433
0	5751	16.875914784519	0.055255641311
0	5756	16.93117042583	0.018225300516
0	5761	16.949395726346	0.002575357634
0	5765	16.95197108398	0.019563023423
0	5771	16.971534107403	0.003281856764
0	5775	16.974815964167	0.006111305573
0	5780	16.98092726974	0.003215773508
0	5783	16.984143043248	0.016137042449
0	5790	17.000280085697	0.021190852977
0	5796	17.021470938674	0.016784721587
0	5801	17.038255660261	0.016052841936
0	5806	17.054308502197	0.014736191677
0	5811	17.069044693874	0.019000965603
0	5816	17.088045659477	0.001214084012
0	5820	17.089259743489	0.015730174803
0	5826	17.104989918292	0.001044211527
0	5830	17.106034129819	0.026193239848
0	5836	17.132227369667	0.01040853365
0	5841	17.142635903317	0.002200572565
0	5845	17.144836475882	0.000626975245
0	5848	17.145463451127	0.005124223827
0	5853	17.150587674954	0.002595303026
0	5856	17.15318297798	0.001561759815
0	5859	17.154744737795	0.009385232516
0	5864	17.164129970311	0.019766600546
0	5873	17.183896570857	0.001358013458
0	5876	17.185254584315	0.004667020048
0	5881	17.189921604363	0.005752556811
0	5884	17.195674161174	0.028243705431
0	5895	17.223917866605	0.006803270501
0	5900	17.230721137106	0.001608931634
0	5903	17.23233006874	0.006530310167
0	5908	17.238860378907	0.016510562746
0	5915	17.255370941653	0.00051639339
0	5918	17.255887335043	0.013472604756
0	5925	17.269359939799	0.00284407141
0	5930	17.272204011209	0.013607640135
0	5935	17.285811651344	0.001078126143
0	5938	17.286889777487	0.005670087189
0	5943	17.292559864676	0.017695343758
0	5951	17.310255208434	0.010999070529
0	5956	17.321254278963	0.013861294656
0	5961	17.335115573619	0.018984633274
0	5966	17.354100206893	0.012297531917
0	5971	17.36639773881	0.013629244497
0	5976	17.380026983307	0.003019573305
0	5980	17.383046556612	0.004271893761
0	5983	17.387318450373	0.003329870084
0	5988	17.390648320457	0.027518831824
0	5996	17.418167152281	0.016832321265
0	6001	17.434999473546	0.015773657933
0	6006	17.450773131479	0.012026214061
0	6011	17.46279934554	0.011848490503
0	6016	17.474647836043	0.000387432687
0	6020	17.47503526873	0.001182871146
0	6023	17.476218139876	0.034175334068
0	6031	17.510393473944	0.012520547294
0	6036	17.522914021238	0.00605964688
0	6040	17.528973668118	0.043363013812
0	6046	17.57233668193	0.002042141721
0	6050	17.574378823651	0.010003478499
0	6055	17.58438230215	0.001624039217
0	6058	17.586006341367	0.016983364979
0	6066	17.602989706346	0.012833914433
0	6071	17.615823620779	0.002233521646
0	6075	17.618057142425	0.012443615399
0	6080	17.630500757824	0.001893570258
0	6085	17.632394328082	0.001049030251
0	6088	17.633443358333	7.6407651e-005
0	6091	17.633519765984	0.005445543658
0	6096	17.638965309642	0.006654614367
0	6099	17.645619924009	0.007794397657
0	6104	17.653414321666	0.013601786759
0	6111	17.667016108425	0.031376471872
0	6121	17.698392580297	0.008432731489
0	6126	17.706825311786	0.040200670653
0	6131	17.747025982439	0.029365129812
0	6136	17.776391112251	0.008966366935
0	6141	17.785357479186	0.001743203619
0	6145	17.787100682805	0.018060043668
0	6151	17.805160726473	0.006486547066
0	6155	17.811647273539	0.007155361403
0	6160	17.818802634942	0.003833950382
0	6165	17.822636585324	0.025598969005
0	6171	17.848235554329	0.029008478285
0	6176	17.877244032614	0.002493666881
0	6180	17.879737699495	0.006175496681
0	6185	17.885913196176	0.017170340514
0	6191	17.90308353669	0.001154570616
0	6195	17.904238107306	0.001525734974
0	6198	17.90576384228	0.000260140724
0	6201	17.906023983004	0.006210699418
0	6206	17.912234682422	0.009013274339
0	6211	17.921247956761	0.008287443872
0	6216	17.929535400633	0.013203002269
0	6223	17.942738402902	0.001509402538
0	6226	17.94424780544	0.011130014309
0	6231	17.955377819749	0.031314353625
0	6241	17.986692173374	0.007166312575
0	6245	17.993858485949	0.02026376737
0	6251	18.014122253319	0.043717658937
0	6256	18.057839912256	0.002436618963
0	6260	18.060276531219	0.035275602627
0	6266	18.095552133846	0.01288732624
0	6271	18.108439460086	0.0076886492
0	6276	18.116128109286	0.004637929094
0	6280	18.12076603838	0.025876594322
0	6286	18.146642632702	0.0091200358
0	6291	18.155762668502	0.003366246866
0	6295	18.159128915368	0.020076236266
0	6301	18.179205151634	0.00713551861
0	6305	18.186340670244	0.006280418115
0	6310	18.192621088359	0.003318465406
0	6315	18.195939553765	0.0329715606
0	6321	18.228911114365	0.007182419719
0	6325	18.236093534084	0.007816981285
0	6330	18.243910515369	0.003131350377
0	6335	18.247041865746	0.031901855784
0	6341	18.27894372153	0.013369048505
0	6346	18.292312770035	0.002002885446
0	6350	18.294315655481	0.001103794692
0	6353	18.295419450173	0.001358973021
0	6356	18.296778423194	0.023836399842
0	6365	18.320614823036	0.009496466886
0	6370	18.330111289922	0.006736697725
0	6375	18.336847987647	0.006888068352
0	6380	18.343736055999	0.014056452907
0	6386	18.357792508906	0.009125163389
0	6391	18.366917672295	0.007108676459
0	6395	18.374026348754	0.026993375844
0	6401	18.401019724598	0.003531423459
0	6405	18.404551148057	0.015175609013
0	6411	18.41972675707	0.009245504515
0	6416	18.428972261585	0.001605254807
0	6420	18.430577516392	0.031492279751
0	6426	18.462069796143	0.013991622243
0	6431	18.476061418386	0.014010002303
0	6436	18.490071420689	0.007841910558
0	6441	18.497913331247	0.009614281092
0	6446	18.507527612339	0.016337823338
0	6451	18.523865435677	0.01201831185
0	6456	18.535883747527	0.002909844678
0	6460	18.538793592205	0.006021826271
0	6465	18.544815418476	0.001990762293
0	6468	18.546806180769	0.020596775052
0	6476	18.567402955821	0.02325916895
0	6481	18.590662124771	0.032105630824
0	6486	18.622767755595	0.010848961974
0	6491	18.633616717569	0.003759861889
0	6495	18.637376579458	0.002881936858
0	6498	18.640258516316	0.03692300015
0	6506	18.677181516466	0.001817198547
0	6510	18.678998715013	0.011270280933
0	6515	18.690268995946	0.003052197242
0	6520	18.693321193188	0.001066118867
0	6523	18.694387312055	0.010384274079
0	6528	18.704771586134	0.012025700982
0	6535	18.716797287116	0.005369210436
0	6538	18.722166497552	0.033504390283
0	6546	18.755670887835	0.005896385191
0	6550	18.761567273026	0.029336240508
0	6556	18.790903513534	0.000548136241
0	6560	18.791451649775	0.01146716867
0	6565	18.802918818445	0.000945922749
0	6568	18.803864741194	0.01943349501
0	6576	18.823298236204	0.009238144786
0	6581	18.83253638099	0.003487369119
0	6585	18.836023750109	0.012350699648
0	6591	18.848374449757	0.011884438908
0	6596	18.860258888665	0.003377785824
0	6600	18.863636674489	0.011826425214
0	6605	18.875463099703	0.005846708644
0	6610	18.881309808347	0.013130709189
0	6616	18.894440517536	0.005008774581
0	6620	18.899449292117	0.000448751236
0	6623	18.899898043353	0.028550698204
0	6631	18.928448741557	0.008603667686
0	6636	18.937052409243	8.9750023e-005
0	6640	18.937142159266	0.008526387972
0	6645	18.945668547238	0.020752970584
0	6651	18.966421517822	0.036734540398
0	6656	19.00315605822	0.010266488832
0	6661	19.013422547052	0.003752716511
0	6665	19.017175263563	0.025509780191
0	6671	19.042685043754	0.009828372098
0	6676	19.052513415852	0.016271237087
0	6681	19.068784652939	0.020133109463
0	6686	19.088917762402	0.003164557088
0	6690	19.09208231949	0.007902335962
0	6695	19.099984655452	0.00221501944
0	6698	19.102199674892	0.02115437353
0	6706	19.123354048422	0.020266088355
0	6711	19.143620136777	0.009682664169
0	6716	19.153302800946	0.034291289338
0	6721	19.187594090284	0.028725498729
0	6726	19.216319589013	0.036325407396
0	6731	19.252644996409	0.067673535767
0	6736	19.320318532176	0.019787208721
0	6741	19.340105740897	0.006774332625
0	6745	19.346880073522	0.008873791289
0	6751	19.355753864811	0.009357417837
0	6756	19.365111282648	0.000257772948
0	6760	19.365369055596	0.025622396171
0	6766	19.390991451767	0.007913217021
0	6771	19.398904668788	0.009646804129
0	6776	19.408551472917	0.072246222355
0	6781	19.480797695272	0.031065958637
0	6786	19.511863653909	0.021175450685
0	6791	19.533039104594	0.003939651794
0	6795	19.536978756388	0.01035351383
0	6800	19.547332270218	0.013287920601
0	6806	19.560620190819	0.020354739452
0	6811	19.580974930271	0.03500100423
0	6816	19.615975934501	0.049382914294
0	6821	19.665358848795	0.003343582667
0	6826	19.668702431462	0.001800470366
0	6829	19.670502901828	0.00480658008
0	6834	19.675309481908	0.021165573045
0	6842	19.696475054953	0.005881881896
0	6846	19.702356936849	0.021358227605
0	6852	19.723715164454	0.009222474554
0	6857	19.732937639008	0.005692699773
0	6861	19.738630338781	0.005163097704
0	6866	19.743793436485	0.013088746089
0	6873	19.756882182574	0.017914223372
0	6878	19.774796405946	0.0048020385
0	6882	19.779598444446	0.005612734814
0	6887	19.78521117926	0.002362524518
0	6890	19.787573703778	0.005672698168
0	6895	19.793246401946	0.034701753469
0	6903	19.827948155415	0.021383751123
0	6908	19.849331906538	0.017120235533
0	6913	19.866452142071	0.007388987538
0	6917	19.873841129609	0.085714015032
0	6923	19.959555144641	0.022783318907
0	6928	19.982338463548	0.033892872435
0	6933	20.016231335983	0.006159117923
0	6937	20.022390453906	0.003689430938
0	6942	20.026079884844	0.001042806553
0	6945	20.027122691397	0.030446502807
0	6953	20.057569194204	0.000523192806
0	6957	20.05809238701	0.001652049318
0	6960	20.059744436328	0.039488692273
0	6968	20.099233128601	0.000775177705
0	6972	20.100008306306	0.000317748811
0	6975	20.100326055117	0.000394297456
0	6978	20.100720352573	0.034810923893
0	6988	20.135531276466	0.015671581657
0	6993	20.151202858123	0.00703919075
0	6997	20.158242048873	0.032080608295
0	7003	20.190322657168	0.020938933693
0	7008	20.211261590861	0.004880702531
0	7012	20.216142293392	0.022103020403
0	7018	20.238245313795	0.001660364265
0	7022	20.23990567806	0.040268486986
0	7028	20.280174165046	0.004980164356
0	7032	20.285154329402	0.002258092393
0	7035	20.287412421795	0.081554299923
0	7043	20.368966721718	0.015203738036
0	7048	20.384170459754	0.007593060917
0	7052	20.391763520671	0.000863921499
0	7057	20.39262744217	0.005945329723
0	7060	20.398572771893	0.026851399693
0	7068	20.425424171586	0.010354044138
0	7073	20.435778215724	0.02660346054
0	7078	20.462381676264	0.026274394418
0	7083	20.488656070682	0.001305286477
0	7087	20.489961357159	0.00880862267
0	7092	20.498769979829	0.06558267305
0	7098	20.564352652879	0.004136673142
0	7102	20.568489326021	0.013558219705
0	7108	20.582047545726	0.001417643338
0	7112	20.583465189064	0.000662899673
0	7115	20.584128088737	0.029209991997
0	7123	20.613338080734	0.024051411648
0	7128	20.637389492382	0.044381166546
0	7133	20.681770658928	0.002260650584
0	7137	20.684031309512	0.004053014845
0	7140	20.688084324357	0.002460361432
0	7145	20.690544685789	0.034542450235
0	7153	20.725087136024	0.007807695343
0	7158	20.732894831367	0.021766851339
0	7163	20.754661682706	0.018516895979
0	7168	20.773178578685	0.000591604751
0	7172	20.773770183436	0.005573149516
0	7175	20.779343332952	0.000141882081
0	7178	20.779485215033	0.008354867192
0	7183	20.787840082225	0.052754364477
0	7193	20.840594446702	0.01305584312
0	7198	20.853650289822	0.002350487824
0	7202	20.856000777646	0.007814940611
0	7207	20.863815718257	0.007310031278
0	7212	20.871125749535	0.000119582223
0	7215	20.871245331758	0.003473450245
0	7218	20.874718782003	0.003788523505
0	7223	20.878507305508	0.011376449494
0	7228	20.889883755002	1.252844e-005
0	7231	20.889896283442	0.010838147244
0	7238	20.900734430686	0.003661605916
0	7241	20.904396036602	0.002658757577
0	7244	20.907054794179	0.020244595929
0	7253	20.927299390108	0.010452051146
0	7258	20.937751441254	0.013940838429
0	7265	20.951692279683	0.004049357495
0	7270	20.955741637178	0.050293242994
0	7278	21.006034880172	0.004126671851
0	7282	21.010161552023	0.04130720545
0	7288	21.051468757473	0.031149075434
0	7293	21.082617832907	0.021699018557
0	7298	21.104316851464	0.007563497667
0	7302	21.111880349131	0.003278926891
0	7307	21.115159276022	0.002022953763
0	7310	21.117182229785	0.05126856124
0	7318	21.168450791025	0.038557088284
0	7323	21.207007879309	0.004127364618
0	7327	21.211135243927	0.008715387092
0	7332	21.219850631019	0.000446140596
0	7335	21.220296771615	0.012072894304
0	7342	21.232369665919	0.01946356145
0	7348	21.251833227369	0.042488973654
0	7353	21.294322201023	0.032552060043
0	7358	21.326874261066	0.005386698614
0	7362	21.33226095968	0.005893647501
0	7367	21.338154607181	0.002577550621
0	7370	21.340732157802	0.009925217838
0	7377	21.35065737564	0.002621905919
0	7380	21.353279281559	0.007387184306
0	7385	21.360666465865	0.004062952783
0	7388	21.364729418648	0.006008550306
0	7393	21.370737968954	0.056565591549
0	7403	21.427303560503	0.003078268243
0	7407	21.430381828746	0.02243848022
0	7413	21.452820308966	0.029786614285
0	7418	21.482606923251	0.008908834926
0	7423	21.491515758177	0.003665233154
0	7427	21.495180991331	0.002402529152
0	7430	21.497583520483	0.01108019934
0	7437	21.508663719823	0.020505349898
0	7443	21.529169069721	0.014566731644
0	7448	21.543735801365	0.012820570633
0	7453	21.556556371998	0.013821385021
0	7458	21.570377757019	0.015760462212
0	7463	21.586138219231	0.002093550871
0	7467	21.588231770102	0.006360120986
0	7472	21.594591891088	0.003757318581
0	7475	21.598349209669	0.005934456025
0	7480	21.604283665694	0.019649628211
0	7487	21.623933293905	0.049589339246
0	7493	21.673522633151	0.004240731093
0	7497	21.677763364244	0.013622551374
0	7503	21.691385915618	0.010364577105
0	7508	21.701750492723	0.016462387303
0	7513	21.718212880026	0.009119971119
0	7518	21.727332851145	0.006282178996
0	7522	21.733615030141	0.084142531667
0	7528	21.817757561808	0.027527114136
0	7533	21.845284675944	0.012252432793
0	7538	21.857537108737	0.016627317942
0	7543	21.874164426679	0.002582839998
0	7547	21.876747266677	0.007198720244
0	7552	21.883945986921	0.002077800631
0	7555	21.886023787552	0.007707428344
0	7560	21.893731215896	0.04466180979
0	7568	21.938393025686	0.007532908092
0	7572	21.945925933778	0.010391088142
0	7578	21.95631702192	0.053111962028
0	7583	22.009428983948	0.007219616624
0	7587	22.016648600572	0.00472279182
0	7592	22.021371392392	0.001605182821
0	7595	22.022976575213	0.021280585211
0	7603	22.044257160424	0.000400606114
0	7607	22.044657766538	0.003237157305
0	7610	22.047894923843	0.00750755828
0	7615	22.055402482123	0.034379934821
0	7623	22.089782416944	0.00483771117
0	7627	22.094620128114	0.008182749441
0	7632	22.102802877555	0.034604223792
0	7639	22.137407101347	0.015658347082
0	7644	22.153065448429	0.001253720487
0	7648	22.154319168916	0.002697875216
0	7651	22.157017044132	0.003465020003
0	7654	22.160482064135	0.007561756484
0	7659	22.168043820619	0.020952484725
0	7668	22.188996305344	0.006287990169
0	7673	22.195284295513	0.006758498712
0	7678	22.202042794225	0.032427608914
0	7684	22.234470403139	0.015833942764
0	7689	22.250304345903	0.004729790738
0	7693	22.255034136641	0.002839162437
0	7696	22.257873299078	0.006132154148
0	7701	22.264005453226	0.004302460948
0	7706	22.268307914174	0.019207432151
0	7713	22.287515346325	0.020031326919
0	7719	22.307546673244	0.01587408155
0	7724	22.323420754794	0.036725762026
0	7729	22.36014651682	0.008172265584
0	7734	22.368318782404	0.01746015965
0	7739	22.385778942054	0.010083009972
0	7744	22.395861952026	0.039614427756
0	7749	22.435476379782	0.01339134213
0	7754	22.448867721912	0.010901297126
0	7759	22.459769019038	0.030312920659
0	7764	22.490081939697	0.017929628394
0	7769	22.508011568091	0.005730757795
0	7773	22.513742325886	0.003293431019
0	7778	22.517035756905	0.005108311521
0	7781	22.522144068426	0.003412187457
0	7786	22.525556255883	0.016656468802
0	7793	22.542212724685	0.032952257406
0	7799	22.575164982091	0.007422365593
0	7804	22.582587347684	0.007966300774
0	7810	22.590553648458	0.0059726083
0	7814	22.596526256758	0.009735331655
0	7820	22.606261588413	0.009461969114
0	7825	22.615723557527	0.016659913674
0	7830	22.632383471201	0.016431956736
0	7835	22.648815427937	0.004928982809
0	7839	22.653744410746	0.021061989048
0	7845	22.674806399794	0.008484398089
0	7850	22.683290797883	0.018097407112
0	7855	22.701388204995	0.013902437735
0	7860	22.71529064273	0.061993642209
0	7865	22.777284284939	0.018928915867
0	7870	22.796213200806	0.004321793056
0	7874	22.800534993862	0.000570620625
0	7877	22.801105614487	0.019756229823
0	7885	22.82086184431	0.001919930837
0	7889	22.822781775147	0.00367414504
0	7892	22.826455920187	0.043450419499
0	7900	22.869906339686	0.013745372484
0	7905	22.88365171217	0.006459100657
0	7909	22.890110812827	0.02056204937
0	7915	22.910672862197	0.003659415988
0	7919	22.914332278185	0.011507591417
0	7924	22.925839869602	0.003656051549
0	7929	22.929495921151	0.003544210915
0	7932	22.933040132066	0.028473791232
0	7940	22.961513923298	0.020916953325
0	7945	22.982430876623	0.019442564837
0	7950	23.00187344146	0.045434199083
0	7955	23.047307640543	0.006410222482
0	7959	23.053717863025	0.003317528473
0	7964	23.057035391498	0.009654276802
0	7969	23.0666896683	0.008163171123
0	7974	23.074852839423	0.007825244214
0	7979	23.082678083637	0.020866839005
0	7986	23.103544922642	0.039364419114
0	7991	23.142909341756	0.009270954912
0	7996	23.152180296668	0.00209677849
0	8000	23.154277075158	0.014872673879
0	8006	23.169149749037	0.023599072364
0	8011	23.192748821401	0.002999358033
0	8015	23.195748179434	0.021325401891
0	8021	23.217073581325	0.002146366048
0	8025	23.219219947373	0.0062675101
0	8030	23.225487457473	0.012335624341
0	8035	23.237823081814	0.005166978943
0	8040	23.242990060757	0.054390120656
0	8046	23.297380181413	0.04823909032
0	8051	23.345619271733	0.01468396436
0	8056	23.360303236093	0.009986369829
0	8061	23.370289605922	0.020035560282
0	8066	23.390325166204	0.017292716064
0	8071	23.407617882268	0.03411823556
0	8076	23.441736117828	0.023415660872
0	8081	23.4651517787	0.000671406455
0	8085	23.465823185155	0.051076914297
0	8091	23.516900099452	0.003842655653
0	8095	23.520742755105	0.017257441423
0	8101	23.538000196528	0.015601985838
0	8106	23.553602182366	0.002430541819
0	8110	23.556032724185	0.023048261719
0	8116	23.579080985904	0.003974862154
0	8120	23.583055848058	0.010452047409
0	8125	23.593507895467	0.001973696692
0	8130	23.595481592159	9.8252337e-005
0	8133	23.595579844496	0.021200675243
0	8140	23.616780519739	0.002003991588
0	8145	23.618784511327	0.035359850447
0	8151	23.654144361774	0.000266282598
0	8155	23.654410644372	0.005736062522
0	8158	23.660146706894	0.003932278067
0	8163	23.664078984961	0.036769291557
0	8171	23.700848276518	0.018414619767
0	8176	23.719262896285	0.009751603835
0	8181	23.72901450012	0.004797523136
0	8185	23.733812023256	0.023539005395
0	8191	23.757351028651	0.030796261612
0	8196	23.788147290263	0.017819012304
0	8201	23.805966302567	0.005662253181
0	8205	23.811628555748	0.020254958443
0	8211	23.831883514191	0.000388587803
0	8215	23.832272101994	0.01815087166
0	8221	23.850422973654	0.00420165401
0	8225	23.854624627664	0.01117142674
0	8230	23.865796054404	0.010522194225
0	8236	23.876318248629	0.025797676448
0	8241	23.902115925077	0.005382252481
0	8245	23.907498177558	0.015669620858
0	8251	23.923167798416	0.015557445276
0	8256	23.938725243692	0.020287285947
0	8261	23.959012529639	0.000364415025
0	8265	23.959376944664	0.012946779321
0	8270	23.972323723985	0.015023542941
0	8276	23.987347266926	0.013750605821
0	8281	24.001097872747	0.006282760128
0	8285	24.007380632875	0.005588543426
0	8290	24.012969176301	0.000331035079
0	8293	24.01330021138	0.006055409594
0	8298	24.019355620974	0.036628065035
0	8306	24.055983686009	0.01285698365
0	8311	24.068840669659	0.043966411661
0	8316	24.11280708132	0.010750844493
0	8321	24.123557925813	0.011175945615
0	8326	24.134733871428	0.014955948934
0	8331	24.149689820362	0.029179086366
0	8336	24.178868906728	0.003697741634
0	8340	24.182566648362	0.008936431654
0	8345	24.191503080016	0.008577426741
0	8350	24.200080506757	0.031821754002
0	8356	24.231902260759	0.031411698953
0	8361	24.263313959712	0.00012297075
0	8365	24.263436930462	0.008531770457
0	8370	24.271968700919	0.024422379522
0	8376	24.296391080441	0.016695689694
0	8381	24.313086770135	0.026216583674
0	8386	24.339303353809	0.005224046133
0	8390	24.344527399942	0.005885574813
0	8395	24.350412974755	0.052215530878
0	8401	24.402628505633	0.054835335823
0	8406	24.457463841456	0.021864852685
0	8411	24.479328694141	0.077535744768
0	8416	24.556864438909	0.016979043168
0	8421	24.573843482077	0.006238994356
0	8425	24.580082476433	0.000637088046
0	8428	24.580719564479	0.008412320194
0	8433	24.589131884673	0.017708682688
0	8441	24.606840567361	0.01150739536
0	8446	24.618347962721	0.004286868905
0	8450	24.622634831626	0.007984247682
0	8455	24.630619079308	0.021859189853
0	8461	24.652478269161	0.002949556418
0	8465	24.655427825579	0.016961185278
0	8471	24.672389010857	0.024420748236
0	8476	24.696809759093	0.022778671951
0	8481	24.719588431044	0.017930961509
0	8486	24.737519392553	0.009677853814
0	8491	24.747197246367	0.014734755973
0	8496	24.76193200234	0.114131940887
0	8501	24.876063943227	0.000956431516
0	8505	24.877020374743	0.014608771606
0	8511	24.891629146349	0.013771030887
0	8516	24.905400177236	0.006895463729
0	8520	24.912295640965	0.010025565383
0	8526	24.922321206348	0.004166192426
0	8530	24.926487398774	0.012022833725
0	8536	24.938510232499	0.0057842267
0	8540	24.944294459199	0.053812963541
0	8546	24.99810742274	0.010432213493
0	8551	25.008539636233	0.022381409709
0	8556	25.030921045942	0.008811627232
0	8561	25.039732673174	0.002368098429
0	8565	25.042100771603	0.049552959714
0	8571	25.091653731317	0.019705213172
0	8576	25.111358944489	0.025245756229
0	8581	25.136604700718	0.000698624255
0	8585	25.137303324973	0.006730300007
0	8588	25.14403362498	0.003441474063
0	8593	25.147475099043	0.001481631528
0	8596	25.148956730571	0.009851222982
0	8601	25.158807953553	0.008862520954
0	8608	25.167670474507	0.006485220312
0	8611	25.174155694819	0.002087290605
0	8616	25.176242985424	9.6793245e-005
0	8619	25.176339778669	0.024603528859
0	8628	25.200943307528	0.002804913883
0	8631	25.203748221411	0.05010719958
0	8641	25.253855420991	0.027981841238
0	8646	25.281837262229	0.020869604848
0	8651	25.302706867077	0.004387235723
0	8655	25.3070941028	0.020373896676
0	8661	25.327467999476	0.000698057685
0	8665	25.328166057161	0.024455460997
0	8671	25.352621518158	0.008014646415
0	8676	25.360636164573	0.003277613576
0	8680	25.363913778149	0.006984859684
0	8685	25.370898637833	0.006285927355
0	8690	25.377184565188	0.022270469626
0	8696	25.399455034814	0.002072272562
0	8700	25.401527307376	0.006616222437
0	8705	25.408143529813	0.010150005242
0	8710	25.418293535055	0.005754647053
0	8715	25.424048182108	0.012189152418
0	8720	25.436237334526	0.006855249259
0	8725	25.443092583785	0.000661488485
0	8728	25.44375407227	0.006887237535
0	8733	25.450641309805	0.028279583983
0	8741	25.478920893788	0.002451052859
0	8745	25.481371946647	0.019155850193
0	8751	25.50052779684	0.022071294778
0	8756	25.522599091618	0.007445928942
0	8760	25.53004502056	0.018628035754
0	8766	25.548673056314	0.019205598751
0	8771	25.567878655065	0.040298039057
0	8776	25.608176694122	0.013377283427
0	8781	25.621553977549	0.008730126713
0	8786	25.630284104262	0.021939821758
0	8791	25.65222392602	0.005057131439
0	8795	25.657281057459	0.011434816318
0	8801	25.668715873777	0.000279141432
0	8805	25.668995015209	0.001612426355
0	8808	25.670607441564	0.00493841813
0	8811	25.675545859694	0.029401276882
0	8821	25.704947136576	0.005257616929
0	8825	25.710204753505	0.005359012254
0	8830	25.715563765759	0.004030346299
0	8833	25.719594112058	0.008468561543
0	8838	25.728062673601	0.014633166891
0	8845	25.742695840492	0.004016716628
0	8850	25.74671255712	0.01380348867
0	8856	25.76051604579	0.008651886561
0	8861	25.769167932351	0.007415957955
0	8865	25.776583890306	0.001186545051
0	8870	25.777770435357	0.011659445184
0	8875	25.789429880541	0.009941986017
0	8880	25.799371866558	0.019463685722
0	8886	25.81883555228	0.000374486536
0	8890	25.819210038816	0.021318378078
0	8896	25.840528416894	0.011241040428
0	8901	25.851769457322	0.052659067456
0	8906	25.904428524778	0.031903343632
0	8911	25.93633186841	0.005026642711
0	8915	25.941358511121	0.020125914366
0	8921	25.961484425487	0.007310168331
0	8925	25.968794593818	0.001413119983
0	8930	25.970207713801	0.02184851562
0	8936	25.992056229421	0.004902999128
0	8940	25.996959228549	0.007786522065
0	8945	26.004745750614	0.004533443512
0	8950	26.009279194126	0.007145812377
0	8955	26.016425006503	0.00649176682
0	8958	26.022916773323	0.03582865728
0	8966	26.058745430603	0.000404463847
0	8970	26.05914989445	0.002556129158
0	8973	26.061706023608	0.012490642297
0	8980	26.074196665905	0.017772368452
0	8986	26.091969034357	0.019950122885
0	8991	26.111919157242	0.01559967306
0	8996	26.127518830302	0.004868231528
0	9000	26.13238706183	0.005450753187
0	9005	26.137837815017	0.01248731687
0	9010	26.150325131887	0.022281358417
0	9016	26.172606490304	0.013325037879
0	9021	26.185931528183	0.029030112701
0	9026	26.214961640884	0.021035654189
0	9031	26.235997295073	0.01740328329
0	9036	26.253400578363	0.002983253915
0	9040	26.256383832278	0.023270125965
0	9046	26.279653958243	0.026765109777
0	9051	26.30641906802	0.00472418533
0	9055	26.31114325335	0.008932025119
0	9060	26.320075278469	0.006755032033
0	9065	26.326830310502	0.007199767009
0	9070	26.334030077511	0.00051960849
0	9073	26.334549686001	0.007960840947
0	9078	26.342510526948	0.020055515246
0	9086	26.362566042194	0.018890803729
0	9091	26.381456845923	0.004865732445
0	9095	26.386322578368	0.017270127577
0	9101	26.403592705945	0.016038686633
0	9106	26.419631392578	0.002237413542
0	9110	26.42186880612	0.002495410455
0	9113	26.424364216575	0.001722050381
0	9116	26.426086266956	0.004724893818
0	9121	26.430811160774	0.005004164624
0	9126	26.435815325398	0.005857880079
0	9129	26.441673205477	0.025417826169
0	9140	26.467091031646	0.028069320237
0	9146	26.495160351883	0.00852108677
0	9151	26.503681438653	0.005404226273
0	9155	26.509085664926	0.009731458972
0	9160	26.518817123898	0.012162239086
0	9166	26.530979362984	0.065690813836
0	9172	26.59667017682	0.030639039106
0	9177	26.627309215926	0.003736899879
0	9181	26.631046115805	0.018918711742
0	9187	26.649964827547	0.015714966678
0	9192	26.665679794225	0.020189768249
0	9197	26.685869562474	0.027956569736
0	9202	26.71382613221	0.04011863645
0	9207	26.75394476866	0.066078724044
0	9212	26.820023492704	0.021292731835
0	9217	26.841316224539	0.006452427852
0	9221	26.847768652391	0.008075288678
0	9226	26.855843941069	0.021265143686
0	9232	26.877109084755	0.008174764921
0	9237	26.885283849676	0.001678805428
0	9241	26.886962655104	0.007909890815
0	9246	26.894872545919	0.003441045881
0	9249	26.8983135918	0.048645779418
0	9257	26.946959371218	0.036912638822
0	9262	26.98387201004	0.00154536452
0	9266	26.98541737456	0.009393032438
0	9271	26.994810406998	0.024458211019
0	9277	27.019268618017	0.002224731136
0	9281	27.021493349153	0.033867394532
0	9287	27.055360743685	0.071667893845
0	9292	27.12702863753	0.044875605892
0	9297	27.171904243422	0.003079316387
0	9301	27.174983559809	0.049030784642
0	9307	27.224014344451	0.000330391311
0	9311	27.224344735762	0.024051355999
0	9317	27.248396091761	0.012281654324
0	9322	27.260677746085	0.00441724691
0	9326	27.265094992995	0.005974862652
0	9331	27.271069855647	0.006145700618
0	9336	27.277215556265	0.011615933151
0	9341	27.288831489416	0.004976820341
0	9346	27.293808309757	0.00782096705
0	9351	27.301629276807	0.017301050005
0	9357	27.318930326812	0.008391171209
0	9362	27.327321498021	0.000420766816
0	9366	27.327742264837	0.005861302687
0	9369	27.333603567524	0.005228498733
0	9374	27.338832066257	0.00317924358
0	9377	27.342011309837	0.015386943611
0	9384	27.357398253448	0.00723658073
0	9389	27.364634834178	0.030533550421
0	9397	27.395168384599	0.002537216838
0	9401	27.397705601437	0.040261089797
0	9407	27.437966691234	0.000916699901
0	9411	27.438883391135	0.009780545591
0	9416	27.448663936726	0.023695207965
0	9422	27.472359144691	0.037035682469
0	9427	27.50939482716	0.001823336813
0	9431	27.511218163973	0.004804195542
0	9434	27.516022359515	0.013470114909
0	9441	27.529492474424	0.0398192829
0	9447	27.569311757324	0.016431195408
0	9452	27.585742952732	4.4231577e-005
0	9456	27.585787184309	0.014677965078
0	9461	27.600465149387	0.004188298933
0	9466	27.60465344832	0.006445572645
0	9471	27.611099020965	0.030564427388
0	9477	27.641663448353	0.014871057147
0	9482	27.6565345055	0.017096767475
0	9487	27.673631272975	0.005116492436
0	9491	27.678747765411	0.007049403084
0	9496	27.685797168495	5.66446e-005
0	9499	27.685853813095	0.007081126899
0	9504	27.692934939994	0.009047608921
0	9509	27.701982548915	0.006900091228
0	9514	27.708882640143	0.006170722258
0	9519	27.715053362401	0.032968366891
0	9527	27.748021729292	0.027695255666
0	9532	27.775716984958	0.029811884208
0	9537	27.805528869166	0.015764233991
0	9542	27.821293103157	0.03234326075
0	9547	27.853636363907	0.004867657046
0	9551	27.858504020953	0.017213829722
0	9557	27.875717850675	0.037232658581
0	9562	27.912950509256	0.00585988975
0	9566	27.918810399006	0.009601036799
0	9571	27.928411435805	0.015661026561
0	9577	27.944072462366	0.015657130393
0	9582	27.959729592759	0.001932947427
0	9586	27.961662540186	0.005343989846
0	9589	27.967006530032	0.017784466978
0	9597	27.98479099701	0.002280558289
0	9601	27.987071555299	0.001523831829
0	9604	27.988595387128	0.005118687307
0	9609	27.993714074435	0.007670062239
0	9614	28.001384136674	0.030010990521
0	9622	28.031395127195	0.007417124032
0	9626	28.038812251227	0.005376367813
0	9631	28.04418861904	0.005283457171
0	9636	28.049472076211	0.00357118595
0	9639	28.053043262161	0.015964343449
0	9646	28.06900760561	0.015296703323
0	9652	28.084304308933	0.014087433242
0	9657	28.098391742175	0.006809830809
0	9661	28.105201572984	0.013090629819
0	9667	28.118292202803	0.00543351712
0	9671	28.123725719923	0.045733680703
0	9677	28.169459400626	0.010656586807
0	9682	28.180115987433	0.042752555332
0	9688	28.222868542765	0.012867897893
0	9693	28.235736440658	0.03274304427
0	9698	28.268479484928	0.031846351604
0	9703	28.300325836532	0.046784516901
0	9708	28.347110353433	0.010678339705
0	9713	28.357788693138	0.024394108619
0	9718	28.382182801757	0.004395330777
0	9722	28.386578132534	0.01340949066
0	9728	28.399987623194	0.027948619789
0	9733	28.427936242983	0.0008343555
0	9737	28.428770598483	0.026054312353
0	9743	28.454824910836	0.000551913309
0	9747	28.455376824145	0.010915768771
0	9752	28.466292592916	0.021454226908
0	9758	28.487746819824	0.000138574479
0	9762	28.487885394303	0.004433568583
0	9765	28.492318962886	0.012632804904
0	9772	28.50495176779	0.028396523526
0	9778	28.533348291316	0.008854840445
0	9783	28.542203131761	0.004249177156
0	9787	28.546452308917	0.015875555942
0	9793	28.562327864859	0.02055820039
0	9798	28.582886065249	0.001726903403
0	9802	28.584612968652	0.01823794072
0	9808	28.602850909372	0.013237966016
0	9813	28.616088875388	0.007669810638
0	9817	28.623758686026	0.012889068911
0	9823	28.636647754937	0.006233908894
0	9827	28.642881663831	0.024357613381
0	9833	28.667239277212	0.025054407996
0	9838	28.692293685208	0.005586063563
0	9842	28.697879748771	0.01601288078
0	9848	28.713892629551	0.007725113175
0	9852	28.721617742726	0.001422334096
0	9857	28.723040076822	0.043927388029
0	9863	28.766967464851	0.020085199592
0	9868	28.787052664443	0.000895840582
0	9872	28.787948505025	0.025191375423
0	9878	28.813139880448	0.047369776825
0	9883	28.860509657273	0.005513069356
0	9887	28.866022726629	0.008860565873
0	9893	28.874883292502	0.00428682945
0	9898	28.879170121952	0.007219220009
0	9903	28.886389341961	0.040340333675
0	9909	28.926729675636	0.017758906327
0	9914	28.944488581963	0.029689518102
0	9919	28.974178100065	0.005114081299
0	9923	28.979292181364	0.047555450616
0	9929	29.02684763198	0.025871798032
0	9934	29.052719430012	0.013556509518
0	9939	29.06627593953	0.001856934365
0	9943	29.068132873895	0.015802647384
0	9949	29.083935521279	0.029731487465
0	9954	29.113667008744	0.012389653096
0	9959	29.12605666184	0.001363450265
0	9963	29.127420112105	0.000893343153
0	9966	29.128313455258	0.00578243602
0	9971	29.134095891278	0.014738620704
0	9976	29.148834511982	0.022403566695
0	9984	29.171238078677	0.038482107304
0	9989	29.209720185981	0.017244195789
0	9994	29.22696438177	0.043206596465
0	9999	29.270170978235	0.008758404189
0	10004	29.278929382424	0.008488171887
0	10009	29.287417554311	0.001270059065
0	10013	29.288687613376	0.000389990075
0	10016	29.289077603451	0.013149868886
0	10021	29.302227472337	0.006544978654
0	10026	29.308772450991	0.000972372451
0	10029	29.309744823442	0.007481197875
0	10034	29.317226021317	0.002789277132
0	10039	29.320015298449	0.018308559616
0	10046	29.338323858065	0.013678711349
0	10053	29.352002569414	0.011615740484
0	10058	29.363618309898	0.01503850335
0	10064	29.378656813248	0.043323701249
0	10069	29.421980514497	0.016183045814
0	10074	29.438163560311	0.043760016033
0	10079	29.481923576344	0.013703157192
0	10084	29.495626733536	0.004513433885
0	10088	29.500140167421	0.038865145493
0	10094	29.539005312914	0.000837084419
0	10098	29.539842397333	0.016654843951
0	10104	29.556497241284	0.005711723409
0	10108	29.562208964693	0.038821257083
0	10114	29.601030221776	0.02534634857
0	10119	29.626376570346	0.000617481974
0	10123	29.62699405232	0.015423795278
0	10129	29.642417847598	0.00304470124
0	10133	29.645462548838	0.013894075909
0	10139	29.659356624747	0.000452581862
0	10143	29.659809206609	0.000520481651
0	10146	29.66032968826	0.012779014532
0	10151	29.673108702792	0.004163266463
0	10156	29.677271969255	0.014414082012
0	10163	29.691686051267	0.030999581429
0	10169	29.722685632696	0.019749106826
0	10174	29.742434739522	0.008680698245
0	10179	29.751115437767	0.034162212576
0	10184	29.785277650343	0.001453209602
0	10188	29.786730859945	0.004431427333
0	10191	29.791162287278	0.007628312303
0	10196	29.798790599581	0.027731666204
0	10204	29.826522265785	0.014035194396
0	10209	29.840557460181	0.00640971509
0	10213	29.846967175271	0.002543481927
0	10218	29.849510657198	0.020143754903
0	10224	29.869654412101	0.005484915684
0	10228	29.875139327785	0.004709963188
0	10233	29.879849290973	0.002990780321
0	10236	29.882840071294	0.021249841351
0	10244	29.904089912645	0.010216955229
0	10249	29.914306867874	0.00558669065
0	10253	29.919893558524	0.005635503142
0	10258	29.925529061666	0.009979013539
0	10263	29.935508075205	0.011289516954
0	10269	29.946797592159	0.033855096599
0	10274	29.980652688758	0.007706823733
0	10278	29.988359512491	0.002552329219
0	10283	29.99091184171	0.023792383907
0	10289	30.014704225617	0.001493255221
0	10293	30.016197480838	0.006089162984
0	10296	30.022286643822	0.0028900831
[...]
23	17351	52.467087507587	0.008075680665
23	17356	52.477565155118	0.008076612438
23	17361	52.521159999477	0.008076612438
23	17366	52.529236611915	0.010777086138
23	17371	52.569764449108	0.008077544426
23	17379	52.577841993534	0.011749060998
23	17381	52.58591953796	0.016792528954
23	17386	52.630004848769	0.00807847663
23	17391	52.638083325399	0.009359215491
23	17396	52.646161802029	0.012698419322
23	17401	52.654240278659	0.0112377787
23	17406	52.673298933409	0.00807847663
23	17411	52.681377410039	0.008788165199
23	17416	52.689456819088	0.013065486506
23	17421	52.697864338163	0.008079409049
23	17426	52.705943747212	0.00964838168
23	17434	52.714023156261	0.015888442994
23	17442	52.72210256531	0.020432514111
23	17444	52.730181974359	0.023017875759
23	17446	52.738261383408	0.027870332579
23	17451	52.746340792457	0.014609960117
23	17456	52.813592088407	0.008081274532
23	17461	52.837159825624	0.008081274532
23	17466	52.848112012324	0.008081274532
23	17471	52.856193286856	0.011713834514
23	17476	52.864274561388	0.011402031003
23	17484	52.87235583592	0.016023580269
23	17495	52.880437110452	0.020461469536
23	17497	52.888519318049	0.021616479411
23	17499	52.896601525646	0.029542368544
23	17510	52.904683733243	0.032489499573
23	17512	52.91276594084	0.021595159577
23	17517	52.920848148437	0.027432670672
23	17519	52.928930356034	0.034510873345
23	17521	52.937012563631	0.025944687874
23	17529	52.945094771228	0.013266600002
23	17531	52.953177912106	0.017944285715
23	17536	52.965557482489	0.008083140878
23	17541	52.993097886597	0.008083140878
23	17546	53.013793982446	0.008084074373
23	17551	53.023674225723	0.008084074373
23	17556	53.031758300096	0.010455821689
23	17561	53.039842374469	0.012278180831
23	17566	53.050442445624	0.008084074373
23	17571	53.062118973704	0.008084074373
23	17576	53.070203048077	0.010165366506
23	17581	53.098573389018	0.008085008085
23	17586	53.106658397103	0.01564990602
23	17591	53.120250227035	0.008085008085
23	17596	53.12833523512	0.009150766876
23	17604	53.136420243205	0.012855426797
23	17606	53.14450525129	0.019460394125
23	17611	53.152590259375	0.015404094019
23	17616	53.165997788915	0.008085942012
23	17621	53.18205742349	0.008085942012
23	17626	53.197007761138	0.008085942012
23	17631	53.226293750115	0.008086876155
23	17636	53.248268751222	0.008086876155
23	17641	53.256355627377	0.008102862006
23	17646	53.284964418342	0.008087810514
23	17651	53.293052228856	0.014135492067
23	17656	53.315240885692	0.008087810514
23	17661	53.323328696206	0.009004270494
23	17666	53.350251596561	0.008088745089
23	17671	53.35834034165	0.011494874795
23	17676	53.381418933398	0.008088745089
23	17681	53.391164908182	0.008088745089
23	17686	53.399253653271	0.013718919221
23	17691	53.40734239836	0.012842352866
23	17696	53.417519742349	0.00808967988
23	17701	53.425778682722	0.00808967988
23	17706	53.433868362602	0.012435092179
23	17714	53.441958042482	0.015773006015
23	17719	53.450047722362	0.021572617878
23	17721	53.458137402242	0.021020070006
23	17726	53.467564410221	0.00808967988
23	17731	53.486538519207	0.008090614887
23	17736	53.5167708063	0.008090614887
23	17744	53.524861421187	0.013321360706
23	17746	53.532952036074	0.019829671642
23	17751	53.556324447716	0.00809155011
23	17756	53.566970175478	0.00809155011
23	17764	53.575061725588	0.009810755893
23	17769	53.583153275698	0.016621206776
23	17777	53.591244825808	0.016287710958
23	17779	53.599336375918	0.020757925433
23	17784	53.607427926028	0.024605562635
23	17789	53.615519476138	0.016732938612
23	17794	53.623611961687	0.017983073263
23	17799	53.631704447236	0.022918767342
23	17801	53.639796932785	0.01955249978
23	17806	53.647889418334	0.008178222812
23	17811	53.673226940741	0.008092485549
23	17816	53.693836410257	0.008093421205
23	17821	53.707489373418	0.008093421205
23	17826	53.754741464735	0.008094357077
23	17831	53.765065250442	0.008094357077
23	17839	53.773159607519	0.013007089856
23	17841	53.781253964596	0.016236384528
23	17846	53.800587981841	0.008094357077
23	17851	53.814584142264	0.008095293165
23	17856	53.822679435429	0.013646760426
23	17861	53.83873734272	0.008095293165
23	17872	53.846832635885	0.015808664159
23	17880	53.85492792905	0.022786716489
23	17882	53.863023222215	0.028876452868
23	17887	53.87111851538	0.02803686673
23	17889	53.879213808545	0.033414518521
23	17891	53.88730910171	0.031176972036
23	17896	53.89663345599	0.00809622947
23	17901	53.917633925338	0.00809622947
23	17906	53.925730154808	0.013836978598
23	17911	53.933826384278	0.015629114909
23	17916	53.941922613748	0.013262916748
23	17921	53.950018843218	0.012449206187
23	17926	53.95811600921	0.01609457658
23	17934	53.966213175202	0.01056933808
23	17936	53.974310341194	0.017948942598
23	17941	53.982407507186	0.010301102903
23	17946	54.033421122488	0.00809810273
23	17951	54.068837210211	0.00809810273
23	17956	54.076935312941	0.014086120246
23	17961	54.085033415671	0.010648839214
23	17969	54.093132455356	0.010662206633
23	17971	54.101231495041	0.018382373579
23	17976	54.123435419728	0.008099039685
23	17981	54.137955847371	0.008099039685
23	17986	54.146054887056	0.01561327985
23	17991	54.154153926741	0.014052109349
23	17996	54.193077433255	0.008099976857
23	18001	54.205077824409	0.008099976857
23	18006	54.213177801266	0.014171124414
23	18011	54.221277778123	0.013354959265
23	18016	54.244061344953	0.008100914246
23	18024	54.252162259199	0.015418254994
23	18029	54.260263173445	0.016582246006
23	18031	54.268364087691	0.01965342726
23	18036	54.285054213375	0.008101851852
23	18041	54.293156065227	0.012676490216
23	18046	54.303556427271	0.008101851852
23	18051	54.325439063427	0.008101851852
23	18056	54.333540915279	0.011315975409
23	18061	54.462322173017	0.008103727715
23	18066	54.470425900732	0.01556569054
23	18071	54.486878423053	0.008104665972
23	18076	54.494983089025	0.009827020593
23	18081	54.536215098481	0.008104665972
23	18089	54.544319764453	0.012163744244
23	18091	54.552424430425	0.018602364752
23	18099	54.560530034872	0.015639027501
23	18104	54.568635639319	0.020472525334
23	18106	54.576741243766	0.017748478125
23	18111	54.601178061502	0.008105604447
23	18116	54.623681661774	0.008106543138
23	18121	54.644505534161	0.008106543138
23	18126	54.652612077299	0.010231154788
23	18134	54.660718620437	0.014143002095
23	18139	54.668825163575	0.017509695227
23	18141	54.676931706713	0.022078618274
23	18146	54.685038249851	0.013001568351
23	18154	54.693145731899	0.013766362663
23	18159	54.701253213947	0.019685131195
23	18161	54.709360695995	0.019034558789
23	18172	54.717468178043	0.015715621525
23	18177	54.725575660091	0.017912092772
23	18179	54.733683142139	0.025506813351
23	18181	54.741790624187	0.026655530564
23	18186	54.754058433336	0.008108421175
23	18191	54.763610364371	0.008108421175
23	18196	54.771718785546	0.01286509202
23	18201	54.825206548606	0.008109360519
23	18206	54.833315909125	0.016153367792
23	18211	54.855958759793	0.008109360519
23	18216	54.864068120312	0.015976476894
23	18221	54.872731241635	0.008109360519
23	18226	54.886383302734	0.008110300081
23	18231	54.92810685644	0.008110300081
23	18236	54.936217156521	0.012921252895
23	18241	54.957499635158	0.008111239861
23	18246	54.965610875019	0.010094114432
23	18251	54.97812914535	0.008111239861
23	18256	54.998441429319	0.008111239861
23	18261	55.00655266918	0.011729689976
23	18266	55.014663909041	0.014854626802
23	18271	55.026743297548	0.008112179859
23	18276	55.034855477407	0.013845032007
23	18281	55.042967657266	0.013809772346
23	18286	55.051079837125	0.015400009158
23	18291	55.059192016984	0.012784677932
23	18296	55.073872103776	0.008112179859
23	18307	55.081984283635	0.01562573903
23	18312	55.090096463494	0.02125900927
23	18314	55.098209583568	0.02799518311
23	18316	55.106322703642	0.032418301477
23	18321	55.130209881182	0.008113120074
23	18326	55.146325673261	0.008113120074
23	18331	55.154438793335	0.012463465341
23	18336	55.193174854178	0.008114060508
23	18341	55.203663627543	0.008114060508
23	18346	55.211909626574	0.008114060508
23	18351	55.220023687082	0.013653344955
23	18356	55.23875340781	0.008115001159
23	18361	55.293946914315	0.008115942029
23	18366	55.302062856344	0.010751846678
23	18371	55.32110791041	0.008115942029
23	18376	55.344890978294	0.008115942029
23	18381	55.35940118775	0.008116883117
23	18386	55.367880809645	0.008116883117
23	18391	55.380650972839	0.008116883117
23	18396	55.403770443925	0.008116883117
23	18401	55.423719368997	0.008117824423
23	18406	55.440874649062	0.008117824423
23	18417	55.448992473485	0.015726613162
23	18419	55.457110297908	0.021355788137
23	18421	55.465228122331	0.029112274024
23	18426	55.473345946754	0.012618474817
23	18431	55.508460649325	0.008118765948
23	18436	55.527793662273	0.008118765948
23	18441	55.546534239147	0.008118765948
23	18449	55.554653005095	0.011629065022
23	18454	55.562772712786	0.016341744708
23	18459	55.570892420477	0.022981050293
23	18467	55.579012128168	0.021310922093
23	18469	55.587131835859	0.021252796062
23	18471	55.59525154355	0.028003417259
23	18476	55.604295443595	0.008119707691
23	18484	55.612415151286	0.013459837309
23	18486	55.620534858977	0.020413100357
23	18491	55.633341941843	0.008120649652
23	18502	55.641462591495	0.010431882778
23	18510	55.649583241147	0.016888386706
23	18515	55.657703890799	0.024552201665
23	18517	55.665824540451	0.029819684832
23	18519	55.673945190103	0.03413901814
23	18521	55.682065839755	0.036568937563
23	18526	55.691950178844	0.008121591832
23	18531	55.707442402526	0.008121591832
23	18536	55.721224140309	0.008121591832
23	18544	55.729345732141	0.014950671733
23	18546	55.737467323973	0.020428045985
23	18551	55.750664055261	0.008121591832
23	18559	55.758785647093	0.010955573324
23	18564	55.766908181324	0.017148394407
23	18566	55.775030715555	0.016763773183
23	18571	55.799699044861	0.008122534231
23	18576	55.822848862167	0.008123476848
23	18581	55.84747619746	0.008123476848
23	18586	55.855599674308	0.015553249946
23	18591	55.874772633427	0.008123476848
23	18596	55.896782368803	0.008124419684
23	18604	55.904906788487	0.009407139641
23	18606	55.913031208171	0.017278062835
23	18611	55.951627228012	0.008124419684
23	18617	55.968011809035	0.008125362739
23	18622	56.025635005575	0.008125362739
23	18627	56.050053688262	0.008125362739
23	18632	56.058179051001	0.01489474753
23	18640	56.06630441374	0.01223688655
23	18648	56.074429776479	0.019405436557
23	18653	56.082555139218	0.019438060883
23	18655	56.090680501957	0.025076765141
23	18660	56.098805864696	0.031780047706
23	18662	56.106931227435	0.018488096755
23	18667	56.130475439931	0.008125362739
23	18672	56.156192417172	0.008125362739
23	18677	56.182987492621	0.008125362739
23	18682	56.192593620692	0.008125362739
23	18687	56.20698920801	0.008125362739
23	18692	56.238890569576	0.008126306013
23	18697	56.25018586401	0.008126306013
23	18702	56.275811188619	0.008126306013
23	18707	56.287664098816	0.008126306013
23	18712	56.30039814462	0.008126306013
23	18717	56.316730535066	0.008126306013
23	18722	56.337813544949	0.008126306013
23	18727	56.345939850962	0.012383661836
23	18732	56.360402069435	0.008126306013
23	18737	56.371194676817	0.008126306013
23	18745	56.37932098283	0.015531112155
23	18750	56.387447288843	0.020715900921
23	18752	56.395573594856	0.021995599882
23	18757	56.423392846524	0.008126306013
23	18762	56.431519152537	0.011667705669
23	18767	56.488432292632	0.008127249507
23	18772	56.502963970266	0.008127249507
23	18777	56.511091219773	0.009329563954
23	18782	56.51921846928	0.009653071478
23	18787	56.538443026437	0.008127249507
23	18792	56.546570275944	0.012076709928
23	18797	56.554697525451	0.008753434889
23	18802	56.562824774958	0.014702272014
23	18807	56.572527179513	0.008127249507
23	18812	56.591125838692	0.008127249507
23	18817	56.635837182928	0.008127249507
23	18822	56.643964432435	0.016196853988
23	18827	56.652091681942	0.008729028134
23	18832	56.673310729094	0.008127249507
23	18843	56.681437978601	0.013173363272
23	18848	56.689565228108	0.019345742372
23	18850	56.697692477615	0.026468424261
23	18852	56.705819727122	0.024464165461
23	18857	56.713946976629	0.015337077287
23	18862	56.74337719761	0.008128193219
23	18867	56.751505390829	0.012288398727
23	18872	56.759633584048	0.011562835239
23	18877	56.769779465976	0.008128193219
23	18882	56.777907659195	0.010872164927
23	18887	56.811676553824	0.008128193219
23	18895	56.819804747043	0.011001585976
23	18903	56.827932940262	0.017204720578
23	18905	56.836061133481	0.021525655903
23	18910	56.8441893267	0.027557157471
23	18912	56.852317519919	0.023565342421
23	18917	56.865139221801	0.008128193219
23	18922	56.874157323504	0.008128193219
23	18927	56.901304404162	0.008128193219
23	18932	56.912610657428	0.008128193219
23	18937	56.920738850647	0.014656188093
23	18942	56.936612013235	0.008128193219
23	18947	56.944740206454	0.012103635857
23	18955	56.952868399673	0.014241394789
23	18960	56.960996592892	0.018032836965
23	18965	56.969124786111	0.021762826072
23	18967	56.97725297933	0.018938411784
23	18972	56.98538211648	0.014367903631
23	18977	56.997922556307	0.00812913715
23	18982	57.006051693457	0.013300412934
23	18987	57.014180830607	0.012894370013
23	18992	57.036682860211	0.00812913715
23	18997	57.053149134281	0.00812913715
23	19002	57.149739947625	0.00812913715
23	19007	57.161725103035	0.00812913715
23	19012	57.169854240185	0.014918908451
23	19017	57.186829904005	0.00812913715
23	19022	57.194959041155	0.009120753227
23	19027	57.203088178305	0.008603874363
23	19032	57.211217315455	0.016145999869
23	19037	57.220672698292	0.00812913715
23	19042	57.228801835442	0.009419297125
23	19047	57.248434423502	0.008130081301
23	19052	57.267746899534	0.008130081301
23	19060	57.275876980835	0.015741033332
23	19062	57.284007062136	0.022569453754
23	19067	57.354659433593	0.008130081301
23	19075	57.362789514894	0.015865614598
23	19083	57.370919596195	0.021985673905
23	19085	57.379049677496	0.020431651878
23	19090	57.387179758797	0.0279458785
23	19092	57.395309840098	0.024230985694
23	19097	57.405286108971	0.008130081301
23	19102	57.427274460147	0.008130081301
23	19107	57.461971623533	0.008130081301
23	19112	57.471770721848	0.008130081301
23	19117	57.479900803149	0.011417905736
23	19122	57.512637680352	0.008131025671
23	19127	57.520768706023	0.013368446021
23	19132	57.528899731694	0.012108411075
23	19137	57.547112759597	0.008131025671
23	19142	57.555243785268	0.013922751057
23	19147	57.57846633758	0.008131025671
23	19152	57.586597363251	0.01583044406
23	19158	57.645884300193	0.008131025671
23	19163	57.654015325864	0.010139671384
23	19168	57.66367982029	0.008131025671
23	19173	57.715532743788	0.008131025671
23	19178	57.731284183636	0.008131025671
23	19183	57.739415209307	0.011119227503
23	19188	57.761159259194	0.00813197026
23	19193	57.769291229454	0.014410097162
23	19201	57.777423199714	0.013890651496
23	19203	57.785555169974	0.016430748483
23	19208	57.793687140234	0.009607346758
23	19213	57.801819110494	0.013198664147
23	19218	57.812090614788	0.00813197026
23	19223	57.825691238639	0.00813197026
23	19228	57.845297501062	0.00813197026
23	19234	57.87920912147	0.00813197026
23	19239	57.905430879148	0.00813197026
23	19244	57.913978858956	0.00813197026
23	19249	57.938631015824	0.00813197026
23	19254	57.965974305452	0.00813197026
23	19259	57.988322468174	0.008132915069
23	19264	57.997472681971	0.008132915069
23	19269	58.032695187107	0.008132915069
23	19274	58.042349309072	0.008132915069
23	19279	58.089934832893	0.008132915069
23	19284	58.098067747962	0.010857723972
23	19289	58.162710985843	0.008132915069
23	19294	58.182696772278	0.008132915069
23	19299	58.216246405133	0.008132915069
23	19304	58.237038725653	0.008132915069
23	19309	58.258567317366	0.008133860098
23	19314	58.278320563625	0.008133860098
23	19320	58.286454423723	0.01130460364
23	19325	58.301202703432	0.008133860098
23	19330	58.312175162696	0.008133860098
23	19335	58.330289721107	0.008133860098
23	19343	58.338423581205	0.011520463961
23	19345	58.346557441303	0.017150368387
23	19350	58.354691301401	0.009623009243
23	19355	58.372060393491	0.008133860098
23	19360	58.381649991748	0.008133860098
23	19368	58.389783851846	0.011034636983
23	19370	58.397917711944	0.016693718234
23	19375	58.410039675887	0.008133860098
23	19380	58.483428485275	0.008133860098
23	19385	58.491562345373	0.00939431167
23	19390	58.507434636048	0.008134805346
23	19395	58.515569441394	0.013046966939
23	19400	58.533344844884	0.008134805346
23	19408	58.54147965023	0.016100674533
23	19416	58.549614455576	0.023057827247
23	19418	58.557749260922	0.021981525178
23	19420	58.565884066268	0.027759161414
23	19425	58.600438095243	0.008134805346
23	19430	58.62372141045	0.008134805346
23	19435	58.685841724317	0.008134805346
23	19440	58.71411744438	0.008134805346
23	19445	58.746074553918	0.008134805346
23	19450	58.754209359264	0.016227459799
23	19455	58.762345110078	0.011731442667
23	19460	58.775798789096	0.008135750814
23	19465	58.819008257105	0.008135750814
23	19470	58.861506568117	0.008135750814
23	19475	58.869642318931	0.009404222968
23	19480	58.877778069745	0.009778440994
23	19485	58.885913820559	0.01490511295
23	19490	58.894722515097	0.008135750814
23	19495	58.902858265911	0.01437845426
23	19500	58.912632403482	0.008135750814
23	19505	58.93030281789	0.008135750814
23	19510	58.938438568704	0.008262880914
23	19515	58.965335523251	0.008135750814
23	19520	58.973471274065	0.01364775329
23	19525	58.981607024879	0.015857550825
23	19530	58.996358423281	0.008135750814
23	19535	59.019874016022	0.008136696501
23	19540	59.029578264887	0.008136696501
23	19545	59.037714961388	0.00921281625
23	19550	59.045851657889	0.015537852428
23	19555	59.05398835439	0.010598866265
23	19560	59.071261015256	0.008136696501
23	19568	59.079397711757	0.012539115801
23	19570	59.087534408258	0.017191513026
23	19578	59.095671104759	0.013514079903
23	19583	59.10380780126	0.021436734597
23	19585	59.111944497761	0.020558974524
23	19590	59.143952702824	0.008136696501
23	19595	59.16059802299	0.008136696501
23	19603	59.168734719491	0.015964773604
23	19611	59.176871415992	0.018980527257
23	19616	59.185008112493	0.019021651882
23	19624	59.193144808994	0.026651913782
23	19629	59.201281505495	0.025829154138
23	19640	59.209418201996	0.02627865711
23	19642	59.217554898497	0.033564931705
23	19644	59.225691594998	0.032726997309
23	19646	59.233828291499	0.035346590417
23	19648	59.241964988	0.0419143956
23	19650	59.250101684501	0.04960553246
23	19655	59.259362440141	0.008137642409
23	19660	59.26750008255	0.009842047886
23	19665	59.330957957797	0.008137642409
23	19670	59.365206236325	0.008137642409
23	19675	59.380111652339	0.008137642409
23	19680	59.388249294748	0.011150284422
23	19688	59.396386937157	0.013756054998
23	19696	59.404524579566	0.021703245365
23	19698	59.412662221975	0.022820336267
23	19703	59.420799864384	0.025310951835
23	19708	59.428937506793	0.023485677299
23	19710	59.437075149202	0.024233517853
23	19715	59.445212791611	0.008751802526
23	19720	59.490082428427	0.008137642409
23	19725	59.51976665884	0.008138588536
23	19730	59.566306528229	0.008138588536
23	19735	59.583166440385	0.008138588536
23	19740	59.59391762039	0.008138588536
23	19748	59.602056208926	0.014927281232
23	19750	59.610194797462	0.018789858624
23	19755	59.629726230884	0.008138588536
23	19760	59.679595958983	0.008138588536
23	19765	59.724733991969	0.008138588536
23	19770	59.734283377204	0.008138588536
23	19775	59.74242196574	0.010090590348
23	19780	59.753358146098	0.008138588536
23	19785	59.763138974302	0.008138588536
23	19790	59.775729531089	0.008139534884
23	19795	59.794573517044	0.008139534884
23	19800	59.802713051928	0.014510167466
23	19805	59.820388814654	0.008139534884
23	19810	59.831034555625	0.008139534884
23	19818	59.839174090509	0.014756582973
23	19820	59.847313625393	0.017325066468
23	19825	59.855453160277	0.013089749418
23	19833	59.863592695161	0.010334578313
23	19835	59.871732230045	0.016760083181
23	19843	59.879871764929	0.014023417587
23	19848	59.888011299813	0.018508996339
23	19853	59.896150834697	0.021861015129
23	19855	59.904290369581	0.019747402199
23	19860	59.963594029591	0.008139534884

