file 750601 1612807838                                          
version 2
run Non-monitoring-1-20210208-19:10:38-19888
attr configname Non-monitoring
attr datetime 20210208-19:10:38
attr experiment Non-monitoring
attr inifile aerocom.ini
attr iterationvars ""
attr iterationvarsf ""
attr measurement ""
attr network Aerocom
attr processid 19888
attr repetition 1
attr replication #1
attr resultdir results
attr runnumber 1
attr seedset 1
param **.t 1s
param **.k 15ms
param **.nA 1
param **.nDL 10
param **.s "70 byte"
param **.X 5s
param **.dimPoolMax 10000
param **.dimPoolMin 8000
param **.tDistribution "\"lognormal\""
param **.m 1s
param **.DLMaxCapacity 0
param **.trasmitting false
param **.operationMode 1

vector 0 Aerocom.aircraft[0].packetGenerator arrivalTime:vector ETV
attr "" ""
attr source computeArrivalTime
vector 1 Aerocom.aircraft[0].dataLink[0] serviceTime:vector ETV
attr "" ""
attr source computeServiceTime
vector 2 Aerocom.aircraft[0].dataLink[0] tDistribution:vector ETV
attr "" ""
attr source computeTDistribution
vector 3 Aerocom.aircraft[0].dataLink[1] serviceTime:vector ETV
attr "" ""
attr source computeServiceTime
vector 4 Aerocom.aircraft[0].dataLink[1] tDistribution:vector ETV
attr "" ""
attr source computeTDistribution
vector 5 Aerocom.aircraft[0].dataLink[2] serviceTime:vector ETV
attr "" ""
attr source computeServiceTime
vector 6 Aerocom.aircraft[0].dataLink[2] tDistribution:vector ETV
attr "" ""
attr source computeTDistribution
vector 7 Aerocom.aircraft[0].dataLink[3] serviceTime:vector ETV
attr "" ""
attr source computeServiceTime
vector 8 Aerocom.aircraft[0].dataLink[3] tDistribution:vector ETV
attr "" ""
attr source computeTDistribution
vector 9 Aerocom.aircraft[0].dataLink[4] serviceTime:vector ETV
attr "" ""
attr source computeServiceTime
vector 10 Aerocom.aircraft[0].dataLink[4] tDistribution:vector ETV
attr "" ""
attr source computeTDistribution
vector 11 Aerocom.aircraft[0].dataLink[5] serviceTime:vector ETV
attr "" ""
attr source computeServiceTime
vector 12 Aerocom.aircraft[0].dataLink[5] tDistribution:vector ETV
attr "" ""
attr source computeTDistribution
vector 13 Aerocom.aircraft[0].dataLink[6] serviceTime:vector ETV
attr "" ""
attr source computeServiceTime
vector 14 Aerocom.aircraft[0].dataLink[6] tDistribution:vector ETV
attr "" ""
attr source computeTDistribution
vector 15 Aerocom.aircraft[0].dataLink[7] serviceTime:vector ETV
attr "" ""
attr source computeServiceTime
vector 16 Aerocom.aircraft[0].dataLink[7] tDistribution:vector ETV
attr "" ""
attr source computeTDistribution
vector 17 Aerocom.aircraft[0].dataLink[8] serviceTime:vector ETV
attr "" ""
attr source computeServiceTime
vector 18 Aerocom.aircraft[0].dataLink[8] tDistribution:vector ETV
attr "" ""
attr source computeTDistribution
vector 19 Aerocom.aircraft[0].dataLink[9] serviceTime:vector ETV
attr "" ""
attr source computeServiceTime
vector 20 Aerocom.aircraft[0].dataLink[9] tDistribution:vector ETV
attr "" ""
attr source computeTDistribution
vector 21 Aerocom.aircraft[0].dataLink[0] queueLength:vector ETV
attr "" ""
attr source computeQueueLength
vector 22 Aerocom.aircraft[0].dataLink[0] waitingTime:vector ETV
attr "" ""
attr source computeWaitingTime
vector 23 Aerocom.aircraft[0].dataLink[0] responseTime:vector ETV
attr "" ""
attr source computeResponseTime
0	3357 158549 0 20380 0 59.966534700828 4058 5.933137e-006 0.159230439831 60.021004341818 1.7505618333798
1	161906 174613 0 20382 0 59.966534700828 4058 0.0070472163495419 0.0086462450592885 32.078202604079 0.25410186956088
2	336519 342 0 17444 0 51.11176179629 9 0.260908831434 33.849673870652 84.961435666942 2068.0546459228
3	336861 26 0 0 0 0 1 0.0072068361989087 0.0072068361989087 0.0072068361989087 5.19384879979e-005
4	336887 341 0 14419 0 42.753257751081 9 0.2739809623955 32.011218701058 74.76447645214 1821.4634742057
5	337228 24 0 0 0 0 1 0.00747463961559 0.00747463961559 0.00747463961559 5.5870237382947e-005
6	337252 460 0 10299 0 30.586604918269 12 0.17200746792739 69.109836591683 99.696441509954 4990.1125723124
7	337712 24 0 0 0 0 1 0.00819768122731 0.00819768122731 0.00819768122731 6.7201977504591e-005
8	337736 351 0 17530 0 51.415453245269 9 0.010834298223102 27.727881904607 79.143335149875 1492.8913327038
9	338087 26 0 0 0 0 1 0.0082761882241665 0.0082761882241665 0.0082761882241665 6.8495291521832e-005
10	338113 149 0 10671 0 31.730203609535 4 0.48741973367808 72.072029720928 103.80223333046 5683.572668933
11	338262 27 0 0 0 0 1 0.0075196046836395 0.0075196046836395 0.0075196046836395 5.6544454598213e-005
12	338289 395 0 11359 0 33.876408033384 10 0.063293244630481 1147.6231115301 1181.4995195635 1317340.5578199
13	338684 26 0 0 0 0 1 0.007627765064836 0.007627765064836 0.007627765064836 5.8182799884333e-005
14	338710 435 0 19292 0 56.856137422232 11 0.12406423958518 20.829294452533 71.623031511536 1014.3127092885
15	339145 26 0 0 0 0 1 0.008505467800729 0.008505467800729 0.008505467800729 7.2342982509238e-005
16	339171 606 0 13706 0 40.888109383254 15 0.072019466043776 20.839190788291 61.727300171544 773.48225495868
17	339777 27 0 0 0 0 1 0.0072105480016481 0.0072105480016481 0.0072105480016481 5.1992002484072e-005
18	339804 267 0 19891 0 58.501956261341 7 0.70066710024134 30.651948030318 67.01134131474 1408.4565058866
19	340071 27 0 0 0 0 1 0.0080719557195572 0.0080719557195572 0.0080719557195572 6.5156469138492e-005
20	340098 66 0 19047 0 56.106509933945 2 4.7665149301859 56.106509933945 60.873024864131 3170.6601215476
21	340164 110302 14 20382 0.012004235863 59.966534700828 4057 0 5 1150 2042
22	450466 137567 14 20382 0.012004235863 59.966534700828 4057 0 0.04444357555 17.459333372113 0.23498644016063
23	588033 162566 14 20382 0.012004235863 59.966534700828 4057 0.00704721635 0.052457313386 49.530445932575 0.76653605398972

