file 735119 1612807841                                          
version 2
run Non-monitoring-7-20210208-19:10:41-6004
attr configname Non-monitoring
attr datetime 20210208-19:10:41
attr experiment Non-monitoring
attr inifile aerocom.ini
attr iterationvars ""
attr iterationvarsf ""
attr measurement ""
attr network Aerocom
attr processid 6004
attr repetition 7
attr replication #7
attr resultdir results
attr runnumber 7
attr seedset 7
param **.t 1s
param **.k 15ms
param **.nA 1
param **.nDL 10
param **.s "70 byte"
param **.X 5s
param **.dimPoolMax 10000
param **.dimPoolMin 8000
param **.tDistribution "\"lognormal\""
param **.m 1s
param **.DLMaxCapacity 0
param **.trasmitting false
param **.operationMode 1

vector 0 Aerocom.aircraft[0].packetGenerator arrivalTime:vector ETV
attr "" ""
attr source computeArrivalTime
vector 1 Aerocom.aircraft[0].dataLink[0] serviceTime:vector ETV
attr "" ""
attr source computeServiceTime
vector 2 Aerocom.aircraft[0].dataLink[0] tDistribution:vector ETV
attr "" ""
attr source computeTDistribution
vector 3 Aerocom.aircraft[0].dataLink[1] serviceTime:vector ETV
attr "" ""
attr source computeServiceTime
vector 4 Aerocom.aircraft[0].dataLink[1] tDistribution:vector ETV
attr "" ""
attr source computeTDistribution
vector 5 Aerocom.aircraft[0].dataLink[2] serviceTime:vector ETV
attr "" ""
attr source computeServiceTime
vector 6 Aerocom.aircraft[0].dataLink[2] tDistribution:vector ETV
attr "" ""
attr source computeTDistribution
vector 7 Aerocom.aircraft[0].dataLink[3] serviceTime:vector ETV
attr "" ""
attr source computeServiceTime
vector 8 Aerocom.aircraft[0].dataLink[3] tDistribution:vector ETV
attr "" ""
attr source computeTDistribution
vector 9 Aerocom.aircraft[0].dataLink[4] serviceTime:vector ETV
attr "" ""
attr source computeServiceTime
vector 10 Aerocom.aircraft[0].dataLink[4] tDistribution:vector ETV
attr "" ""
attr source computeTDistribution
vector 11 Aerocom.aircraft[0].dataLink[5] serviceTime:vector ETV
attr "" ""
attr source computeServiceTime
vector 12 Aerocom.aircraft[0].dataLink[5] tDistribution:vector ETV
attr "" ""
attr source computeTDistribution
vector 13 Aerocom.aircraft[0].dataLink[6] serviceTime:vector ETV
attr "" ""
attr source computeServiceTime
vector 14 Aerocom.aircraft[0].dataLink[6] tDistribution:vector ETV
attr "" ""
attr source computeTDistribution
vector 15 Aerocom.aircraft[0].dataLink[7] serviceTime:vector ETV
attr "" ""
attr source computeServiceTime
vector 16 Aerocom.aircraft[0].dataLink[7] tDistribution:vector ETV
attr "" ""
attr source computeTDistribution
vector 17 Aerocom.aircraft[0].dataLink[8] serviceTime:vector ETV
attr "" ""
attr source computeServiceTime
vector 18 Aerocom.aircraft[0].dataLink[8] tDistribution:vector ETV
attr "" ""
attr source computeTDistribution
vector 19 Aerocom.aircraft[0].dataLink[9] serviceTime:vector ETV
attr "" ""
attr source computeServiceTime
vector 20 Aerocom.aircraft[0].dataLink[9] tDistribution:vector ETV
attr "" ""
attr source computeTDistribution
vector 21 Aerocom.aircraft[0].dataLink[6] queueLength:vector ETV
attr "" ""
attr source computeQueueLength
vector 22 Aerocom.aircraft[0].dataLink[6] waitingTime:vector ETV
attr "" ""
attr source computeWaitingTime
vector 23 Aerocom.aircraft[0].dataLink[6] responseTime:vector ETV
attr "" ""
attr source computeResponseTime
0	3355 154930 0 19903 0 59.988141801427 3968 8.467025e-006 0.131565560965 60.020770763781 1.7952353946677
1	158285 26 0 0 0 0 1 0.0078731301315937 0.0078731301315937 0.0078731301315937 6.1986178069009e-005
2	158311 140 0 1593 0 4.378975244925 4 0.90897623966807 246.85456744734 251.23354269226 60944.740206661
3	158451 26 0 0 0 0 1 0.0075790385448246 0.0075790385448246 0.0075790385448246 5.7441825263937e-005
4	158477 141 0 7941 0 23.874831735539 4 1.5720761841853 83.613470622917 107.48830235846 7244.9165963722
5	158618 26 0 0 0 0 1 0.0073015541879629 0.0073015541879629 0.0073015541879629 5.3312693559758e-005
6	158644 61 0 1657 0 4.653944581302 2 4.653944581302 128.10205729201 132.75600187331 16431.796282612
7	158705 26 0 0 0 0 1 0.0073038397328881 0.0073038397328881 0.0073038397328881 5.3346074843716e-005
8	158731 144 0 3668 0 10.860138337837 4 0.12009600678228 1380.180467285 1391.0406056229 1905007.2450352
9	158875 26 0 0 0 0 1 0.0082178915238319 0.0082178915238319 0.0082178915238319 6.7533741097468e-005
10	158901 235 0 19625 0 59.032122206094 6 0.37268516166416 51.287588949494 71.209285329268 2797.0471355791
11	159136 27 0 0 0 0 1 0.0085209981740718 0.0085209981740718 0.0085209981740718 7.2607409882535e-005
12	159163 514 0 19827 0 59.655799409947 13 0.25968418718273 28.17963829184 66.828134947418 1052.1164456744
13	159677 174764 0 19905 0 59.988141801427 3968 0.0072749948035751 0.0075996091629573 29.496928909297 0.21930650458807
14	334441 62 0 133 0 0.370573516214 2 0.370573516214 197.95385323326 198.32442674947 39185.865334625
15	334503 27 0 0 0 0 1 0.0083363105871144 0.0083363105871144 0.0083363105871144 6.9494074204836e-005
16	334530 390 0 12268 0 37.156356591794 10 1.1447068269885 39.505630650055 76.661987241847 1859.2584143903
17	334920 26 0 0 0 0 1 0.007561845090202 0.007561845090202 0.007561845090202 5.7181501168212e-005
18	334946 434 0 11868 0 36.156381494785 11 0.018124226378348 121.08984399019 157.24622548497 14988.24925945
19	335380 27 0 0 0 0 1 0.0077959683706426 0.0077959683706426 0.0077959683706426 6.077712283606e-005
20	335407 188 0 8345 0 25.216516259964 5 0.82288183808981 168.61466869882 193.83118495878 28661.328089412
21	335595 107744 14 19905 0.000749279394 59.988141801427 3967 0 5 861 1423
22	443339 132891 14 19905 0.000749279394 59.988141801427 3967 0 0.040006812577 13.636104370734 0.15456689990904
23	576230 158887 14 19905 0.000749279394 59.988141801427 3967 0.007274994804 0.04758011129 43.125744650263 0.57683081145985

