version 2
run Non-monitoring-0-20210209-17:43:08-31512
attr configname Non-monitoring
attr datetime 20210209-17:43:08
attr experiment Non-monitoring
attr inifile aerocom.ini
attr iterationvars ""
attr iterationvarsf ""
attr measurement ""
attr network Aerocom
attr processid 31512
attr repetition 0
attr replication #0
attr resultdir results
attr runnumber 0
attr seedset 0
param **.t 1s
param **.k 50ms
param **.nA 1
param **.nDL 1
param **.s "70 byte"
param **.X 0s
param **.dimPoolMax 9000
param **.dimPoolMin 9000
param **.tDistribution "\"exponential\""
param **.m 1s
param **.DLMaxCapacity 0
param **.trasmitting false
param **.operationMode 1

vector 0 Aerocom.aircraft[0].packetGenerator arrivalTime:vector ETV
attr "" ""
attr source computeArrivalTime
vector 1 Aerocom.aircraft[0].dataLink[0] queueLength:vector ETV
attr "" ""
attr source computeQueueLength
vector 2 Aerocom.aircraft[0].dataLink[0] waitingTime:vector ETV
attr "" ""
attr source computeWaitingTime
vector 3 Aerocom.aircraft[0].dataLink[0] serviceTime:vector ETV
attr "" ""
attr source computeServiceTime
vector 4 Aerocom.aircraft[0].dataLink[0] responseTime:vector ETV
attr "" ""
attr source computeResponseTime
vector 5 Aerocom.aircraft[0].dataLink[0] tDistribution:vector ETV
attr "" ""
attr source computeTDistribution
0	1016	10.005245567619	0.042154151607
0	1021	10.047399719226	0.015736083043
0	1026	10.063135802269	0.060825432672
0	1031	10.123961234941	0.066437893688
0	1036	10.190399128629	0.017017336912
0	1042	10.207416465541	0.163757158886
0	1047	10.371173624427	0.028395207674
0	1052	10.399568832101	0.014301048625
0	1057	10.413869880726	0.070551220465
0	1062	10.484421101191	0.042919648391
0	1067	10.527340749582	0.025217190329
0	1072	10.552557939911	0.044829543539
0	1077	10.59738748345	0.113186678793
0	1082	10.710574162243	0.042461040578
0	1087	10.753035202821	0.050932936501
0	1092	10.803968139322	0.012620999645
0	1097	10.816589138967	0.111075344924
0	1102	10.927664483891	0.152614082844
0	1107	11.080278566735	0.056980398177
0	1112	11.137258964912	0.029631201373
0	1117	11.166890166285	0.029818969716
0	1122	11.196709136001	0.093672993993
0	1127	11.290382129994	0.192150329162
0	1133	11.482532459156	0.060111928362
0	1138	11.542644387518	0.006176332368
0	1142	11.548820719886	0.017651006664
0	1148	11.56647172655	0.072840927928
0	1153	11.639312654478	0.084046110227
0	1158	11.723358764705	0.026536124831
0	1163	11.749894889536	0.025250937388
0	1168	11.775145826924	0.056264100842
0	1173	11.831409927766	0.106474969803
0	1178	11.937884897569	0.014370523804
0	1183	11.952255421373	0.043526791316
0	1188	11.995782212689	0.01878694212
0	1193	12.014569154809	0.106741522499
0	1198	12.121310677308	0.168218522653
0	1203	12.289529199961	0.058969146682
0	1208	12.348498346643	0.044393070522
0	1214	12.392891417165	0.06459546344
0	1219	12.457486880605	0.053891744207
0	1225	12.511378624812	0.034789973045
0	1230	12.546168597857	0.038093388565
0	1235	12.584261986422	0.156273417883
0	1240	12.740535404305	0.013102862084
0	1245	12.753638266389	0.051639850532
0	1250	12.805278116921	0.025115539913
0	1255	12.830393656834	0.027569799507
0	1261	12.857963456341	0.048222678275
0	1266	12.906186134616	0.04662014402
0	1271	12.952806278636	0.032205235416
0	1276	12.985011514052	0.000968989067
0	1280	12.985980503119	0.031756385782
0	1286	13.017736888901	0.017946360793
0	1291	13.035683249694	0.062952175863
0	1296	13.098635425557	0.053966009933
0	1301	13.15260143549	0.016983236629
0	1306	13.169584672119	0.017129981235
0	1311	13.186714653354	0.024181784329
0	1316	13.210896437683	0.048118752789
0	1321	13.259015190472	0.069148960327
0	1326	13.328164150799	0.027998053504
0	1331	13.356162204303	0.105372380248
0	1336	13.461534584551	0.007278698922
0	1340	13.468813283473	0.005427354925
0	1345	13.474240638398	0.017711206612
0	1351	13.49195184501	0.004846137729
0	1355	13.496797982739	0.04219442363
0	1362	13.538992406369	0.021851400689
0	1367	13.560843807058	0.044686453915
0	1372	13.605530260973	0.040127599288
0	1377	13.645657860261	0.042703986782
0	1382	13.688361847043	0.001710170918
0	1386	13.690072017961	0.052950469269
0	1392	13.74302248723	0.173626773964
0	1398	13.916649261194	0.052792480433
0	1403	13.969441741627	0.019356504607
0	1408	13.988798246234	0.028230525056
0	1413	14.01702877129	0.012504074749
0	1418	14.029532846039	0.113431699635
0	1423	14.142964545674	0.007614681263
0	1427	14.150579226937	0.022908644198
0	1433	14.173487871135	0.005116030743
0	1437	14.178603901878	0.028623077571
0	1443	14.207226979449	0.206890488026
0	1448	14.414117467475	0.111245732861
0	1453	14.525363200336	0.015078295661
0	1458	14.540441495997	0.082044878896
0	1463	14.622486374893	0.038503842977
0	1468	14.66099021787	0.060850974767
0	1473	14.721841192637	0.029703674916
0	1478	14.751544867553	0.005280632181
0	1482	14.756825499734	0.00524409178
0	1487	14.762069591514	0.125964106504
0	1494	14.888033698018	0.021717282797
0	1499	14.909750980815	0.062630376246
0	1504	14.972381357061	0.031673130886
0	1509	15.004054487947	0.338269525997
0	1514	15.342324013944	0.091986639254
0	1519	15.434310653198	0.008093504336
0	1524	15.442404157534	0.117508864488
0	1529	15.559913022022	0.101295440855
0	1534	15.661208462877	0.001914145644
0	1538	15.663122608521	0.008866278757
0	1543	15.671988887278	0.035495896361
0	1549	15.707484783639	0.047798321196
0	1554	15.755283104835	0.009126930094
0	1559	15.764410034929	0.006609185481
0	1563	15.77101922041	0.07549117278
0	1570	15.84651039319	0.094196444329
0	1575	15.940706837519	0.100099324776
0	1580	16.040806162295	0.082335955066
0	1585	16.123142117361	0.026500143907
0	1590	16.149642261268	0.042094048087
0	1595	16.191736309355	0.00753955051
0	1599	16.199275859865	0.026143501504
0	1605	16.225419361369	0.001689339278
0	1609	16.227108700647	0.003583769216
0	1612	16.230692469863	0.20249234194
0	1620	16.433184811803	0.059771928314
0	1625	16.492956740117	0.02336362832
0	1630	16.516320368437	0.030214953592
0	1635	16.546535322029	0.027242856407
0	1640	16.573778178436	0.064016710191
0	1645	16.637794888627	0.002595627609
0	1649	16.640390516236	0.10063863681
0	1655	16.741029153046	0.02274559224
0	1660	16.763774745286	0.185498029595
0	1665	16.949272774881	0.0008383883
0	1669	16.950111163181	0.096828861875
0	1675	17.046940025056	0.013116465458
0	1680	17.060056490514	0.000589161596
0	1684	17.06064565211	0.072389704099
0	1690	17.133035356209	0.022312641026
0	1695	17.155347997235	0.144230587605
0	1700	17.29957858484	0.065464918201
0	1705	17.365043503041	0.069314567601
0	1710	17.434358070642	0.009414748761
0	1715	17.443772819403	0.020730627133
0	1720	17.464503446536	0.036806554999
0	1726	17.501310001535	0.033623025842
0	1731	17.534933027377	0.002793502644
0	1735	17.537726530021	0.020698946134
0	1741	17.558425476155	0.011156960405
0	1746	17.56958243656	0.009891475373
0	1751	17.579473911933	0.000934773521
0	1755	17.580408685454	0.00937594756
0	1760	17.589784633014	0.078920636105
0	1766	17.668705269119	0.031129867199
0	1771	17.699835136318	0.012675285257
0	1776	17.712510421575	0.103801553022
0	1781	17.816311974597	0.021182855068
0	1786	17.837494829665	0.14422721442
0	1791	17.981722044085	0.131610943127
0	1796	18.113332987212	0.046856935886
0	1801	18.160189923098	0.060939840167
0	1806	18.221129763265	0.045398201366
0	1812	18.266527964631	0.001617840232
0	1816	18.268145804863	0.076541561313
0	1822	18.344687366176	0.008997867078
0	1827	18.353685233254	0.034659988477
0	1832	18.388345221731	0.048574107905
0	1837	18.436919329636	0.00258414529
0	1841	18.439503474926	0.043046181834
0	1847	18.48254965676	0.060048545327
0	1852	18.542598202087	0.013583403517
0	1857	18.556181605604	0.2439566444
0	1862	18.800138250004	0.136067412796
0	1867	18.9362056628	0.015548390248
0	1872	18.951754053048	0.047591485377
0	1877	18.999345538425	0.056829824763
0	1882	19.056175363188	0.038353982729
0	1887	19.094529345917	0.099858598374
0	1892	19.194387944291	0.044568928846
0	1897	19.238956873137	0.069483853189
0	1902	19.308440726326	0.065489268568
0	1907	19.373929994894	0.166896716693
0	1913	19.540826711587	0.018694324795
0	1919	19.559521036382	0.04039900267
0	1924	19.599920039052	0.025393256134
0	1929	19.625313295186	0.011937643642
0	1934	19.637250938828	0.011776228671
0	1939	19.649027167499	0.012579930656
0	1944	19.661607098155	0.010301602424
0	1949	19.671908700579	0.01234296344
0	1954	19.684251664019	0.144453779595
0	1959	19.828705443614	0.042148938771
0	1964	19.870854382385	0.067267371662
0	1969	19.938121754047	0.030083949326
0	1974	19.968205703373	0.033712228482
0	1979	20.001917931855	0.175723934027
0	1984	20.177641865882	0.012900638197
0	1989	20.190542504079	0.057056895143
0	1995	20.247599399222	0.014675382596
0	2000	20.262274781818	0.0044577145
0	2004	20.266732496318	0.002989048146
0	2007	20.269721544464	0.002903618106
0	2012	20.27262516257	0.028494878265
0	2020	20.301120040835	0.033455686184
0	2025	20.334575727019	0.01868348972
0	2030	20.353259216739	0.106433504727
0	2035	20.459692721466	0.059592905183
0	2040	20.519285626649	0.187334730691
0	2045	20.70662035734	0.023720814517
0	2050	20.730341171857	0.048071978579
0	2055	20.778413150436	0.009898386767
0	2060	20.788311537203	0.039098786044
0	2065	20.827410323247	0.001249417666
0	2069	20.828659740913	0.096418006844
0	2075	20.925077747757	0.003480883554
0	2079	20.928558631311	0.068096586215
0	2086	20.996655217526	0.056876925277
0	2091	21.053532142803	0.032561536596
0	2096	21.086093679399	0.030229060917
0	2101	21.116322740316	0.056517777296
0	2106	21.172840517612	0.038455990055
0	2111	21.211296507667	0.04670301663
0	2116	21.257999524297	0.113492000789
0	2121	21.371491525086	0.062710163505
0	2126	21.434201688591	0.231982626319
0	2131	21.66618431491	0.03169650097
0	2136	21.69788081588	0.012224551102
0	2141	21.710105366982	0.030441645687
0	2146	21.740547012669	0.054395221681
0	2151	21.79494223435	0.118445908542
0	2157	21.913388142892	0.015280245091
0	2162	21.928668387983	0.007379801645
0	2166	21.936048189628	0.001043360931
0	2171	21.937091550559	0.013017570577
0	2176	21.950109121136	0.071019172779
0	2182	22.021128293915	0.106678164374
0	2188	22.127806458289	0.019284384702
0	2193	22.147090842991	0.117392188071
0	2198	22.264483031062	0.024181919374
0	2203	22.288664950436	0.051892503774
0	2208	22.34055745421	0.044375096424
0	2213	22.384932550634	0.019628651409
0	2218	22.404561202043	0.088907166842
0	2223	22.493468368885	0.036668383658
0	2228	22.530136752543	0.049575214645
0	2233	22.579711967188	2.767595e-006
0	2237	22.579714734783	0.103041062044
0	2243	22.682755796827	0.018688164691
0	2248	22.701443961518	0.015978732744
0	2253	22.717422694262	0.027708541452
0	2258	22.745131235714	0.079985972092
0	2263	22.825117207806	0.108288184044
0	2268	22.93340539185	0.010267388437
0	2273	22.943672780287	0.056952882534
0	2278	23.000625662821	0.15265923348
0	2283	23.153284896301	0.030452230635
0	2288	23.183737126936	0.058155664171
0	2293	23.241892791107	0.033025153987
0	2298	23.274917945094	0.012135924684
0	2303	23.287053869778	0.07773314689
0	2309	23.364787016668	0.147224013871
0	2314	23.512011030539	0.013032006469
0	2319	23.525043037008	0.065625399648
0	2324	23.590668436656	0.106137332697
0	2329	23.696805769353	0.014647572924
0	2334	23.711453342277	0.018821467576
0	2339	23.730274809853	0.011996175972
0	2344	23.742270985825	0.157854777071
0	2349	23.900125762896	0.036511383262
0	2354	23.936637146158	0.03190943028
0	2359	23.968546576438	0.00129988726
0	2363	23.969846463698	0.062167538897
0	2369	24.032014002595	0.011626250919
0	2374	24.043640253514	0.008343732062
0	2379	24.051983985576	0.027641918533
0	2384	24.079625904109	0.065548618408
0	2389	24.145174522517	0.023433823799
0	2394	24.168608346316	0.051960281829
0	2399	24.220568628145	0.031141465488
0	2404	24.251710093633	0.012095982239
0	2409	24.263806075872	0.016260800899
0	2414	24.280066876771	0.01031789968
0	2419	24.290384776451	0.044189282802
0	2424	24.334574059253	0.082403808658
0	2429	24.416977867911	0.099701960064
0	2434	24.516679827975	0.06873399769
0	2439	24.585413825665	0.006251629496
0	2443	24.591665455161	0.056173024977
0	2449	24.647838480138	0.036426192137
0	2454	24.684264672275	0.016209955674
0	2459	24.700474627949	0.00708210174
0	2463	24.707556729689	0.009613072042
0	2469	24.717169801731	0.063090633674
0	2474	24.780260435405	0.060949967259
0	2479	24.841210402664	0.025213996663
0	2485	24.866424399327	0.031101845954
0	2490	24.897526245281	0.041668912032
0	2495	24.939195157313	0.091763170147
0	2500	25.03095832746	0.010122938185
0	2505	25.041081265645	0.01146221626
0	2510	25.052543481905	0.007823788519
0	2515	25.060367270424	0.009013714979
0	2520	25.069380985403	0.033477029543
0	2525	25.102858014946	0.006667031164
0	2529	25.10952504611	0.021972769525
0	2535	25.131497815635	0.064021217699
0	2541	25.195519033334	0.141031797421
0	2546	25.336550830755	0.001546314578
0	2550	25.338097145333	0.072477738821
0	2556	25.410574884154	0.068717150721
0	2561	25.479292034875	0.069048154783
0	2566	25.548340189658	0.004858383918
0	2570	25.553198573576	0.117024598033
0	2576	25.670223171609	0.012259904632
0	2581	25.682483076241	0.004355429163
0	2585	25.686838505404	0.069165823308
0	2591	25.756004328712	0.040169588133
0	2596	25.796173916845	0.065781312915
0	2601	25.86195522976	0.043910753936
0	2606	25.905865983696	0.002334387182
0	2610	25.908200370878	0.163424820041
0	2616	26.071625190919	0.011732792463
0	2621	26.083357983382	0.017275979185
0	2626	26.100633962567	0.016907735742
0	2631	26.117541698309	0.013776396852
0	2636	26.131318095161	0.056545923959
0	2641	26.18786401912	0.005284358705
0	2645	26.193148377825	0.003255643239
0	2650	26.196404021064	0.000828304721
0	2653	26.197232325785	0.040557051111
0	2661	26.237789376896	0.132627925776
0	2666	26.370417302672	0.000464151219
0	2670	26.370881453891	0.055420487711
0	2676	26.426301941602	0.089499480224
0	2681	26.515801421826	0.076891435724
0	2686	26.59269285755	0.207798554778
0	2691	26.800491412328	0.016545494059
0	2696	26.817036906387	0.060784523668
0	2701	26.877821430055	0.044144027248
0	2706	26.921965457303	0.010022109754
0	2711	26.931987567057	0.003304600535
0	2715	26.935292167592	0.035912324005
0	2721	26.971204491597	0.033240387478
0	2726	27.004444879075	0.043428286573
0	2731	27.047873165648	0.189701189154
0	2737	27.237574354802	0.077450583958
0	2742	27.31502493876	0.104577828631
0	2747	27.419602767391	0.046630592763
0	2752	27.466233360154	0.020636493336
0	2757	27.48686985349	0.012320791111
0	2762	27.499190644601	0.162946048859
0	2767	27.66213669346	0.030363964431
0	2772	27.692500657891	0.013178855642
0	2777	27.705679513533	0.105544438719
0	2782	27.811223952252	0.149110033774
0	2788	27.960333986026	0.033890100103
0	2793	27.994224086129	0.141832009669
0	2798	28.136056095798	0.062861849779
0	2803	28.198917945577	0.080272938153
0	2808	28.27919088373	0.033292124332
0	2813	28.312483008062	0.049773182168
0	2818	28.36225619023	0.061644023152
0	2823	28.423900213382	0.103688073155
0	2828	28.527588286537	0.034471726892
0	2834	28.562060013429	0.017337665189
0	2839	28.579397678618	0.093071582149
0	2844	28.672469260767	0.094505084905
0	2849	28.766974345672	0.01080481083
0	2854	28.777779156502	0.04810059633
0	2859	28.825879752832	0.074212124133
0	2864	28.900091876965	0.000666262241
0	2868	28.900758139206	0.182982866538
0	2875	29.083741005744	0.021326790602
0	2880	29.105067796346	0.09913744523
0	2885	29.204205241576	0.008016704724
0	2890	29.2122219463	0.075803446491
0	2895	29.288025392791	0.200397482744
0	2900	29.488422875535	0.210092971312
0	2905	29.698515846847	0.032539867118
0	2910	29.731055713965	0.070033784848
0	2915	29.801089498813	0.034397173923
0	2920	29.835486672736	0.000202816066
0	2924	29.835689488802	0.051009354398
0	2930	29.8866988432	0.015699894903
0	2935	29.902398738103	0.022989565889
0	2940	29.925388303992	0.026423361415
0	2945	29.951811665407	0.007361251866
0	2949	29.959172917273	0.0279503835
0	2955	29.987123300773	0.086331668987
0	2960	30.07345496976	0.017679828763
0	2965	30.091134798523	0.01052666441
0	2970	30.101661462933	0.025635732131
0	2975	30.127297195064	0.0358022659
0	2980	30.163099460964	0.006429011864
0	2984	30.169528472828	0.012700568918
0	2990	30.182229041746	0.197381663378
0	2995	30.379610705124	0.005148418186
0	2999	30.38475912331	0.026053941054
0	3005	30.410813064364	0.099094517055
0	3010	30.509907581419	0.042106815142
0	3015	30.552014396561	0.180447050249
0	3020	30.73246144681	0.021049664902
0	3025	30.753511111712	0.161998148345
0	3030	30.915509260057	0.077764718018
0	3036	30.993273978075	0.118519379031
0	3041	31.111793357106	0.026498078964
0	3046	31.13829143607	0.074371487717
0	3052	31.212662923787	0.02225746697
0	3058	31.234920390757	0.020259144117
0	3063	31.255179534874	0.025499541692
0	3068	31.280679076566	0.004228974588
0	3072	31.284908051154	0.017964695256
0	3078	31.30287274641	0.026148382683
0	3083	31.329021129093	0.07463160821
0	3088	31.403652737303	0.013213523207
0	3093	31.41686626051	0.130328590116
0	3098	31.547194850626	0.00710627557
0	3102	31.554301126196	0.019675120556
0	3108	31.573976246752	0.002745368628
0	3112	31.57672161538	0.15274298895
0	3118	31.72946460433	0.06465739294
0	3123	31.79412199727	0.000702329562
0	3127	31.794824326832	0.00057466251
0	3130	31.795398989342	0.038121184211
0	3138	31.833520173553	0.0736102079
0	3143	31.907130381453	0.018162110945
0	3148	31.925292492398	0.007946658983
0	3153	31.933239151381	0.107219273226
0	3158	32.040458424607	0.004143113646
0	3162	32.044601538253	0.014425635517
0	3168	32.05902717377	0.004693727364
0	3172	32.063720901134	0.05656893838
0	3178	32.120289839514	0.055744371095
0	3183	32.176034210609	0.083148289034
0	3188	32.259182499643	0.014076201124
0	3193	32.273258700767	0.028294727082
0	3198	32.301553427849	0.027282885738
0	3203	32.328836313587	0.069743454563
0	3208	32.39857976815	0.040750916545
0	3213	32.439330684695	0.08848099116
0	3218	32.527811675855	0.09850287828
0	3223	32.626314554135	0.02382392913
0	3228	32.650138483265	0.06492228178
0	3233	32.715060765045	0.005076704197
0	3237	32.720137469242	0.015758001436
0	3243	32.735895470678	0.014795093662
0	3248	32.75069056434	0.007048394221
0	3252	32.757738958561	0.044816460251
0	3258	32.802555418812	0.002848326623
0	3262	32.805403745435	0.032358735202
0	3268	32.837762480637	0.017948065919
0	3273	32.855710546556	0.033465143599
0	3278	32.889175690155	0.015198577961
0	3283	32.904374268116	0.03067195448
0	3288	32.935046222596	0.030453222766
0	3293	32.965499445362	0.037179159589
0	3298	33.002678604951	0.057487069387
0	3303	33.060165674338	0.029171188552
0	3308	33.08933686289	0.059474812567
0	3313	33.148811675457	0.095742112882
0	3318	33.244553788339	0.016670166919
0	3323	33.261223955258	0.028408524187
0	3328	33.289632479445	0.023895899376
0	3333	33.313528378821	0.087685732251
0	3338	33.401214111072	0.009992776896
0	3343	33.411206887968	0.035600403281
0	3348	33.446807291249	0.077687275102
0	3353	33.524494566351	0.004516862204
0	3357	33.529011428555	0.002926394947
0	3360	33.531937823502	0.053946345425
0	3368	33.585884168927	0.05970066853
0	3373	33.645584837457	0.011571048598
0	3378	33.657155886055	0.075410761581
0	3383	33.732566647636	0.093955921711
0	3388	33.826522569347	0.075120639686
0	3393	33.901643209033	0.057184531029
0	3398	33.958827740062	0.015016254014
0	3403	33.973843994076	0.009823094295
0	3408	33.983667088371	0.023405322662
0	3413	34.007072411033	0.003620955506
0	3417	34.010693366539	0.044288032301
0	3423	34.05498139884	0.000486770467
0	3427	34.055468169307	0.015929192394
0	3433	34.071397361701	0.111304199472
0	3438	34.182701561173	0.023169501377
0	3443	34.20587106255	0.007162651069
0	3447	34.213033713619	0.010973408045
0	3453	34.224007121664	0.075523080061
0	3458	34.299530201725	0.030795964189
0	3463	34.330326165914	0.129622430439
0	3468	34.459948596353	0.002281902475
0	3472	34.462230498828	0.062794674217
0	3478	34.525025173045	0.080420892454
0	3483	34.605446065499	0.033747548683
0	3488	34.639193614182	0.004003942797
0	3492	34.643197556979	0.031696606325
0	3498	34.674894163304	0.036577266957
0	3503	34.711471430261	0.107154985021
0	3509	34.818626415282	0.018322564592
0	3514	34.836948979874	0.033511593829
0	3519	34.870460573703	0.04308337459
0	3524	34.913543948293	0.026770217555
0	3529	34.940314165848	0.160240441481
0	3534	35.100554607329	0.009564802295
0	3539	35.110119409624	0.051862254705
0	3544	35.161981664329	0.032245424558
0	3549	35.194227088887	0.001800141487
0	3553	35.196027230374	0.076542420947
0	3559	35.272569651321	0.028141260091
0	3564	35.300710911412	0.040644918059
0	3569	35.341355829471	0.03566921414
0	3574	35.377025043611	0.008709758019
0	3579	35.38573480163	0.038412667093
0	3585	35.424147468723	0.007764279275
0	3589	35.431911747998	0.057189768956
0	3595	35.489101516954	0.052414455248
0	3600	35.541515972202	0.016258543524
0	3605	35.557774515726	0.038742118975
0	3610	35.596516634701	0.006897661596
0	3614	35.603414296297	0.019702878597
0	3620	35.623117174894	0.024934616644
0	3625	35.648051791538	0.00795060084
0	3630	35.656002392378	0.156641474477
0	3636	35.812643866855	0.008709935829
0	3641	35.821353802684	0.010359259113
0	3646	35.831713061797	0.006929341071
0	3650	35.838642402868	0.117161996505
0	3657	35.955804399373	0.043246905471
0	3662	35.999051304844	0.03924185098
0	3667	36.038293155824	0.004839873615
0	3671	36.043133029439	0.03052414225
0	3677	36.073657171689	0.120700821525
0	3683	36.194357993214	0.106871084521
0	3688	36.301229077735	0.004330849722
0	3692	36.305559927457	0.030680210487
0	3698	36.336240137944	0.080566599956
0	3703	36.4168067379	0.064398098754
0	3708	36.481204836654	0.104831813676
0	3713	36.58603665033	0.025460124343
0	3718	36.611496774673	0.004905976131
0	3722	36.616402750804	0.11719348204
0	3728	36.733596232844	0.027782945658
0	3734	36.761379178502	0.058563184747
0	3739	36.819942363249	0.032048677263
0	3744	36.851991040512	0.060135689191
0	3750	36.912126729703	0.043398499101
0	3755	36.955525228804	0.019854047501
0	3761	36.975379276305	0.062982058531
0	3766	37.038361334836	0.070689166477
0	3771	37.109050501313	0.001372105022
0	3775	37.110422606335	0.050538458155
0	3781	37.16096106449	0.065726104904
0	3787	37.226687169394	0.0137231761
0	3792	37.240410345494	0.072828010579
0	3798	37.313238356073	0.008749752411
0	3803	37.321988108484	0.00049072182
0	3807	37.322478830304	0.07957780614
0	3813	37.402056636444	0.018429146981
0	3818	37.420485783425	0.159912748839
0	3823	37.580398532264	0.01325465507
0	3828	37.593653187334	0.030637272243
0	3833	37.624290459577	0.035001281806
0	3838	37.659291741383	0.044700070134
0	3843	37.703991811517	0.153653761139
0	3848	37.857645572656	0.097498845592
0	3853	37.955144418248	0.040800928198
0	3859	37.995945346446	0.030552878064
0	3864	38.02649822451	0.00512759465
0	3868	38.03162581916	0.15169712862
0	3874	38.18332294778	0.048600544553
0	3879	38.231923492333	0.042871755131
0	3884	38.274795247464	0.099396972742
0	3889	38.374192220206	0.085953465589
0	3894	38.460145685795	0.008576931369
0	3899	38.468722617164	0.119758989469
0	3904	38.588481606633	0.244174949517
0	3909	38.83265655615	0.084511747738
0	3915	38.917168303888	0.004441619133
0	3919	38.921609923021	0.00868282816
0	3924	38.930292751181	0.004961076324
0	3929	38.935253827505	0.049563975288
0	3935	38.984817802793	0.050202558694
0	3940	39.035020361487	0.025410972703
0	3945	39.06043133419	0.149088982866
0	3950	39.209520317056	0.003238284639
0	3954	39.212758601695	0.138030222784
0	3960	39.350788824479	0.02758518063
0	3965	39.378374005109	0.029654079866
0	3970	39.408028084975	0.014966419121
0	3975	39.422994504096	0.065041871373
0	3980	39.488036375469	0.094536457722
0	3985	39.582572833191	0.067785925693
0	3990	39.650358758884	0.001693592762
0	3994	39.652052351646	0.01833525769
0	4000	39.670387609336	0.159688093634
0	4006	39.83007570297	0.00637867869
0	4010	39.83645438166	0.021953849279
0	4016	39.858408230939	0.029338440334
0	4021	39.887746671273	0.022057740536
0	4026	39.909804411809	0.024860464317
0	4031	39.934664876126	0.000823164199
0	4035	39.935488040325	0.037948238712
0	4041	39.973436279037	0.010242613357
0	4046	39.983678892394	0.093332023509
0	4052	40.077010915903	0.025646349591
0	4057	40.102657265494	0.03842312887
0	4062	40.141080394364	0.132459413112
0	4068	40.273539807476	0.057013943846
0	4073	40.330553751322	0.005246637366
0	4077	40.335800388688	0.046975099293
0	4084	40.382775487981	0.145295980183
0	4089	40.528071468164	0.005183541832
0	4093	40.533255009996	0.101814709364
0	4099	40.63506971936	0.004827063951
0	4103	40.639896783311	0.030271689082
0	4109	40.670168472393	0.002879645841
0	4113	40.673048118234	0.01977828002
0	4119	40.692826398254	0.004525373507
0	4123	40.697351771761	0.013246746882
0	4129	40.710598518643	0.013536219537
0	4134	40.72413473818	0.047656126913
0	4139	40.771790865093	0.091477107793
0	4144	40.863267972886	0.001681696046
0	4148	40.864949668932	0.036946000997
0	4154	40.901895669929	0.000786456189
0	4158	40.902682126118	0.035982244884
0	4164	40.938664371002	0.028000418667
0	4169	40.966664789669	0.052467108296
0	4174	41.019131897965	0.003525097418
0	4178	41.022656995383	0.039327954595
0	4184	41.061984949978	0.014513670756
0	4189	41.076498620734	0.001650199253
0	4193	41.078148819987	0.012497540832
0	4198	41.090646360819	0.043393093494
0	4204	41.134039454313	0.014597303586
0	4209	41.148636757899	0.073721111239
0	4214	41.222357869138	0.007023785848
0	4218	41.229381654986	0.023598404389
0	4224	41.252980059375	0.000605462253
0	4228	41.253585521628	0.033767793509
0	4234	41.287353315137	0.006135750366
0	4238	41.293489065503	0.199878173836
0	4244	41.493367239339	0.048179634814
0	4249	41.541546874153	0.014028796309
0	4254	41.555575670462	0.182978105923
0	4259	41.738553776385	0.023446066364
0	4264	41.761999842749	0.232013999797
0	4270	41.994013842546	0.002336745087
0	4274	41.996350587633	0.026301539788
0	4280	42.022652127421	0.01855808604
0	4285	42.041210213461	0.008893837893
0	4290	42.050104051354	0.089046733745
0	4296	42.139150785099	0.05091087894
0	4301	42.190061664039	0.082259171354
0	4306	42.272320835393	0.033697172211
0	4311	42.306018007604	0.05108591737
0	4316	42.357103924974	0.227391192593
0	4321	42.584495117567	0.022951396374
0	4326	42.607446513941	0.003376707844
0	4330	42.610823221785	0.018753097156
0	4336	42.629576318941	0.076446943536
0	4341	42.706023262477	0.080933053321
0	4346	42.786956315798	0.017011860981
0	4351	42.803968176779	0.003652582858
0	4355	42.807620759637	0.013815259646
0	4361	42.821436019283	0.057533129646
0	4366	42.878969148929	0.054310165558
0	4372	42.933279314487	0.023960634724
0	4377	42.957239949211	0.014122335598
0	4382	42.971362284809	0.050246665453
0	4387	43.021608950262	0.05480962805
0	4392	43.076418578312	0.130782046621
0	4397	43.207200624933	0.036418878652
0	4402	43.243619503585	0.096186928533
0	4407	43.339806432118	0.027590106082
0	4413	43.3673965382	0.034425694402
0	4418	43.401822232602	0.040448984757
0	4423	43.442271217359	0.027916339463
0	4428	43.470187556822	0.016917305935
0	4433	43.487104862757	0.086455981884
0	4439	43.573560844641	0.061306610612
0	4444	43.634867455253	0.067013798099
0	4449	43.701881253352	0.026794939767
0	4454	43.728676193119	0.029632870897
0	4459	43.758309064016	0.02235699513
0	4464	43.780666059146	0.173532254027
0	4469	43.954198313173	0.088204369609
0	4474	44.042402682782	0.022561939925
0	4479	44.064964622707	0.129491307275
0	4485	44.194455929982	0.025336160695
0	4490	44.219792090677	0.002354963553
0	4494	44.22214705423	0.067100987059
0	4500	44.289248041289	0.013239113667
0	4505	44.302487154956	0.02980859457
0	4510	44.332295749526	0.021425380209
0	4515	44.353721129735	0.138457224142
0	4520	44.492178353877	0.084360914438
0	4525	44.576539268315	0.014868676395
0	4530	44.59140794471	0.211650789817
0	4536	44.803058734527	0.024043911215
0	4541	44.827102645742	0.173642785295
0	4547	45.000745431037	0.059724497175
0	4552	45.060469928212	0.117666738404
0	4557	45.178136666616	0.113685358334
0	4562	45.29182202495	0.017588369271
0	4567	45.309410394221	0.006451925159
0	4571	45.31586231938	0.241486012398
0	4578	45.557348331778	0.013823635827
0	4583	45.571171967605	0.014345454769
0	4588	45.585517422374	0.012955612794
0	4593	45.598473035168	0.005597227057
0	4597	45.604070262225	0.033619145102
0	4603	45.637689407327	0.150748413609
0	4608	45.788437820936	0.11106070916
0	4613	45.899498530096	0.013290827451
0	4618	45.912789357547	0.0221667198
0	4623	45.934956077347	0.058521786501
0	4628	45.993477863848	0.024325956988
0	4633	46.017803820836	0.003006418457
0	4637	46.020810239293	0.124281554217
0	4643	46.14509179351	0.065598154054
0	4648	46.210689947564	0.006041569813
0	4652	46.216731517377	0.106735119727
0	4658	46.323466637104	0.049864946208
0	4663	46.373331583312	0.01590272726
0	4668	46.389234310572	0.007125147283
0	4672	46.396359457855	0.023825791049
0	4678	46.420185248904	0.023439784582
0	4683	46.443625033486	0.023443907781
0	4688	46.467068941267	0.019608064481
0	4693	46.486677005748	0.069072953992
0	4699	46.55574995974	0.056989770333
0	4704	46.612739730073	0.013577789584
0	4709	46.626317519657	0.079367861485
0	4714	46.705685381142	0.009428236213
0	4719	46.715113617355	0.035052275466
0	4724	46.750165892821	0.029827495844
0	4729	46.779993388665	0.017566064077
0	4734	46.797559452742	0.018153942009
0	4739	46.815713394751	0.108561294068
0	4744	46.924274688819	0.091376313391
0	4749	47.01565100221	0.021683242769
0	4754	47.037334244979	0.013573498321
0	4759	47.0509077433	0.06704508623
0	4764	47.11795282953	0.034896877442
0	4769	47.152849706972	0.040524657359
0	4774	47.193374364331	0.142871267391
0	4779	47.336245631722	0.011252124693
0	4784	47.347497756415	0.050255782429
0	4789	47.397753538844	0.039761110065
0	4794	47.437514648909	0.100979225161
0	4799	47.53849387407	0.036661266934
0	4805	47.575155141004	0.140845586498
0	4810	47.716000727502	0.021445591789
0	4815	47.737446319291	0.069467925347
0	4820	47.806914244638	0.001246404786
0	4824	47.808160649424	0.060127867235
0	4830	47.868288516659	0.008057128941
0	4835	47.8763456456	0.172047202379
0	4840	48.048392847979	0.007069655637
0	4844	48.055462503616	0.259256471152
0	4851	48.314718974768	0.061535942552
0	4856	48.37625491732	0.030057732319
0	4861	48.406312649639	0.061733993803
0	4866	48.468046643442	0.003675318871
0	4870	48.471721962313	0.047305087063
0	4876	48.519027049376	0.017321666375
0	4881	48.536348715751	0.055722911586
0	4886	48.592071627337	0.008264650616
0	4891	48.600336277953	0.029666528413
0	4896	48.630002806366	0.02702013488
0	4901	48.657022941246	0.05954907267
0	4906	48.716572013916	0.007037257771
0	4910	48.723609271687	0.023766983482
0	4916	48.747376255169	0.046331930015
0	4921	48.793708185184	0.005269806496
0	4925	48.79897799168	0.024128760758
0	4931	48.823106752438	0.161265804186
0	4936	48.984372556624	0.112873839538
0	4941	49.097246396162	0.003759590458
0	4945	49.10100598662	0.171781169624
0	4951	49.272787156244	0.000974464648
0	4955	49.273761620892	0.03958045473
0	4961	49.313342075622	0.19454550452
0	4966	49.507887580142	0.016067015143
0	4971	49.523954595285	0.008036502028
0	4976	49.531991097313	0.044852650705
0	4981	49.576843748018	0.014967650147
0	4986	49.591811398165	0.11353550537
0	4991	49.705346903535	0.012137271868
0	4996	49.717484175403	0.026105565221
0	5001	49.743589740624	0.043364600942
0	5006	49.786954341566	0.040156838596
0	5012	49.827111180162	0.185970415545
0	5017	50.013081595707	0.015848868994
0	5022	50.028930464701	0.015942052421
0	5027	50.044872517122	0.030389238206
0	5032	50.075261755328	0.17545317755
0	5037	50.250714932878	0.025684280663
0	5042	50.276399213541	0.001291402221
0	5046	50.277690615762	0.014278446025
0	5052	50.291969061787	0.109482335728
0	5057	50.401451397515	0.035247466069
0	5062	50.436698863584	0.061654436361
0	5067	50.498353299945	0.018580787741
0	5073	50.516934087686	0.016270835858
0	5078	50.533204923544	0.023343217178
0	5083	50.556548140722	0.112624643504
0	5088	50.669172784226	0.03721891307
0	5093	50.706391697296	0.001344030976
0	5097	50.707735728272	0.069433863693
0	5103	50.777169591965	0.049126417136
0	5108	50.826296009101	0.020286317193
0	5113	50.846582326294	0.019989763624
0	5118	50.866572089918	0.128955656539
0	5123	50.995527746457	0.170746245122
0	5128	51.166273991579	0.099140629014
0	5133	51.265414620593	0.009230793645
0	5138	51.274645414238	0.002495780121
0	5142	51.277141194359	0.115876303128
0	5148	51.393017497487	0.01462753006
0	5153	51.407645027547	0.020019076573
0	5158	51.42766410412	0.02954176102
0	5163	51.45720586514	0.110016466022
0	5168	51.567222331162	0.00552579383
0	5172	51.572748124992	0.035918291761
0	5179	51.608666416753	0.02142205144
0	5184	51.630088468193	0.035731709369
0	5189	51.665820177562	0.067372441185
0	5194	51.733192618747	0.024455420531
0	5199	51.757648039278	0.057052166713
0	5204	51.814700205991	0.037760590888
0	5209	51.852460796879	0.048693929574
0	5214	51.901154726453	0.144755880851
0	5219	52.045910607304	0.061984904031
0	5225	52.107895511335	0.111681992555
0	5230	52.21957750389	0.011465858582
0	5235	52.231043362472	0.056522859916
0	5240	52.287566222388	0.020904582947
0	5245	52.308470805335	0.050947659054
0	5250	52.359418464389	0.056388021679
0	5255	52.415806486068	0.039743641803
0	5260	52.455550127871	0.105695340732
0	5265	52.561245468603	0.015919650803
0	5270	52.577165119406	0.039227834846
0	5275	52.616392954252	0.008024205368
0	5280	52.62441715962	0.016613031179
0	5285	52.641030190799	0.097002410494
0	5290	52.738032601293	0.001535088651
0	5294	52.739567689944	0.050400677024
0	5300	52.789968366968	0.061951825369
0	5305	52.851920192337	0.017808289078
0	5310	52.869728481415	0.000395767325
0	5314	52.87012424874	0.030829654426
0	5320	52.900953903166	0.023314851322
0	5325	52.924268754488	0.001241660387
0	5329	52.925510414875	0.03780831239
0	5335	52.963318727265	0.040829634442
0	5340	53.004148361707	0.127623824677
0	5346	53.131772186384	0.022404398419
0	5351	53.154176584803	0.00468776938
0	5355	53.158864354183	0.034929050304
0	5361	53.193793404487	0.026038943244
0	5366	53.219832347731	0.008339787906
0	5371	53.228172135637	0.001230682204
0	5375	53.229402817841	0.027713423671
0	5381	53.257116241512	0.020973966173
0	5386	53.278090207685	0.118314513192
0	5391	53.396404720877	0.048673627182
0	5396	53.445078348059	0.000427400932
0	5400	53.445505748991	0.016360519066
0	5406	53.461866268057	0.173469691939
0	5411	53.635335959996	0.011770293325
0	5416	53.647106253321	0.05870350684
0	5421	53.705809760161	0.006148128344
0	5425	53.711957888505	0.005235613671
0	5430	53.717193502176	0.043035735376
0	5436	53.760229237552	0.017108734581
0	5441	53.777337972133	0.059416458014
0	5446	53.836754430147	0.038725839397
0	5451	53.875480269544	0.05573055015
0	5456	53.931210819694	0.064394511956
0	5461	53.99560533165	0.148660416974
0	5466	54.144265748624	0.024622068819
0	5471	54.168887817443	0.000135343729
0	5475	54.169023161172	0.012879243317
0	5480	54.181902404489	0.052092223241
0	5486	54.23399462773	0.030335620462
0	5491	54.264330248192	0.045863589846
0	5496	54.310193838038	0.178925086292
0	5501	54.48911892433	0.044426435616
0	5506	54.533545359946	0.0897336557
0	5512	54.623279015646	0.164532441513
0	5517	54.787811457159	0.12313221347
0	5522	54.910943670629	0.000850781186
0	5526	54.911794451815	0.055023426524
0	5532	54.966817878339	0.059615788711
0	5537	55.02643366705	0.029050432773
0	5542	55.055484099823	0.084014120004
0	5547	55.139498219827	0.057773736437
0	5552	55.197271956264	0.035647823956
0	5557	55.23291978022	0.052291264639
0	5562	55.285211044859	0.020320643337
0	5567	55.305531688196	0.001476590558
0	5571	55.307008278754	0.078232827535
0	5577	55.385241106289	0.125994434692
0	5582	55.511235540981	0.00511508905
0	5586	55.516350630031	0.039094221155
0	5592	55.555444851186	0.029173008615
0	5597	55.584617859801	0.236319759843
0	5602	55.820937619644	0.036693498351
0	5607	55.857631117995	0.024152651213
0	5612	55.881783769208	0.059201386817
0	5617	55.940985156025	0.08216766176
0	5622	56.023152817785	0.004764224144
0	5626	56.027917041929	0.030902618857
0	5632	56.058819660786	0.012922962436
0	5637	56.071742623222	0.087672405914
0	5642	56.159415029136	0.026407199536
0	5647	56.185822228672	0.038730686818
0	5652	56.22455291549	0.048814601148
0	5657	56.273367516638	0.109135694464
0	5662	56.382503211102	0.109001022358
0	5667	56.49150423346	0.106057722842
0	5672	56.597561956302	0.048224988088
0	5677	56.64578694439	0.019897419732
0	5682	56.665684364122	0.007162435189
0	5686	56.672846799311	0.025911392405
0	5692	56.698758191716	0.197072934231
0	5697	56.895831125947	0.039334155773
0	5702	56.93516528172	0.102702624193
0	5707	57.037867905913	0.048602448424
0	5712	57.086470354337	0.034930178347
0	5717	57.121400532684	0.023849887547
0	5722	57.145250420231	0.127775885833
0	5727	57.273026306064	0.039058439499
0	5732	57.312084745563	0.038976751442
0	5737	57.351061497005	0.006443932302
0	5741	57.357505429307	0.128396631435
0	5747	57.485902060742	0.057080776176
0	5752	57.542982836918	0.088567665966
0	5757	57.631550502884	0.016922056641
0	5762	57.648472559525	0.172550506468
0	5767	57.821023065993	0.002196361706
0	5771	57.823219427699	0.126150873068
0	5777	57.949370300767	0.006170473575
0	5781	57.955540774342	0.001834953514
0	5786	57.957375727856	0.005626497319
0	5789	57.963002225175	0.009604778807
0	5794	57.972607003982	0.019025547428
0	5802	57.99163255141	0.024643938418
0	5807	58.016276489828	0.014153621792
0	5812	58.03043011162	0.151976579507
0	5817	58.182406691127	0.04136629618
0	5822	58.223772987307	0.017835812634
0	5827	58.241608799941	0.11841180265
0	5832	58.360020602591	0.008745513005
0	5837	58.368766115596	0.043387757147
0	5842	58.412153872743	0.108711645357
0	5847	58.5208655181	0.045557290404
0	5852	58.566422808504	0.029565139278
0	5857	58.595987947782	0.013593291929
0	5862	58.609581239711	0.119230767162
0	5867	58.728812006873	0.043480768042
0	5872	58.772292774915	0.008731389824
0	5877	58.781024164739	0.007883602641
0	5882	58.78890776738	0.054105094224
0	5887	58.843012861604	0.020445876462
0	5892	58.863458738066	0.029014479399
0	5897	58.892473217465	0.04911190922
0	5902	58.941585126685	0.003978507755
0	5906	58.94556363444	0.022416465331
0	5912	58.967980099771	0.059612612104
0	5917	59.027592711875	0.120952569708
0	5922	59.148545281583	0.014210987176
0	5927	59.162756268759	0.10538901792
0	5932	59.268145286679	0.002021078883
0	5936	59.270166365562	0.028471805694
0	5942	59.298638171256	0.003090807432
0	5947	59.301728978688	0.036450336069
0	5953	59.338179314757	0.003151172213
0	5957	59.34133048697	0.032186240293
0	5963	59.373516727263	0.11915341366
0	5968	59.492670140923	0.01018926911
0	5973	59.502859410033	0.067331364427
0	5978	59.57019077446	0.028525299404
0	5983	59.598716073864	0.114169701721
0	5988	59.712885775585	0.010385164311
0	5993	59.723270939896	0.055825928678
0	5998	59.779096868574	0.062799779939
0	6003	59.841896648513	0.037638482602
0	6008	59.879535131115	0.037012609571
0	6013	59.916547740686	0.01815235772
0	6018	59.934700098406	0.019324709102
0	6023	59.954024807508	0.309795505936
0	6029	60.263820313444	0.00015521784
0	6033	60.263975531284	0.022485668397
0	6039	60.286461199681	0.045478535244
0	6045	60.331939734925	0.031805172718
0	6050	60.363744907643	0.052359612775
0	6055	60.416104520418	0.023760471939
0	6060	60.439864992357	0.00026015664
0	6064	60.440125148997	0.194432236138
0	6072	60.634557385135	0.175698941148
0	6077	60.810256326283	0.009597895098
0	6082	60.819854221381	0.054512279323
0	6087	60.874366500704	0.019873953996
0	6092	60.8942404547	0.017346444158
0	6097	60.911586898858	0.057026223748
0	6102	60.968613122606	0.011179952917
0	6107	60.979793075523	0.003264679782
0	6111	60.983057755305	0.129983662267
0	6117	61.113041417572	0.046729020817
0	6122	61.159770438389	0.018498958988
0	6127	61.178269397377	0.03247053634
0	6132	61.210739933717	0.025810172747
0	6137	61.236550106464	0.016703754153
0	6142	61.253253860617	0.050128120416
0	6147	61.303381981033	0.013617561318
0	6152	61.316999542351	0.110661361577
0	6157	61.427660903928	0.036130111877
0	6162	61.463791015805	0.028335097992
0	6167	61.492126113797	0.022937565132
0	6172	61.515063678929	0.131706569797
0	6177	61.646770248726	0.030488108643
0	6182	61.677258357369	0.044834291829
0	6187	61.722092649198	0.020585028894
0	6192	61.742677678092	0.028262764066
0	6197	61.770940442158	0.176157567061
0	6203	61.947098009219	0.044920118322
0	6208	61.992018127541	0.007161163574
0	6212	61.999179291115	0.021886972806
0	6218	62.021066263921	0.005090782099
0	6222	62.02615704602	0.053504124481
0	6228	62.079661170501	0.02103338362
0	6233	62.100694554121	0.052822049709
0	6238	62.15351660383	0.044705294406
0	6243	62.198221898236	0.086219594273
0	6248	62.284441492509	0.053819522971
0	6253	62.33826101548	0.0257723775
0	6258	62.36403339298	0.025313198354
0	6263	62.389346591334	0.001914439889
0	6267	62.391261031223	0.36167342264
0	6273	62.752934453863	0.208772180211
0	6278	62.961706634074	0.02168497352
0	6283	62.983391607594	0.029723300835
0	6288	63.013114908429	0.063900106458
0	6293	63.077015014887	0.138737731079
0	6298	63.215752745966	0.050747947918
0	6303	63.266500693884	0.055743342704
0	6308	63.322244036588	0.08384673665
0	6313	63.406090773238	0.015509806163
0	6318	63.421600579401	0.186957423902
0	6323	63.608558003303	0.041513032338
0	6328	63.650071035641	0.11027004019
0	6334	63.760341075831	0.157249877635
0	6339	63.917590953466	0.072315378608
0	6344	63.989906332074	0.006022913388
0	6348	63.995929245462	0.059907569392
0	6354	64.055836814854	0.015888467069
0	6359	64.071725281923	0.020435882712
0	6364	64.092161164635	0.004281039706
0	6368	64.096442204341	0.007989989022
0	6373	64.104432193363	0.072466093474
0	6379	64.176898286837	0.003234180257
0	6383	64.180132467094	0.001096369034
0	6386	64.181228836128	0.013847111266
0	6393	64.195075947394	0.007381594162
0	6398	64.202457541556	0.028306477585
0	6404	64.230764019141	0.015097750174
0	6409	64.245861769315	0.036906837127
0	6414	64.282768606442	0.10242915783
0	6419	64.385197764272	0.074158670402
0	6424	64.459356434674	0.009886588397
0	6429	64.469243023071	0.159394208614
0	6434	64.628637231685	0.028394384656
0	6439	64.657031616341	0.006239654613
0	6443	64.663271270954	0.01966086435
0	6449	64.682932135304	0.00565866662
0	6453	64.688590801924	0.043781939905
0	6459	64.732372741829	0.044542690095
0	6464	64.776915431924	0.137810653874
0	6469	64.914726085798	0.068402701069
0	6474	64.983128786867	0.141326198528
0	6479	65.124454985395	0.09424323071
0	6484	65.218698216105	0.002696847821
0	6488	65.221395063926	0.137312593511
0	6494	65.358707657437	0.045343155365
0	6499	65.404050812802	0.204996714633
0	6504	65.609047527435	0.111189140788
0	6509	65.720236668223	0.025524758135
0	6514	65.745761426358	0.07591845742
0	6519	65.821679883778	0.023928828553
0	6524	65.845608712331	0.011883293555
0	6529	65.857492005886	0.007997210668
0	6534	65.865489216554	0.072407306197
0	6539	65.937896522751	0.057748726678
0	6544	65.995645249429	0.010478224286
0	6549	66.006123473715	0.053466552918
0	6554	66.059590026633	0.114512860995
0	6559	66.174102887628	0.099047764806
0	6564	66.273150652434	0.000448569367
0	6568	66.273599221801	0.005115923979
0	6571	66.27871514578	0.004728336825
0	6576	66.283443482605	0.034435542198
0	6584	66.317879024803	0.048271789985
0	6589	66.366150814788	0.043503995518
0	6594	66.409654810306	0.024098960478
0	6599	66.433753770784	0.013824384205
0	6604	66.447578154989	0.005077438529
0	6608	66.452655593518	0.009257802674
0	6613	66.461913396192	0.209763431006
0	6619	66.671676827198	0.098156164478
0	6624	66.769832991676	0.113448454331
0	6629	66.883281446007	0.003015901189
0	6633	66.886297347196	0.015811855292
0	6639	66.902109202488	0.031802523556
0	6644	66.933911726044	0.03204577116
0	6649	66.965957497204	0.006155522746
0	6653	66.97211301995	0.032672662986
0	6659	67.004785682936	0.030537708743
0	6664	67.035323391679	0.035503517283
0	6669	67.070826908962	0.195507038483
0	6675	67.266333947445	0.170956825134
0	6680	67.437290772579	0.027556897416
0	6685	67.464847669995	0.00526572096
0	6689	67.470113390955	0.097289229196
0	6695	67.567402620151	0.002022897783
0	6699	67.569425517934	0.006239376118
0	6704	67.575664894052	0.033053990041
0	6710	67.608718884093	0.015821369559
0	6715	67.624540253652	0.030648363434
0	6720	67.655188617086	0.025858346354
0	6725	67.68104696344	0.013411154664
0	6730	67.694458118104	0.025525628797
0	6735	67.719983746901	0.003033715009
0	6739	67.72301746191	0.055643190581
0	6745	67.778660652491	0.006610579991
0	6749	67.785271232482	0.021134489403
0	6756	67.806405721885	0.097160027816
0	6761	67.903565749701	0.062547433033
0	6766	67.966113182734	0.025513569888
0	6771	67.991626752622	0.050969759403
0	6776	68.042596512025	0.02401459069
0	6781	68.066611102715	0.025471425511
0	6786	68.092082528226	0.001110932601
0	6790	68.093193460827	0.028260581742
0	6796	68.121454042569	0.023480401606
0	6801	68.144934444175	0.047664296561
0	6806	68.192598740736	0.054177409415
0	6811	68.246776150151	0.003630802905
0	6815	68.250406953056	0.04908924528
0	6821	68.299496198336	0.086412968648
0	6826	68.385909166984	0.122665292075
0	6832	68.508574459059	0.05298224716
0	6837	68.561556706219	0.055705736823
0	6842	68.617262443042	0.064793890825
0	6847	68.682056333867	0.019584226994
0	6852	68.701640560861	0.038493096791
0	6857	68.740133657652	0.019005951567
0	6863	68.759139609219	0.005853501966
0	6867	68.764993111185	0.089582716794
0	6873	68.854575827979	0.025962686244
0	6878	68.880538514223	0.074761555906
0	6883	68.955300070129	0.025991097244
0	6888	68.981291167373	0.016505334703
0	6893	68.997796502076	0.019359873362
0	6898	69.017156375438	0.062575447848
0	6903	69.079731823286	0.001520399688
0	6907	69.081252222974	0.041228586159
0	6913	69.122480809133	0.066828420866
0	6918	69.189309229999	0.025512957518
0	6923	69.214822187517	0.005814583338
0	6927	69.220636770855	0.037842715861
0	6933	69.258479486716	0.046609337028
0	6938	69.305088823744	0.004454297875
0	6942	69.309543121619	0.060737785428
0	6948	69.370280907047	0.054782493512
0	6953	69.425063400559	0.050363634419
0	6958	69.475427034978	0.001504139777
0	6962	69.476931174755	0.15988293787
0	6968	69.636814112625	0.110040843718
0	6973	69.746854956343	0.005451593181
0	6977	69.752306549524	0.057303901753
0	6983	69.809610451277	0.100933187996
0	6988	69.910543639273	0.110964776089
0	6993	70.021508415362	0.001481237615
0	6997	70.022989652977	6.0415094e-005
0	7000	70.023050068071	0.038276954114
0	7008	70.061327022185	0.138405002884
0	7013	70.199732025069	0.025896172254
0	7018	70.225628197323	0.158871531073
0	7023	70.384499728396	0.037136187485
0	7028	70.421635915881	0.079560113167
0	7033	70.501196029048	0.022714378853
0	7038	70.523910407901	0.241879372453
0	7043	70.765789780354	0.010571058749
0	7048	70.776360839103	0.021942708852
0	7053	70.798303547955	0.00096540526
0	7057	70.799268953215	0.094305755342
0	7063	70.893574708557	0.036506101013
0	7068	70.93008080957	0.073630643127
0	7074	71.003711452697	0.092504460994
0	7079	71.096215913691	0.063742572627
0	7084	71.159958486318	0.023357661323
0	7089	71.183316147641	0.050176219395
0	7094	71.233492367036	0.012606983822
0	7099	71.246099350858	0.018363408375
0	7104	71.264462759233	0.004198002002
0	7108	71.268660761235	0.03853155304
0	7114	71.307192314275	0.004458554113
0	7118	71.311650868388	0.016049882895
0	7124	71.327700751283	0.01251266402
0	7129	71.340213415303	0.000436394815
0	7133	71.340649810118	0.005268807032
0	7136	71.34591861715	0.00126305609
0	7139	71.34718167324	0.015396939779
0	7146	71.362578613019	0.007790959306
0	7151	71.370369572325	0.003421943769
0	7156	71.373791516094	0.036052620221
0	7164	71.409844136315	0.003392793902
0	7168	71.413236930217	0.012593739235
0	7174	71.425830669452	0.09699308798
0	7179	71.522823757432	0.02306128888
0	7184	71.545885046312	0.008844035306
0	7189	71.554729081618	0.002834194058
0	7193	71.557563275676	0.04101294963
0	7199	71.598576225306	0.121066832322
0	7204	71.719643057628	0.074240703702
0	7209	71.79388376133	0.108120247136
0	7214	71.902004008466	0.030477959042
0	7219	71.932481967508	0.113785999154
0	7224	72.046267966662	0.008324509696
0	7229	72.054592476358	0.020187645356
0	7234	72.074780121714	0.011131942602
0	7239	72.085912064316	0.062400911564
0	7244	72.14831297588	0.028368405983
0	7249	72.176681381863	0.027838540572
0	7254	72.204519922435	0.037563618684
0	7259	72.242083541119	0.017954784141
0	7264	72.26003832526	0.021496110137
0	7269	72.281534435397	0.003650627192
0	7273	72.285185062589	0.076043795382
0	7279	72.361228857971	0.027395621885
0	7284	72.388624479856	0.069519466361
0	7289	72.458143946217	0.024577267938
0	7294	72.482721214155	0.131010078844
0	7299	72.613731292999	0.008741100002
0	7304	72.622472393001	0.001468997364
0	7308	72.623941390365	0.021555091361
0	7314	72.645496481726	0.113020022369
0	7319	72.758516504095	0.005025276187
0	7323	72.763541780282	0.024925816596
0	7329	72.788467596878	0.102436899679
0	7334	72.890904496557	0.105339606294
0	7339	72.996244102851	0.055069803915
0	7344	73.051313906766	0.058685886394
0	7349	73.10999979316	0.010704109733
0	7354	73.120703902893	0.218499987571
0	7359	73.339203890464	0.125107899127
0	7364	73.464311789591	0.071206550782
0	7369	73.535518340373	0.043337053533
0	7374	73.578855393906	0.022670670917
0	7379	73.601526064823	0.030430967703
0	7384	73.631957032526	0.034763789049
0	7389	73.666720821575	0.051410265914
0	7394	73.718131087489	0.023611437432
0	7399	73.741742524921	0.014653174889
0	7404	73.75639569981	0.022699572337
0	7409	73.779095272147	0.040045434143
0	7414	73.81914070629	0.015116406902
0	7419	73.834257113192	0.007072605249
0	7423	73.841329718441	0.034256003897
0	7429	73.875585722338	0.011189438607
0	7434	73.886775160945	0.057244322473
0	7439	73.944019483418	0.036082937385
0	7444	73.980102420803	0.016240840232
0	7449	73.996343261035	0.005128962995
0	7453	74.00147222403	0.037156782715
0	7459	74.038629006745	0.095477750925
0	7464	74.13410675767	0.006243042892
0	7468	74.140349800562	0.025171305773
0	7474	74.165521106335	0.008708461055
0	7479	74.17422956739	0.013268497889
0	7484	74.187498065279	0.002396859979
0	7488	74.189894925258	0.044025921915
0	7494	74.233920847173	0.176562070025
0	7499	74.410482917198	0.068685963234
0	7504	74.479168880432	0.000193391159
0	7508	74.479362271591	0.046950930176
0	7514	74.526313201767	0.009836034431
0	7519	74.536149236198	0.043257452946
0	7524	74.579406689144	0.047449317339
0	7529	74.626856006483	0.00932248171
0	7534	74.636178488193	0.004243570552
0	7538	74.640422058745	0.0579757983
0	7544	74.698397857045	0.106809696316
0	7549	74.805207553361	0.188184039677
0	7554	74.993391593038	0.063580500116
0	7559	75.056972093154	0.04690040578
0	7564	75.103872498934	0.169646535732
0	7569	75.273519034666	0.019903050249
0	7574	75.293422084915	0.035426803772
0	7579	75.328848888687	0.081149500853
0	7584	75.40999838954	0.017862589763
0	7589	75.427860979303	0.090505550573
0	7594	75.518366529876	0.039869923792
0	7599	75.558236453668	0.026831104149
0	7604	75.585067557817	0.133551248675
0	7609	75.718618806492	0.026859186854
0	7614	75.745477993346	0.036777837747
0	7619	75.782255831093	0.137928066146
0	7624	75.920183897239	0.015544603155
0	7629	75.935728500394	0.064039816153
0	7635	75.999768316547	0.104940921429
0	7640	76.104709237976	0.001672737956
0	7644	76.106381975932	0.023254287187
0	7650	76.129636263119	0.027751586266
0	7655	76.157387849385	6.921563e-005
0	7659	76.157457065015	0.00492997501
0	7662	76.162387040025	0.0142300092
0	7669	76.176617049225	0.192095815173
0	7676	76.368712864398	0.019153403354
0	7681	76.387866267752	0.04280830787
0	7686	76.430674575622	0.097870919612
0	7691	76.528545495234	0.051596035146
0	7696	76.58014153038	0.030670903306
0	7701	76.610812433686	0.022664223541
0	7706	76.633476657227	0.029402190584
0	7711	76.662878847811	0.055088095866
0	7716	76.717966943677	0.020481358004
0	7721	76.738448301681	0.042413340492
0	7727	76.780861642173	0.106296528497
0	7732	76.88715817067	0.074512454334
0	7737	76.961670625004	0.145045452059
0	7742	77.106716077063	0.115180343831
0	7747	77.221896420894	0.240734899987
0	7752	77.462631320881	0.025901452856
0	7757	77.488532773737	0.023639677236
0	7762	77.512172450973	0.112854357082
0	7768	77.625026808055	0.169287045145
0	7773	77.7943138532	0.00336484836
0	7777	77.79767870156	0.07848191773
0	7783	77.87616061929	0.057834964485
0	7789	77.933995583775	0.056302639885
0	7794	77.99029822366	0.013137770497
0	7799	78.003435994157	0.014044557775
0	7804	78.017480551932	0.038703602134
0	7809	78.056184154066	0.012196483493
0	7814	78.068380637559	0.074147968219
0	7819	78.142528605778	0.009078960883
0	7824	78.151607566661	0.068636200292
0	7829	78.220243766953	0.128039695738
0	7834	78.348283462691	0.063904314694
0	7839	78.412187777385	0.017412431709
0	7844	78.429600209094	0.032975140003
0	7850	78.462575349097	0.030173939621
0	7855	78.492749288718	0.010784992064
0	7860	78.503534280782	0.034056763905
0	7865	78.537591044687	0.011506288408
0	7870	78.549097333095	0.075292557154
0	7875	78.624389890249	0.038336269106
0	7880	78.662726159355	0.092970328621
0	7885	78.755696487976	0.028796148644
0	7890	78.78449263662	0.007487260413
0	7894	78.791979897033	0.184423598774
0	7900	78.976403495807	0.027835133205
0	7905	79.004238629012	0.017892633616
0	7910	79.022131262628	0.092529282329
0	7915	79.114660544957	0.004113128274
0	7919	79.118773673231	0.085196580221
0	7925	79.203970253452	0.064891828457
0	7930	79.268862081909	0.005402303344
0	7934	79.274264385253	0.185299531866
0	7940	79.459563917119	0.00850285444
0	7945	79.468066771559	0.076183514017
0	7950	79.544250285576	0.01813455681
0	7955	79.562384842386	0.014187505127
0	7960	79.576572347513	0.003917490055
0	7964	79.580489837568	0.001862304615
0	7967	79.582352142183	0.027639966675
0	7975	79.609992108858	0.026121462167
0	7980	79.636113571025	0.005693032865
0	7984	79.64180660389	0.105084679204
0	7990	79.746891283094	0.041991675069
0	7995	79.788882958163	0.028281146051
0	8000	79.817164104214	0.01415509145
0	8005	79.831319195664	0.016709770748
0	8010	79.848028966412	0.045370645997
0	8015	79.893399612409	0.136901164764
0	8020	80.030300777173	0.006251277442
0	8024	80.036552054615	0.073978757067
0	8031	80.110530811682	0.186243718705
0	8036	80.296774530387	0.047207062603
0	8041	80.34398159299	0.134826742696
0	8046	80.478808335686	0.000134032917
0	8050	80.478942368603	0.024862323492
0	8056	80.503804692095	0.134049754487
0	8061	80.637854446582	0.013865376447
0	8066	80.651719823029	0.056017954138
0	8072	80.707737777167	0.014410658395
0	8077	80.722148435562	0.012710233136
0	8082	80.734858668698	0.033023694714
0	8087	80.767882363412	0.001253229378
0	8091	80.76913559279	0.002040725018
0	8094	80.771176317808	0.000374817222
0	8097	80.77155113503	0.051041620953
0	8107	80.822592755983	0.131141276095
0	8112	80.953734032078	0.026238022204
0	8117	80.979972054282	0.05907026993
0	8122	81.039042324212	0.02369307895
0	8127	81.062735403162	0.061064008845
0	8133	81.123799412007	0.082869726033
0	8138	81.20666913804	0.045325063861
0	8143	81.251994201901	0.061727693489
0	8148	81.31372189539	0.038526866038
0	8153	81.352248761428	0.154319856944
0	8158	81.506568618372	0.030401581288
0	8163	81.53697019966	0.021688309475
0	8168	81.558658509135	0.045838693584
0	8173	81.604497202719	0.11391548714
0	8178	81.718412689859	0.053077665815
0	8183	81.771490355674	0.073476665793
0	8188	81.844967021467	0.023343608873
0	8193	81.86831063034	0.02211355945
0	8198	81.89042418979	0.055166265135
0	8203	81.945590454925	0.048598819654
0	8208	81.994189274579	0.030521677152
0	8213	82.024710951731	0.017023909577
0	8218	82.041734861308	0.004445211245
0	8222	82.046180072553	0.10373261912
0	8228	82.149912691673	0.013274752132
0	8233	82.163187443805	0.005963243499
0	8237	82.169150687304	0.004243686191
0	8242	82.173394373495	0.011940427972
0	8247	82.185334801467	0.019431678312
0	8253	82.204766479779	0.010107846813
0	8258	82.214874326592	0.047250899531
0	8263	82.262125226123	0.025794086126
0	8268	82.287919312249	0.022913728153
0	8273	82.310833040402	0.06837028595
0	8278	82.379203326352	0.064772833196
0	8283	82.443976159548	0.037423211746
0	8288	82.481399371294	0.056669413015
0	8293	82.538068784309	0.033439934209
0	8298	82.571508718518	0.007814632125
0	8303	82.579323350643	2.7305998e-005
0	8307	82.579350656641	0.009198697182
0	8312	82.588549353823	0.027704207242
0	8319	82.616253561065	0.003330256862
0	8323	82.619583817927	0.003283159259
0	8326	82.622866977186	0.015348869127
0	8333	82.638215846313	0.011675685302
0	8339	82.649891531615	0.021412901441
0	8344	82.671304433056	0.134702884249
0	8349	82.806007317305	0.004619375938
0	8353	82.810626693243	0.012128947944
0	8359	82.822755641187	0.046093962914
0	8364	82.868849604101	0.097715438585
0	8369	82.966565042686	0.0626539047
0	8374	83.029218947386	0.08120052219
0	8379	83.110419469576	0.008552590952
0	8384	83.118972060528	0.008666876061
0	8389	83.127638936589	0.020937967613
0	8394	83.148576904202	0.046533677831
0	8399	83.195110582033	0.064959966622
0	8405	83.260070548655	0.006145789408
0	8409	83.266216338063	0.054430808653
0	8415	83.320647146716	0.065077105423
0	8420	83.385724252139	0.096365224863
0	8425	83.482089477002	0.050731337713
0	8430	83.532820814715	0.040439506314
0	8435	83.573260321029	0.08354932876
0	8440	83.656809649789	0.001304698248
0	8444	83.658114348037	0.032637181027
0	8450	83.690751529064	0.002951452643
0	8454	83.693702981707	0.123174731459
0	8460	83.816877713166	0.004172400878
0	8464	83.821050114044	0.002530410466
0	8467	83.82358052451	0.03640114415
0	8475	83.85998166866	0.017328350456
0	8480	83.877310019116	0.070346527264
0	8485	83.94765654638	0.062772533575
0	8491	84.010429079955	0.001640277736
0	8495	84.012069357691	0.027073624683
0	8501	84.039142982374	0.030503539564
0	8506	84.069646521938	0.009494587873
0	8511	84.079141109811	0.087090701073
0	8516	84.166231810884	0.00567023611
0	8520	84.171902046994	0.055222340249
0	8526	84.227124387243	0.085006196463
0	8531	84.312130583706	0.039473829742
0	8537	84.351604413448	0.032041303575
0	8542	84.383645717023	0.044435201381
0	8547	84.428080918404	0.106973876149
0	8552	84.535054794553	0.113399519542
0	8557	84.648454314095	0.066079505309
0	8562	84.714533819404	0.042792461072
0	8567	84.757326280476	0.026358439485
0	8572	84.783684719961	0.027393434699
0	8577	84.81107815466	0.023381203863
0	8582	84.834459358523	0.060693028153
0	8587	84.895152386676	0.036246171815
0	8592	84.931398558491	0.022096659444
0	8597	84.953495217935	0.109938264483
0	8602	85.063433482418	0.180432750846
0	8607	85.243866233264	0.066833051938
0	8612	85.310699285202	0.102904558883
0	8617	85.413603844085	0.000258314305
0	8621	85.41386215839	0.008518867934
0	8626	85.422381026324	0.059234307533
0	8632	85.481615333857	0.057620550969
0	8637	85.539235884826	0.125979507948
0	8642	85.665215392774	0.001733235128
0	8646	85.666948627902	0.061972357939
0	8652	85.728920985841	0.108231358784
0	8657	85.837152344625	0.009740304826
0	8662	85.846892649451	0.09316929919
0	8667	85.940061948641	0.033035754671
0	8672	85.973097703312	0.035680557663
0	8677	86.008778260975	0.007559521322
0	8681	86.016337782297	0.006830442985
0	8686	86.023168225282	0.022235922748
0	8692	86.04540414803	0.048573397678
0	8697	86.093977545708	0.138324008403
0	8702	86.232301554111	0.013678243112
0	8707	86.245979797223	0.128396135988
0	8712	86.374375933211	0.049830463958
0	8717	86.424206397169	0.016622596079
0	8722	86.440828993248	0.059166976168
0	8727	86.499995969416	0.020747829136
0	8732	86.520743798552	0.005616734033
0	8736	86.526360532585	0.045841151865
0	8742	86.57220168445	0.032403517984
0	8747	86.604605202434	0.165109197623
0	8752	86.769714400057	0.044045380864
0	8757	86.813759780921	0.007996780193
0	8762	86.821756561114	0.014626403646
0	8767	86.83638296476	0.014847352939
0	8772	86.851230317699	0.011220360177
0	8777	86.862450677876	0.103398115758
0	8782	86.965848793634	0.050785633653
0	8787	87.016634427287	0.033853085618
0	8792	87.050487512905	0.071510967413
0	8797	87.121998480318	0.114612481292
0	8802	87.23661096161	0.022244923449
0	8807	87.258855885059	0.010260140916
0	8812	87.269116025975	0.061704001337
0	8817	87.330820027312	0.038035830092
0	8822	87.368855857404	0.044260842233
0	8828	87.413116699637	0.019746264605
0	8833	87.432862964242	0.082929669345
0	8838	87.515792633587	0.019029544966
0	8843	87.534822178553	0.01141233116
0	8848	87.546234509713	0.029608740199
0	8853	87.575843249912	0.079579105654
0	8858	87.655422355566	0.028376629192
0	8863	87.683798984758	0.015490106728
0	8868	87.699289091486	0.022107508596
0	8873	87.721396600082	0.017709930704
0	8878	87.739106530786	0.123238006821
0	8883	87.862344537607	0.191228482822
0	8888	88.053573020429	0.065790711589
0	8893	88.119363732018	0.002355291874
0	8897	88.121719023892	0.065014457102
0	8903	88.186733480994	0.010520845162
0	8908	88.197254326156	0.017118420643
0	8913	88.214372746799	0.036789666351
0	8918	88.25116241315	0.043103081365
0	8923	88.294265494515	0.023579786023
0	8928	88.317845280538	0.075520240934
0	8933	88.393365521472	0.013860171926
0	8938	88.407225693398	0.079381464379
0	8943	88.486607157777	0.057688188168
0	8948	88.544295345945	0.02112017247
0	8953	88.565415518415	0.055317653248
0	8958	88.620733171663	0.073673888833
0	8963	88.694407060496	0.165853368886
0	8968	88.860260429382	0.066570217522
0	8973	88.926830646904	0.105433374094
0	8979	89.032264020998	0.007628807407
0	8983	89.039892828405	0.298311784988
0	8989	89.338204613393	0.100475430835
0	8994	89.438680044228	0.022540490531
0	8999	89.461220534759	0.029109052657
0	9004	89.490329587416	0.002314475296
0	9008	89.492644062712	0.033316543801
0	9014	89.525960606513	0.019674119848
0	9019	89.545634726361	0.029743812795
0	9024	89.575378539156	0.034349781795
0	9029	89.609728320951	0.041948664146
0	9034	89.651676985097	0.009448925836
0	9039	89.661125910933	0.048533287392
0	9044	89.709659198325	0.004445718117
0	9048	89.714104916442	0.034475646096
0	9054	89.748580562538	0.0301405454
0	9059	89.778721107938	0.100790873217
0	9065	89.879511981155	0.134904152148
0	9070	90.014416133303	0.049407432658
0	9075	90.063823565961	0.07201958025
0	9080	90.135843146211	0.025660419062
0	9085	90.161503565273	0.018660986418
0	9090	90.180164551691	0.026951975427
0	9095	90.207116527118	0.109738352439
0	9100	90.316854879557	0.083257736369
0	9105	90.400112615926	0.059746406669
0	9110	90.459859022595	0.021400257523
0	9115	90.481259280118	0.031119901217
0	9120	90.512379181335	0.011878277147
0	9125	90.524257458482	0.015368363638
0	9130	90.53962582212	0.003060971606
0	9134	90.542686793726	0.042846155074
0	9140	90.5855329488	0.104384513157
0	9145	90.689917461957	0.010839501287
0	9150	90.700756963244	0.125386116763
0	9155	90.826143080007	0.067591104303
0	9160	90.89373418431	0.006398497243
0	9164	90.900132681553	0.138173822029
0	9170	91.038306503582	0.020358859027
0	9175	91.058665362609	0.053832932443
0	9180	91.112498295052	0.00964114944
0	9185	91.122139444492	0.064548135279
0	9190	91.186687579771	0.006159168614
0	9194	91.192846748385	0.008985552962
0	9199	91.201832301347	0.115062668302
0	9205	91.316894969649	0.068960767537
0	9210	91.385855737186	0.002927942416
0	9214	91.388783679602	0.034393738574
0	9220	91.423177418176	0.196830306491
0	9227	91.620007724667	0.004571932402
0	9231	91.624579657069	0.00507123917
0	9236	91.629650896239	0.02442446432
0	9242	91.654075360559	0.099560782025
0	9247	91.753636142584	0.06536456925
0	9252	91.819000711834	0.041793878377
0	9257	91.860794590211	0.043162427213
0	9262	91.903957017424	0.022936767067
0	9267	91.926893784491	0.018291741957
0	9272	91.945185526448	0.020953540178
0	9277	91.966139066626	0.224364920562
0	9282	92.190503987188	0.070809674025
0	9287	92.261313661213	0.042669534311
0	9292	92.303983195524	0.018885685277
0	9297	92.322868880801	0.144974932684
0	9302	92.467843813485	0.053547752319
0	9307	92.521391565804	0.041023378396
0	9312	92.5624149442	0.03642069877
0	9317	92.59883564297	0.041582147635
0	9322	92.640417790605	0.033176084247
0	9327	92.673593874852	0.002626304518
0	9331	92.67622017937	0.115713744931
0	9337	92.791933924301	0.005495138759
0	9341	92.79742906306	0.040444184431
0	9347	92.837873247491	0.047652671309
0	9352	92.8855259188	0.087683200867
0	9357	92.973209119667	0.065770124628
0	9362	93.038979244295	0.064653596894
0	9367	93.103632841189	0.01398784012
0	9372	93.117620681309	0.001966012496
0	9376	93.119586693805	0.16617810632
0	9382	93.285764800125	0.074164509915
0	9387	93.35992931004	0.067592342845
0	9392	93.427521652885	0.01222284463
0	9397	93.439744497515	0.013591175951
0	9402	93.453335673466	0.116729411103
0	9407	93.570065084569	0.051700291137
0	9412	93.621765375706	0.002193633898
0	9416	93.623959009604	0.020757319724
0	9422	93.644716329328	0.020253661459
0	9427	93.664969990787	0.065002300459
0	9432	93.729972291246	0.005253191645
0	9436	93.735225482891	0.043924774525
0	9442	93.779150257416	0.032273988551
0	9447	93.811424245967	0.070663490764
0	9452	93.882087736731	0.085746155205
0	9457	93.967833891936	0.014481784896
0	9462	93.982315676832	0.017704440005
0	9467	94.000020116837	0.134629993383
0	9472	94.13465011022	0.008180970676
0	9477	94.142831080896	0.248101637245
0	9482	94.390932718141	0.020043810682
0	9487	94.410976528823	0.008988204409
0	9492	94.419964733232	0.084068219762
0	9497	94.504032952994	0.035964838614
0	9503	94.539997791608	0.007563472252
0	9507	94.54756126386	0.099562824567
0	9513	94.647124088427	0.012897261464
0	9518	94.660021349891	0.021362380815
0	9523	94.681383730706	0.003566850321
0	9527	94.684950581027	0.01389565234
0	9533	94.698846233367	0.061159487028
0	9538	94.760005720395	0.065664317767
0	9543	94.825670038162	0.025145620834
0	9548	94.850815658996	0.189751616686
0	9554	95.040567275682	0.018614089157
0	9559	95.059181364839	0.035033552108
0	9564	95.094214916947	0.063403596193
0	9569	95.15761851314	0.024914440861
0	9574	95.182532954001	0.020471965633
0	9579	95.203004919634	0.024873498871
0	9584	95.227878418505	0.065055631893
0	9589	95.292934050398	0.079117032514
0	9594	95.372051082912	0.084423891401
0	9599	95.456474974313	0.061219151799
0	9604	95.517694126112	0.012273474107
0	9609	95.529967600219	0.019203578585
0	9614	95.549171178804	0.182135484401
0	9619	95.731306663205	0.183627979262
0	9624	95.914934642467	0.008858220546
0	9629	95.923792863013	0.111087360125
0	9634	96.034880223138	0.01718376925
0	9639	96.052063992388	0.060353558045
0	9644	96.112417550433	0.009910066028
0	9649	96.122327616461	0.029060365156
0	9654	96.151387981617	0.021194617016
0	9659	96.172582598633	0.011615268207
0	9664	96.18419786684	0.032702178126
0	9669	96.216900044966	0.054675968857
0	9674	96.271576013823	0.036925626851
0	9679	96.308501640674	0.07009884735
0	9684	96.378600488024	0.096072696799
0	9689	96.474673184823	0.046326845527
0	9694	96.52100003035	0.110113422272
0	9699	96.631113452622	0.034220947078
0	9704	96.6653343997	0.012429726214
0	9709	96.677764125914	0.006280517467
0	9713	96.684044643381	0.048761452122
0	9720	96.732806095503	0.076793243289
0	9725	96.809599338792	0.005910809752
0	9729	96.815510148544	0.033823493993
0	9735	96.849333642537	0.030714013931
0	9740	96.880047656468	0.096246791883
0	9745	96.976294448351	0.01945500292
0	9750	96.995749451271	0.007240806724
0	9754	97.002990257995	0.019026485505
0	9760	97.0220167435	0.167748218968
0	9765	97.189764962468	0.032945427342
0	9770	97.22271038981	0.033785115788
0	9775	97.256495505598	0.065434757987
0	9780	97.321930263585	0.003755058543
0	9784	97.325685322128	0.003584610903
0	9787	97.329269933031	0.016433102883
0	9795	97.345703035914	0.105669914214
0	9800	97.451372950128	0.116436294359
0	9805	97.567809244487	0.066366148624
0	9810	97.634175393111	0.020324628378
0	9815	97.654500021489	0.009709548939
0	9820	97.664209570428	0.175458230457
0	9825	97.839667800885	0.139976138423
0	9830	97.979643939308	0.029360268565
0	9835	98.009004207873	0.035292599756
0	9840	98.044296807629	0.022867895573
0	9845	98.067164703202	0.428050912966
0	9850	98.495215616168	0.077977564086
0	9855	98.573193180254	0.010986187275
0	9860	98.584179367529	0.031472895067
0	9866	98.615652262596	0.038276023692
0	9871	98.653928286288	0.003928711348
0	9875	98.657856997636	0.017141986293
0	9881	98.674998983929	0.088258088979
0	9886	98.763257072908	0.018132750652
0	9891	98.78138982356	0.07814257772
0	9896	98.85953240128	0.044709999511
0	9901	98.904242400791	0.036179588405
0	9906	98.940421989196	0.127372562545
0	9911	99.067794551741	0.000486525297
0	9915	99.068281077038	0.08180548703
0	9921	99.150086564068	0.007329789628
0	9925	99.157416353696	0.064357105291
0	9931	99.221773458987	0.06223810394
0	9936	99.284011562927	0.040955227169
0	9942	99.324966790096	0.044684594587
0	9947	99.369651384683	0.127744039487
0	9952	99.49739542417	0.060206058006
0	9957	99.557601482176	0.033899276086
0	9962	99.591500758262	0.022387413738
0	9967	99.613888172	0.103507116908
0	9972	99.717395288908	0.049628455892
0	9977	99.7670237448	0.089782846942
0	9983	99.856806591742	0.0285311379
0	9988	99.885337729642	0.012029451388
0	9993	99.89736718103	0.026704799398
0	9998	99.924071980428	0.073750915729
0	10003	99.997822896157	0.026809959507
0	10008	100.024632855664	0.000612291942
0	10012	100.025245147606	0.001629032679
0	10015	100.026874180285	0.019491612326
0	10022	100.046365792611	0.003146724093
0	10027	100.049512516704	0.013040157811
0	10032	100.062552674515	0.094629566453
0	10040	100.157182240968	0.035348408203
0	10045	100.192530649171	0.059458403725
0	10050	100.251989052896	0.066752154216
0	10055	100.318741207112	0.013094979529
0	10060	100.331836186641	0.005139101601
0	10064	100.336975288242	0.006285344438
0	10069	100.34326063268	0.036172300003
0	10075	100.379432932683	0.00207810594
0	10079	100.381511038623	0.139364431634
0	10085	100.520875470257	0.032668173361
0	10090	100.553543643618	0.012980428984
0	10095	100.566524072602	0.04433260673
0	10100	100.610856679332	0.056527001506
0	10105	100.667383680838	0.114117528249
0	10110	100.781501209087	0.044932397735
0	10115	100.826433606822	0.126456571998
0	10120	100.95289017882	0.000505733781
0	10124	100.953395912601	0.022804588286
0	10130	100.976200500887	0.032296597679
0	10135	101.008497098566	0.133566233521
0	10140	101.142063332087	0.06168216388
0	10145	101.203745495967	0.039458608288
0	10150	101.243204104255	0.002248583397
0	10154	101.245452687652	0.042676583517
0	10160	101.288129271169	0.105814192402
0	10165	101.393943463571	0.009839423306
0	10170	101.403782886877	0.036706940817
0	10175	101.440489827694	0.006157075346
0	10179	101.44664690304	0.001557046672
0	10182	101.448203949712	0.014010573905
0	10189	101.462214523617	0.012706795643
0	10195	101.47492131926	0.006635951492
0	10199	101.481557270752	0.153604432011
0	10206	101.635161702763	0.012634518846
0	10211	101.647796221609	0.043651952586
0	10216	101.691448174195	0.038806158881
0	10221	101.730254333076	0.005684901421
0	10225	101.735939234497	0.101344347854
0	10232	101.837283582351	0.016951891383
0	10237	101.854235473734	0.079234285342
0	10242	101.933469759076	0.03050501511
0	10247	101.963974774186	0.00164456349
0	10251	101.965619337676	0.001058631593
0	10254	101.966677969269	0.059958784803
0	10262	102.026636754072	0.026518733244
0	10267	102.053155487316	0.002396095855
0	10271	102.055551583171	0.033614180583
0	10277	102.089165763754	0.311371608399
0	10283	102.400537372153	0.013964395101
0	10289	102.414501767254	0.076650320289
0	10294	102.491152087543	0.044414205108
0	10299	102.535566292651	0.01315804483
0	10304	102.548724337481	0.069966978121
0	10309	102.618691315602	0.033678039523
0	10314	102.652369355125	0.013448526417
0	10319	102.665817881542	0.068148666585
0	10324	102.733966548127	0.048445020145
0	10329	102.782411568272	0.091568649005
0	10334	102.873980217277	0.051030124233
0	10339	102.92501034151	0.012994097604
0	10344	102.938004439114	0.148347816354
0	10349	103.086352255468	0.00719056774
0	10353	103.093542823208	0.075316133113
0	10359	103.168858956321	0.133737969693
0	10364	103.302596926014	0.094307441345
0	10369	103.396904367359	0.055548667318
0	10374	103.452453034677	0.033708411473
0	10379	103.48616144615	0.104488694384
0	10384	103.590650140534	0.010249748703
0	10389	103.600899889237	0.013223228096
0	10394	103.614123117333	0.27381594257
0	10399	103.887939059903	0.006888252177
0	10403	103.89482731208	0.006926092106
0	10408	103.901753404186	0.021564166607
0	10414	103.923317570793	0.031881585963
0	10419	103.955199156756	0.01456442417
0	10424	103.969763580926	0.00352611823
0	10428	103.973289699156	0.003776823045
0	10431	103.977066522201	0.143987189067
0	10439	104.121053711268	0.051708561938
0	10444	104.172762273206	0.167513255285
0	10449	104.340275528491	0.014464966408
0	10454	104.354740494899	0.063539305969
0	10459	104.418279800868	0.029912260768
0	10464	104.448192061636	0.021538595654
0	10469	104.46973065729	0.017004979157
0	10474	104.486735636447	0.014677120167
0	10479	104.501412756614	0.127037171859
0	10485	104.628449928473	0.015414877563
0	10490	104.643864806036	0.029910868738
0	10495	104.673775674774	0.006807828669
0	10499	104.680583503443	0.105953497639
0	10505	104.786537001082	0.03730724985
0	10510	104.823844250932	0.002250724041
0	10514	104.826094974973	0.007646911837
0	10519	104.83374188681	0.038372196152
0	10525	104.872114082962	0.019043307718
0	10530	104.89115739068	0.030140695219
0	10535	104.921298085899	0.049269512228
0	10540	104.970567598127	0.019734989961
0	10545	104.990302588088	0.065013836473
0	10550	105.055316424561	0.017847281814
0	10555	105.073163706375	0.001228607289
0	10559	105.074392313664	0.015516030735
0	10565	105.089908344399	0.028116121248
0	10570	105.118024465647	0.011127781849
0	10575	105.129152247496	0.052795544966
0	10580	105.181947792462	0.033925977424
0	10585	105.215873769886	0.095949871234
0	10590	105.31182364112	0.021166520303
0	10595	105.332990161423	0.032248791884
0	10600	105.365238953307	0.020068713761
0	10605	105.385307667068	0.174021571018
0	10610	105.559329238086	0.003425034089
0	10614	105.562754272175	0.015437288397
0	10620	105.578191560572	0.000698103413
0	10624	105.578889663985	0.000680038799
0	10627	105.579569702784	0.121326277956
0	10635	105.70089598074	0.033058484206
0	10640	105.733954464946	0.026701167036
0	10645	105.760655631982	0.014793360359
0	10650	105.775448992341	0.056512041946
0	10655	105.831961034287	0.086783422475
0	10660	105.918744456762	0.030110414703
0	10665	105.948854871465	0.013248606786
0	10670	105.962103478251	0.011197048022
0	10675	105.973300526273	0.018598800421
0	10680	105.991899326694	0.132589531271
0	10685	106.124488857965	0.078325490259
0	10690	106.202814348224	0.006543146789
0	10694	106.209357495013	0.06278844309
0	10700	106.272145938103	0.032828732124
0	10705	106.304974670227	0.040828066554
0	10710	106.345802736781	0.004810574708
0	10714	106.350613311489	0.061030193593
0	10720	106.411643505082	0.013021253474
0	10725	106.424664758556	0.027118984686
0	10730	106.451783743242	0.057825038308
0	10735	106.50960878155	0.00026620992
0	10739	106.50987499147	0.037370933776
0	10745	106.547245925246	0.000571004327
0	10749	106.547816929573	0.039931441522
0	10755	106.587748371095	0.035792322366
0	10760	106.623540693461	0.089260705879
0	10765	106.71280139934	0.004348258884
0	10769	106.717149658224	0.003135178613
0	10772	106.720284836837	0.002621300943
0	10777	106.72290613778	0.117602794254
0	10785	106.840508932034	0.16836391561
0	10790	107.008872847644	0.052666780677
0	10795	107.061539628321	0.097950706024
0	10800	107.159490334345	0.05120873895
0	10805	107.210699073295	0.008245337797
0	10810	107.218944411092	0.001533693784
0	10814	107.220478104876	3.3221811e-005
0	10817	107.220511326687	0.120437637035
0	10825	107.340948963722	0.142080047792
0	10830	107.483029011514	0.001419047439
0	10834	107.484448058953	0.016309039876
0	10840	107.500757098829	0.010255848776
0	10845	107.511012947605	0.010283455998
0	10850	107.521296403603	0.113125540189
0	10855	107.634421943792	0.058802986361
0	10860	107.693224930153	0.006775391382
0	10864	107.700000321535	0.005765141193
0	10869	107.705765462728	0.0253739082
0	10875	107.731139370928	0.015370407508
0	10880	107.746509778436	0.071366068234
0	10885	107.81787584667	0.184633686061
0	10890	108.002509532731	0.041385091088
0	10895	108.043894623819	0.051008003068
0	10900	108.094902626887	0.065555273183
0	10905	108.16045790007	0.036769112119
0	10910	108.197227012189	0.01071204609
0	10915	108.207939058279	0.025368132804
0	10920	108.233307191083	0.026555875956
0	10925	108.259863067039	0.074471968505
0	10930	108.334335035544	0.03449642859
0	10935	108.368831464134	0.00759684293
0	10939	108.376428307064	0.013960801914
0	10945	108.390389108978	0.171076837308
0	10950	108.561465946286	0.308709853648
0	10955	108.870175799934	0.098708334516
0	10960	108.96888413445	0.055602444318
0	10965	109.024486578768	0.048071855295
0	10970	109.072558434063	0.107613276629
0	10975	109.180171710692	0.002192693584
0	10979	109.182364404276	0.024958587669
0	10985	109.207322991945	0.060341451065
0	10990	109.26766444301	0.129406683319
0	10995	109.397071126329	0.122256042085
0	11000	109.519327168414	0.01449267178
0	11005	109.533819840194	0.037177524366
0	11010	109.57099736456	0.008591867739
0	11015	109.579589232299	0.021865192802
0	11020	109.601454425101	0.077290310446
0	11025	109.678744735547	0.006407429295
0	11029	109.685152164842	0.180626727161
0	11036	109.865778892003	0.070304675853
0	11041	109.936083567856	0.003202175904
0	11045	109.93928574376	0.108150659953
0	11051	110.047436403713	0.005268174619
0	11055	110.052704578332	0.005282013778
0	11060	110.05798659211	0.019128793703
0	11066	110.077115385813	0.071144713074
0	11071	110.148260098887	0.037322223626
0	11076	110.185582322513	0.000860384657
0	11080	110.18644270717	0.060915638808
0	11086	110.247358345978	0.170645663134
0	11091	110.418004009112	0.155670134023
0	11096	110.573674143135	0.047733133411
0	11101	110.621407276546	0.006267943133
0	11105	110.627675219679	0.040197128387
0	11111	110.667872348066	0.022027289008
0	11116	110.689899637074	0.017545283585
0	11121	110.707444920659	0.015481661289
0	11126	110.722926581948	0.132459596193
0	11131	110.855386178141	0.082361800152
0	11136	110.937747978293	0.01545588451
0	11141	110.953203862803	0.008929952153
0	11146	110.962133814956	0.088055677181
0	11151	111.050189492137	0.104713372377
0	11156	111.154902864514	0.210348831015
0	11161	111.365251695529	0.074296984175
0	11166	111.439548679704	0.076484371733
0	11171	111.516033051437	0.107630140982
0	11176	111.623663192419	0.036593351976
0	11181	111.660256544395	0.173959709896
0	11186	111.834216254291	0.003417917747
0	11190	111.837634172038	0.042600573871
0	11196	111.880234745909	0.03197214967
0	11201	111.912206895579	0.030662526076
0	11206	111.942869421655	0.028835447755
0	11211	111.97170486941	0.033182383762
0	11216	112.004887253172	0.011332235922
0	11221	112.016219489094	0.112934601209
0	11226	112.129154090303	0.027546598728
0	11231	112.156700689031	0.011702852315
0	11236	112.168403541346	0.022139496102
0	11241	112.190543037448	0.02352822381
0	11246	112.214071261258	0.008937452672
0	11251	112.22300871393	0.051240162246
0	11256	112.274248876176	0.029113766558
0	11261	112.303362642734	0.062944800258
0	11266	112.366307442992	0.015244799716
0	11271	112.381552242708	0.002901171558
0	11275	112.384453414266	0.036913756446
0	11281	112.421367170712	0.191186278683
0	11287	112.612553449395	0.001789652921
0	11291	112.614343102316	0.020132348235
0	11297	112.634475450551	0.118346273658
0	11302	112.752821724209	0.011537591849
0	11307	112.764359316058	0.084740071227
0	11312	112.849099387285	0.018348743894
0	11317	112.867448131179	0.040213024891
0	11322	112.90766115607	0.209232515523
0	11327	113.116893671593	0.095462524497
0	11332	113.21235619609	0.055218011987
0	11337	113.267574208077	0.164031008955
0	11342	113.431605217032	0.014070286718
0	11347	113.44567550375	0.005856041953
0	11351	113.451531545703	0.011225725604
0	11357	113.462757271307	0.049825147022
0	11362	113.512582418329	0.003892410282
0	11366	113.516474828611	0.310580718819
0	11372	113.82705554743	0.022566079279
0	11377	113.849621626709	0.220682755209
0	11382	114.070304381918	0.086793489041
0	11387	114.157097870959	0.046231645988
0	11392	114.203329516947	0.016108518341
0	11397	114.219438035288	0.006849489578
0	11401	114.226287524866	0.022982151402
0	11407	114.249269676268	0.043756579279
0	11412	114.293026255547	0.071656029096
0	11417	114.364682284643	0.000103338292
0	11421	114.364785622935	0.059527639838
0	11427	114.424313262773	0.011089182467
0	11432	114.43540244524	0.026588296589
0	11437	114.461990741829	0.156318432202
0	11442	114.618309174031	0.008975434799
0	11447	114.62728460883	0.020056767478
0	11452	114.647341376308	0.112108732855
[...]
4	39405	396.203881613168	0.007777777778
4	39410	396.269722967332	0.007777777778
4	39415	396.311037049242	0.007777777778
4	39420	396.368436107606	0.007777777778
4	39425	396.376213885384	0.007948750919
4	39431	396.455329603929	0.007777777778
4	39436	396.463107381707	0.008936729094
4	39441	396.504484356209	0.007777777778
4	39446	396.52583795142	0.007777777778
4	39451	396.543775566693	0.007777777778
4	39456	396.563825807033	0.007777777778
4	39461	396.58255614635	0.007777777778
4	39466	396.602494518279	0.007777777778
4	39471	396.711787960229	0.007777777778
4	39476	396.757719231733	0.007777777778
4	39481	396.779605702138	0.007777777778
4	39486	396.798594850572	0.007777777778
4	39491	396.882725918281	0.007777777778
4	39496	396.955935658121	0.007777777778
4	39501	397.028535895433	0.007777777778
4	39506	397.036313673211	0.010803152547
4	39511	397.068963829015	0.007777777778
4	39516	397.088600098043	0.007777777778
4	39521	397.210164068093	0.007777777778
4	39527	397.265475095783	0.007777777778
4	39532	397.283363079753	0.007777777778
4	39537	397.329545480661	0.007777777778
4	39545	397.337323258439	0.015227527834
4	39547	397.345101036217	0.016641151139
4	39552	397.407125109055	0.007777777778
4	39557	397.436069045957	0.007777777778
4	39562	397.508431065492	0.007777777778
4	39567	397.526927865846	0.007777777778
4	39572	397.537826753785	0.007777777778
4	39577	397.58779276911	0.007777777778
4	39582	397.672343218317	0.007777777778
4	39587	397.680120996095	0.008599907038
4	39592	397.777243855683	0.007777777778
4	39597	397.832762806458	0.007777777778
4	39602	397.88627807747	0.007777777778
4	39607	397.917443513427	0.007777777778
4	39612	397.954092012462	0.007777777778
4	39617	397.970163606897	0.007777777778
4	39622	398.019669907553	0.007777777778
4	39628	398.088476019961	0.007777777778
4	39633	398.139121428112	0.007777777778
4	39638	398.149528624276	0.007777777778
4	39643	398.244036712358	0.007777777778
4	39648	398.252294476015	0.007777777778
4	39653	398.265319641798	0.007777777778
4	39658	398.273097419576	0.014781802795
4	39663	398.390542425806	0.007777777778
4	39668	398.489314651384	0.007777777778
4	39673	398.638982729526	0.007777777778
4	39678	398.672882412623	0.007777777778
4	39683	398.685308629391	0.007777777778
4	39688	398.721666129573	0.007777777778
4	39693	398.729443907351	0.009993698258
4	39698	398.737221685129	0.011676503966
4	39703	398.789303326538	0.007777777778
4	39708	398.797081104316	0.009853644771
4	39713	398.804858882094	0.011639771694
4	39718	398.821303910281	0.007777777778
4	39723	398.835626126021	0.007777777778
4	39728	398.871933477626	0.007777777778
4	39733	398.880899071454	0.007777777778
4	39738	398.941243293188	0.007777777778
4	39743	399.038951349281	0.007777777778
4	39748	399.07353579668	0.007777777778
4	39753	399.1933340494	0.007777777778
4	39758	399.282392367383	0.007777777778
4	39763	399.301185599189	0.007777777778
4	39768	399.324877534648	0.007777777778
4	39773	399.345028675018	0.007777777778
4	39778	399.352806452796	0.014131055228
4	39783	399.377656840074	0.007777777778
4	39788	399.405426400375	0.007777777778
4	39793	399.413204178153	0.008244346658
4	39798	399.420981955931	0.011580420224
4	39803	399.493114189218	0.007777777778
4	39808	399.512548602576	0.007777777778
4	39813	399.550630154232	0.007777777778
4	39818	399.761133708424	0.007777777778
4	39823	399.778733191947	0.007777777778
4	39828	399.876102745463	0.007777777778
4	39833	399.908983471941	0.007777777778
4	39838	399.922472679383	0.007777777778
4	39843	399.967396754161	0.007777777778
4	39848	399.990973989844	0.007777777778
5	1041	10.19835258653	1.2001889365728
5	1132	11.398541523103	0.96566736514229
5	1213	12.364208888245	0.1277771729257
5	1224	12.491986061171	0.35618174740504
5	1260	12.848167808576	0.66393001886428
5	1361	13.51209782744	0.31037396562103
5	1397	13.822471793061	1.0016790557176
5	1493	14.824150848779	0.97057225814131
5	1569	15.79472310692	1.7049950941208
5	1725	17.499718201041	0.75319890850995
5	1811	18.252917109551	1.1489355117373
5	1912	19.401852621288	0.14454027411866
5	1917	19.546392895407	0.69027364835869
5	1994	20.236666543766	0.72067896131804
5	2085	20.957345505084	0.88381623042317
5	2156	21.841161735507	0.20388011696116
5	2187	22.045041852468	1.272088314127
5	2308	23.317130166595	1.5386772927642
5	2484	24.855807459359	0.29907753004643
5	2540	25.154884989405	1.9239794311703
5	2736	27.078864420575	0.79011482940329
5	2787	27.868979249978	0.68168678330413
5	2833	28.550666033282	0.52308012522729
5	2874	29.073746158509	1.8744553867197
5	3035	30.948201545229	0.19478039533625
5	3050	31.142981940565	0.082996325505996
5	3057	31.225978266071	3.4943792803259
5	3508	34.720357546397	0.70369478920492
5	3584	35.424052335602	0.35242450398605
5	3635	35.776476839588	0.067515217654314
5	3655	35.843992057242	0.33949314282428
5	3682	36.183485200066	0.55883017613127
5	3733	36.742315376197	0.12351693109527
5	3749	36.865832307292	0.1015133936909
5	3760	36.967345700983	0.20055930281028
5	3785	37.167905003793	0.13600298362652
5	3797	37.30390798742	0.68179143761943
5	3858	37.985699425039	0.90818692663954
5	3914	38.893886351679	0.83416971691722
5	4005	39.728056068596	0.25619891344856
5	4050	39.984254982045	0.25081690982445
5	4067	40.235071891869	0.11310787648983
5	4083	40.348179768359	1.4588271041011
5	4269	41.80700687246	0.24885400850555
5	4294	42.055860880966	0.86111166349467
5	4371	42.916972544461	0.43051569854091
5	4411	43.347488243002	0.18371049824741
5	4438	43.531198741249	0.63071240531491
5	4484	44.161911146564	0.45802979297553
5	4535	44.61994093954	0.22532496256765
5	4546	44.845265902108	0.63237872423476
5	4577	45.477644626343	1.0227816817705
5	4698	46.500426308114	1.062086112426
5	4804	47.56251242054	0.65984748465707
5	4850	48.222359905197	1.5754701208104
5	5011	49.797830026007	0.70367584683763
5	5071	50.501505872845	1.0878557349496
5	5178	51.589361607795	0.48921523685956
5	5224	52.078576844655	0.94940731685217
5	5345	53.027984161507	1.5781207184635
5	5511	54.60610487997	4.6942196674673
5	5946	59.300324547437	0.86751052698531
5	6028	60.167835074422	0.12724808738521
5	6044	60.295083161807	0.17709357042038
5	6070	60.472176732227	0.160831859711
5	6071	60.633008591938	1.2064837658756
5	6202	61.839492357814	1.9124436823978
5	6333	63.751936040212	3.3396625581087
5	6674	67.091598598321	0.71238276335011
5	6755	67.803981361671	0.69316390865028
5	6831	68.497145270321	0.24496736759855
5	6861	68.74211263792	2.2029213048819
5	7073	70.945033942802	5.0006293088072
5	7634	75.945663251609	0.41796337159556
5	7675	76.363626623205	0.37877081408032
5	7725	76.742397437285	0.83735046450154
5	7767	77.579747901787	0.29939462543832
5	7787	77.879142527225	0.55782283368032
5	7848	78.436965360905	1.6563999950498
5	8030	80.093365355955	0.57402683905906
5	8071	80.667392195014	0.43645338340742
5	8132	81.103845578421	1.4986087234038
5	8317	82.602454301825	0.63081576499479
5	8404	83.23327006682	0.76701802268976
5	8490	84.00028808951	0.32044393375055
5	8536	84.320732023261	3.0735256647249
5	8827	87.394257687986	1.6004800982432
5	8978	88.994737786229	0.78571905500128
5	9063	89.78045684123	1.6827530591843
5	9225	91.463209900414	0.085661293271079
5	9226	91.548871193685	2.958251984911
5	9501	94.507123178596	0.45624652685833
5	9553	94.963369705454	1.73095397945
5	9719	96.694323684904	1.9028061339611
5	9865	98.597129818865	0.72389327825572
5	9941	99.321023097121	0.5213391108869
5	9982	99.842362208008	0.2497418640352
5	10038	100.092104072043	0.027579200084848
5	10039	100.119683272128	1.3729099848399
5	10205	101.492593256968	0.28392545331783
5	10231	101.776518710286	0.56482040593653
5	10282	102.341339116223	0.069504825701929
5	10288	102.410843941925	2.1919721139289
5	10484	104.602816055854	5.0916301550693
5	11035	109.694446210923	2.8334995336328
5	11286	112.527945744556	3.5260912624288
5	11632	116.054037006985	0.69918990096539
5	11688	116.75322690795	1.6107305002588
5	11864	118.363957408209	1.2108028659259
5	11950	119.574760274135	0.92084387790351
5	12025	120.495604152039	1.2260207574069
5	12152	121.721624909446	1.4479989833428
5	12308	123.169623892789	0.65589331411704
5	12339	123.825517206906	0.1853968154171
5	12350	124.010914022323	3.2267499934701
5	12686	127.237664015793	0.3467574741214
5	12712	127.584421489914	0.55516512914858
5	12757	128.139586619063	0.74247793514677
5	12784	128.88206455421	0.3898982287357
5	12815	129.271962782946	0.44102640243262
5	12851	129.712989185379	1.435190526173
5	13036	131.148179711552	0.046755149518365
5	13047	131.19493486107	2.6975341017809
5	13279	133.892468962851	4.0836089113507
5	13680	137.976077874202	1.2420805721391
5	13801	139.218158446341	0.5822409230849
5	13847	139.800399369426	0.72863086825066
5	13898	140.529030237677	0.70118023749097
5	13999	141.230210475168	2.1582388852684
5	14190	143.388449360436	0.39088390774087
5	14226	143.779333268177	0.80661569040621
5	14312	144.585948958583	0.30076022185329
5	14327	144.886709180436	0.85247707889295
5	14419	145.739186259329	0.48921072461963
5	14450	146.228396983949	0.50076521863156
5	14511	146.729162202581	1.7838918995731
5	14687	148.513054102154	2.6111061090606
5	14957	151.124160211215	1.3346399633672
5	15064	152.458800174582	0.005559848382739
5	15065	152.464360022965	0.47676333125698
5	15096	152.941123354222	1.3037876236073
5	15232	154.244910977829	0.013102806067789
5	15233	154.258013783897	0.43967405442543
5	15254	154.697687838322	1.59654608776
5	15410	156.294233926082	0.23944220835307
5	15431	156.533676134435	0.31387383649509
5	15452	156.84754997093	0.44945995375832
5	15483	157.297009924688	0.87391368060988
5	15549	158.170923605298	2.1061986511535
5	15755	160.277122256451	0.025883039693845
5	15756	160.303005296145	0.45149735764825
5	15816	160.754502653793	1.0853072605304
5	15953	161.839809914323	0.69958167173829
5	16009	162.539391586061	0.49024458606667
5	16050	163.029636172128	1.458814554834
5	16206	164.488450726962	0.68731182974631
5	16262	165.175762556708	2.458953234254
5	16527	167.634715790962	0.53598247600904
5	16569	168.170698266971	1.7508171948512
5	16730	169.921515461822	0.43212520454637
5	16765	170.353640666368	0.53059720071409
5	16802	170.884237867082	0.800683182685
5	16887	171.684921049767	0.99653231967504
5	16978	172.681453369442	3.6086161241274
5	17390	176.290069493569	0.41841601826978
5	17426	176.708485511839	0.1196580349801
5	17437	176.828143546819	0.4807700816622
5	17543	177.308913628481	0.3757973645514
5	17579	177.684710993032	3.2823369430844
5	17979	180.967047936116	0.042696361358483
5	17981	181.009744297474	1.0413275226714
5	18052	182.051071820145	1.3409377218767
5	18153	183.392009542022	3.1664179141808
5	18379	186.558427456203	1.0715197789214
5	18510	187.629947235124	1.6268492602584
5	18676	189.256796495382	0.24160765347191
5	18707	189.498404148854	0.2605676327161
5	18718	189.75897178157	0.53914526077589
5	18774	190.298117042346	2.1136358012906
5	18995	192.411752843637	1.0323806290749
5	19116	193.444133472712	0.89770542171107
5	19197	194.341838894423	1.0831760170536
5	19293	195.425014911477	1.5425844752613
5	19474	196.967599386738	0.18690460141352
5	19480	197.154503988152	0.75959566489772
5	19576	197.91409965305	2.1341277771656
5	19777	200.048227430216	3.4511412381354
5	20108	203.499368668351	1.5051146448708
5	20274	205.004483313222	0.85555679289699
5	20395	205.860040106119	0.14381749864963
5	20401	206.003857604769	0.64787444522696
5	20502	206.651732049996	2.0319217463459
5	20703	208.683653796342	0.54669180685233
5	20744	209.230345603194	1.3814177839259
5	20890	210.61176338712	0.91374390912158
5	21015	211.525507296242	1.6023910756517
5	21187	213.127898371894	0.11269012700057
5	21203	213.240588498895	0.78382760674387
5	21264	214.024416105639	0.45982764709528
5	21317	214.484243752734	0.2495361892162
5	21356	214.73377994195	0.24309934699521
5	21382	214.976879288945	2.5066449127116
5	21613	217.483524201657	1.6461596830665
5	21774	219.129683884723	0.89669541254352
5	21865	220.026379297267	1.6005802010089
5	22001	221.626959498276	0.42501177435329
5	22027	222.051971272629	0.80864664092288
5	22123	222.860617913552	0.30622429021478
5	22149	223.166842203767	2.2551838808788
5	22365	225.422026084646	2.4524256370365
5	22571	227.874451721683	2.6470477784697
5	22806	230.521499500153	0.54427117610876
5	22843	231.065770676262	3.8001860933545
5	23179	234.865956769617	0.77694520226012
5	23274	235.642901971877	2.4976116793948
5	23476	238.140513651272	0.93762204706648
5	23582	239.078135698338	0.040833697762833
5	23588	239.118969396101	1.7501367971248
5	23764	240.869106193226	1.3198420010276
5	23859	242.188948194254	0.97700505886266
5	23955	243.165953253117	2.2669658223574
5	24222	245.432919075474	0.19444939517962
5	24233	245.627368470654	1.819113490068
5	24464	247.446481960722	0.89466955295561
5	24540	248.341151513678	0.7688490026619
5	24601	249.11000051634	0.67190670046511
5	24647	249.781907216805	0.38760345676262
5	24678	250.169510673568	0.79386908963993
5	24759	250.963379763208	0.50625938536679
5	24810	251.469639148575	1.2023761550254
5	24931	252.6720153036	0.3249537313517
5	24952	252.996969034952	0.28211249288776
5	24978	253.27908152784	2.7527554023826
5	25289	256.031836930223	0.20656565709359
5	25325	256.238402587317	0.62314102416667
5	25391	256.861543611484	0.11718925108497
5	25397	256.978732862569	1.9124973477991
5	25603	258.891230210368	0.32028688870673
5	25614	259.211517099075	0.2392314846322
5	25625	259.450748583707	0.010302934684522
5	25630	259.461051518392	0.00012359181449871
5	25631	259.461175110206	0.99252330012643
5	25743	260.453698410332	0.097498464854526
5	25749	260.551196875187	0.34980191140012
5	25775	260.900998786587	0.19251298024655
5	25791	261.093511766834	0.20737668435934
5	25816	261.300888451193	0.72331605320716
5	25868	262.0242045044	0.10013867286612
5	25869	262.124343177266	2.1201831323787
5	26090	264.244526309645	0.33373411715272
5	26120	264.578260426798	1.5361499183842
5	26312	266.114410345182	0.24197523575218
5	26328	266.356385580934	0.75464217972414
5	26389	267.111027760658	0.33631747386842
5	26435	267.447345234526	0.3199819688709
5	26465	267.767327203397	0.63754192707526
5	26517	268.404869130472	0.026738453737199
5	26518	268.431607584209	0.79739014047039
5	26594	269.228997724679	2.0379819610922
5	26785	271.266979685771	1.8650602367259
5	26976	273.132039922497	0.32218775757927
5	27007	273.454227680076	4.4662526192604
5	27453	277.920480299336	0.15689987179823
5	27474	278.077380171134	0.050102515669037
5	27475	278.127482686803	0.7040294485407
5	27526	278.831512135344	0.26411952917844
5	27566	279.095631664522	0.40811060070872
5	27608	279.503742265231	1.0308922230364
5	27709	280.534634488267	0.17637379924298
5	27740	280.71100828751	0.17610082593866
5	27761	280.887109113449	0.24755148222442
5	27762	281.134660595673	2.0413437140347
5	27933	283.176004309708	1.8110502536933
5	28139	284.987054563401	0.24513666474835
5	28165	285.232191228149	1.2742093919155
5	28316	286.506400620065	1.3538467038763
5	28412	287.860247323941	0.052861038647014
5	28413	287.913108362588	1.0584896060232
5	28503	288.971597968611	0.97623272143115
5	28590	289.947830690042	1.6038809522826
5	28731	291.551711642325	0.33724949101715
5	28757	291.888961133342	0.031746180982872
5	28758	291.920707314325	1.6754813073159
5	28889	293.596188621641	0.26081170662736
5	28935	293.857000328268	0.78937773080339
5	29040	294.646378059071	1.2195180078308
5	29182	295.865896066902	0.018438994158877
5	29183	295.884335061061	0.091635699010483
5	29199	295.975970760071	0.016241446300164
5	29200	295.992212206371	0.031067101346268
5	29206	296.023279307717	2.7339178204843
5	29442	298.757197128201	0.44182042862901
5	29483	299.19901755683	0.49525691422706
5	29514	299.694274471057	0.89106653240342
5	29620	300.58534100346	2.4152557840872
5	29826	303.000596787547	0.053635745580626
5	29837	303.054232533128	1.7118326941504
5	30018	304.766065227278	0.067918809415694
5	30024	304.833984036694	0.094717771103499
5	30044	304.928701807797	0.044475731206528
5	30051	304.973177539004	0.44354135653916
5	30107	305.416718895543	0.50277604162904
5	30168	305.919494937172	0.019167659521677
5	30173	305.938662596694	1.1039074314704
5	30280	307.042570028164	0.59788558768001
5	30331	307.640455615844	0.22068047985552
5	30347	307.8611360957	0.030838920761374
5	30348	307.891975016461	2.0896248526716
5	30583	309.981599869133	0.31519575205227
5	30622	310.296795621185	0.56631913077113
5	30701	310.863114751956	0.0025859150943617
5	30702	310.86570066705	0.96664094849313
5	30813	311.832341615543	0.56871238861799
5	30864	312.401054004161	0.34309154004145
5	30879	312.744145544202	0.88472957012078
5	30951	313.628875114323	0.95517338546873
5	31071	314.584048499792	4.8263468095534
5	31568	319.410395309345	3.0717489887161
5	31853	322.482144298061	0.57185179038465
5	31915	323.053996088446	0.59423388938181
5	31996	323.648229977828	0.45008709826316
5	32032	324.098317076091	0.23199490237619
5	32043	324.330311978467	2.0645713735437
5	32299	326.394883352011	0.55402421708695
5	32355	326.948907569098	0.66369278432386
5	32440	327.612600353422	0.58802036509311
5	32522	328.200620718515	1.3620390347451
5	32678	329.56265975326	0.70849939034418
5	32714	330.271159143604	1.403159592749
5	32845	331.674318736353	0.74598535669201
5	32891	332.420304093045	0.39109367735869
5	32957	332.811397770404	0.043355608523314
5	32968	332.854753378927	1.3293523486438
5	33074	334.184105727571	0.17962809698369
5	33095	334.363733824555	0.20529103023816
5	33111	334.569024854793	0.59825013983952
5	33197	335.167274994633	0.1416692819768
5	33213	335.30894427661	1.2309027641298
5	33299	336.53984704074	0.010021958443374
5	33300	336.549868999183	1.503223365769
5	33451	338.053092364952	0.4668742188541
5	33482	338.519966583806	1.5010455147374
5	33643	340.021012098543	0.010859676165024
5	33644	340.031871774708	0.69872017606092
5	33705	340.730591950769	1.8869188789945
5	33881	342.617510829764	3.1407024991495
5	34157	345.758213328914	0.27861237868042
5	34183	346.036825707594	0.40327806717674
5	34214	346.440103774771	1.1395194560612
5	34344	347.579623230832	0.6567345559506
5	34390	348.236357786783	1.1305356902375
5	34537	349.36689347702	1.3798114151468
5	34683	350.746704892167	2.1700439508944
5	34948	352.916748843061	1.950798699639
5	35090	354.8675475427	0.16672266433768
5	35116	355.034270207038	0.5352208710624
5	35171	355.5694910781	2.9317087017057
5	35423	358.501199779806	1.8883883439488
5	35599	360.389588123755	0.34777712436991
5	35655	360.737365248125	0.58801438490204
5	35736	361.325379633027	1.3340835296095
5	35927	362.659463162636	1.2578908976684
5	36048	363.917354060304	0.64538415495975
5	36104	364.562738215264	0.0084842546290175
5	36105	364.571222469893	0.18016445594759
5	36131	364.751386925841	0.025524417592573
5	36132	364.776911343434	1.7570876466968
5	36328	366.533998990131	2.8209473091173
5	36599	369.354946299248	0.77587206955744
5	36700	370.130818368805	0.10773884165227
5	36706	370.238557210457	0.4372227187989
5	36757	370.675779929256	1.0846140859443
5	36843	371.7603940152	1.8451455877055
5	37039	373.605539602905	0.33304037809726
5	37084	373.938579981002	0.032321639015923
5	37091	373.970901620018	0.22419704153153
5	37102	374.19509866155	0.070138426489858
5	37108	374.26523708804	0.49156918792564
5	37164	374.756806275966	0.98934869027264
5	37285	375.746154966239	2.6023613006628
5	37565	378.348516266902	1.0077031694496
5	37706	379.356219436352	0.84460796775324
5	37812	380.200827404105	1.4685330070279
5	37949	381.669360411133	2.4854822060331
5	38125	384.154842617166	0.58230126385313
5	38196	384.737143881019	1.2115488980681
5	38307	385.948692779087	1.9552318480034
5	38493	387.90392462709	0.69558305515487
5	38558	388.599507682245	0.48072097924622
5	38615	389.080228661491	0.70539554280374
5	38696	389.785624204295	3.3461597666097
5	39062	393.131783970905	0.24695068407643
5	39093	393.378734654981	1.5155008147767
5	39239	394.894235469758	0.0046744288649914
5	39240	394.898909898623	0.55508189360776
5	39331	395.453991792231	0.54100350710359
5	39387	395.994995299335	0.42479801400954
5	39428	396.419793313345	0.82868311712706
5	39524	397.248476430472	0.77475343487035
5	39624	398.023229865342	2.0920152077087

