file 3812 1612439761                                            
version 2
run non-monitoring-7-20210204-12:56:01-10876
attr configname non-monitoring
attr datetime 20210204-12:56:01
attr experiment non-monitoring
attr inifile aerocom.ini
attr iterationvars ""
attr iterationvarsf ""
attr measurement ""
attr network Aerocom
attr processid 10876
attr repetition 7
attr replication #7
attr resultdir results
attr runnumber 7
attr seedset 7
param **.t 1s
param **.k 1s
param **.nA 10
param **.nDL 10
param **.dataLink[*].s "70 byte"
param **.dataLink[*].X 5s
param **.dataLink[*].dimPoolMax 9000
param **.dataLink[*].dimPoolMin 9000
param **.dataLink[*].tDistribution "\"exponential\""
param **.aircraft[*].m 1s
param **.aircraft[*].linkSelector.DLMaxCapacity 0
param **.aircraft[*].linkSelector.trasmitting false
param **.operationMode 1

vector 0 Aerocom.aircraft[0].packetGenerator arrivalTime:vector ETV
attr "" ""
attr source computeArrivalTime
vector 1 Aerocom.aircraft[0].dataLink[0] serviceTime:vector ETV
attr "" ""
attr source computeServiceTime
vector 2 Aerocom.aircraft[0].dataLink[0] tDistribution:vector ETV
attr "" ""
attr source computeTDistribution
vector 3 Aerocom.aircraft[0].dataLink[1] serviceTime:vector ETV
attr "" ""
attr source computeServiceTime
vector 4 Aerocom.aircraft[0].dataLink[1] tDistribution:vector ETV
attr "" ""
attr source computeTDistribution
vector 5 Aerocom.aircraft[0].dataLink[2] serviceTime:vector ETV
attr "" ""
attr source computeServiceTime
vector 6 Aerocom.aircraft[0].dataLink[2] tDistribution:vector ETV
attr "" ""
attr source computeTDistribution
vector 7 Aerocom.aircraft[0].dataLink[3] serviceTime:vector ETV
attr "" ""
attr source computeServiceTime
vector 8 Aerocom.aircraft[0].dataLink[3] tDistribution:vector ETV
attr "" ""
attr source computeTDistribution
vector 9 Aerocom.aircraft[0].dataLink[4] serviceTime:vector ETV
attr "" ""
attr source computeServiceTime
vector 10 Aerocom.aircraft[0].dataLink[4] tDistribution:vector ETV
attr "" ""
attr source computeTDistribution
vector 11 Aerocom.aircraft[0].dataLink[5] serviceTime:vector ETV
attr "" ""
attr source computeServiceTime
vector 12 Aerocom.aircraft[0].dataLink[5] tDistribution:vector ETV
attr "" ""
attr source computeTDistribution
vector 13 Aerocom.aircraft[0].dataLink[6] serviceTime:vector ETV
attr "" ""
attr source computeServiceTime
vector 14 Aerocom.aircraft[0].dataLink[6] tDistribution:vector ETV
attr "" ""
attr source computeTDistribution
vector 15 Aerocom.aircraft[0].dataLink[7] serviceTime:vector ETV
attr "" ""
attr source computeServiceTime
vector 16 Aerocom.aircraft[0].dataLink[7] tDistribution:vector ETV
attr "" ""
attr source computeTDistribution
vector 17 Aerocom.aircraft[0].dataLink[8] serviceTime:vector ETV
attr "" ""
attr source computeServiceTime
vector 18 Aerocom.aircraft[0].dataLink[8] tDistribution:vector ETV
attr "" ""
attr source computeTDistribution
vector 19 Aerocom.aircraft[0].dataLink[9] serviceTime:vector ETV
attr "" ""
attr source computeServiceTime
vector 20 Aerocom.aircraft[0].dataLink[9] tDistribution:vector ETV
attr "" ""
attr source computeTDistribution
vector 21 Aerocom.aircraft[1].packetGenerator arrivalTime:vector ETV
attr "" ""
attr source computeArrivalTime
0	3261 22 0 0 0 0 1 0.049951959589 0.049951959589 0.049951959589 0.0024951982667811
1	3283 26 0 0 0 0 1 0.0077777777777778 0.0077777777777778 0.0077777777777778 6.0493827160494e-005
2	3309 24 0 0 0 0 1 0.72835555116933 0.72835555116933 0.72835555116933 0.53050180891917
3	3333 26 0 0 0 0 1 0.0077777777777778 0.0077777777777778 0.0077777777777778 6.0493827160494e-005
4	3359 22 0 0 0 0 1 1.105930358975 1.105930358975 1.105930358975 1.2230819589027
5	3381 26 0 0 0 0 1 0.0077777777777778 0.0077777777777778 0.0077777777777778 6.0493827160494e-005
6	3407 23 0 0 0 0 1 2.9367580349734 2.9367580349734 2.9367580349734 8.624547755981
7	3430 26 0 0 0 0 1 0.0077777777777778 0.0077777777777778 0.0077777777777778 6.0493827160494e-005
8	3456 24 0 0 0 0 1 0.20455303808899 0.20455303808899 0.20455303808899 0.041841945391438
9	3480 26 0 0 0 0 1 0.0077777777777778 0.0077777777777778 0.0077777777777778 6.0493827160494e-005
10	3506 23 0 0 0 0 1 1.450128101107 1.450128101107 1.450128101107 2.1028715096201
11	3529 27 0 0 0 0 1 0.0077777777777778 0.0077777777777778 0.0077777777777778 6.0493827160494e-005
12	3556 24 0 0 0 0 1 1.5217911374798 1.5217911374798 1.5217911374798 2.3158482661121
13	3580 27 0 0 0 0 1 0.0077777777777778 0.0077777777777778 0.0077777777777778 6.0493827160494e-005
14	3607 25 0 0 0 0 1 0.33183718078065 0.33183718078065 0.33183718078065 0.11011591454845
15	3632 27 0 0 0 0 1 0.0077777777777778 0.0077777777777778 0.0077777777777778 6.0493827160494e-005
16	3659 25 0 0 0 0 1 0.85310089525017 0.85310089525017 0.85310089525017 0.72778113747665
17	3684 27 0 0 0 0 1 0.0077777777777778 0.0077777777777778 0.0077777777777778 6.0493827160494e-005
18	3711 25 0 0 0 0 1 0.24980246685201 0.24980246685201 0.24980246685201 0.062401272445348
19	3736 27 0 0 0 0 1 0.0077777777777778 0.0077777777777778 0.0077777777777778 6.0493827160494e-005
20	3763 24 0 0 0 0 1 0.5832416431307 0.5832416431307 0.5832416431307 0.3401708142818
21	3787 23 0 0 0 0 1 1.605803874414 1.605803874414 1.605803874414 2.578606083083

