version 2
run non-monitoring-6-20210204-12:56:01-5552
attr configname non-monitoring
attr datetime 20210204-12:56:01
attr experiment non-monitoring
attr inifile aerocom.ini
attr iterationvars ""
attr iterationvarsf ""
attr measurement ""
attr network Aerocom
attr processid 5552
attr repetition 6
attr replication #6
attr resultdir results
attr runnumber 6
attr seedset 6
param **.t 1s
param **.k 1s
param **.nA 10
param **.nDL 10
param **.dataLink[*].s "70 byte"
param **.dataLink[*].X 5s
param **.dataLink[*].dimPoolMax 9000
param **.dataLink[*].dimPoolMin 9000
param **.dataLink[*].tDistribution "\"exponential\""
param **.aircraft[*].m 1s
param **.aircraft[*].linkSelector.DLMaxCapacity 0
param **.aircraft[*].linkSelector.trasmitting false
param **.operationMode 1

vector 0 Aerocom.aircraft[0].packetGenerator arrivalTime:vector ETV
attr "" ""
attr source computeArrivalTime
vector 1 Aerocom.aircraft[0].dataLink[0] serviceTime:vector ETV
attr "" ""
attr source computeServiceTime
vector 2 Aerocom.aircraft[0].dataLink[0] tDistribution:vector ETV
attr "" ""
attr source computeTDistribution
vector 3 Aerocom.aircraft[0].dataLink[1] serviceTime:vector ETV
attr "" ""
attr source computeServiceTime
vector 4 Aerocom.aircraft[0].dataLink[1] tDistribution:vector ETV
attr "" ""
attr source computeTDistribution
vector 5 Aerocom.aircraft[0].dataLink[2] serviceTime:vector ETV
attr "" ""
attr source computeServiceTime
vector 6 Aerocom.aircraft[0].dataLink[2] tDistribution:vector ETV
attr "" ""
attr source computeTDistribution
vector 7 Aerocom.aircraft[0].dataLink[3] serviceTime:vector ETV
attr "" ""
attr source computeServiceTime
vector 8 Aerocom.aircraft[0].dataLink[3] tDistribution:vector ETV
attr "" ""
attr source computeTDistribution
vector 9 Aerocom.aircraft[0].dataLink[4] serviceTime:vector ETV
attr "" ""
attr source computeServiceTime
vector 10 Aerocom.aircraft[0].dataLink[4] tDistribution:vector ETV
attr "" ""
attr source computeTDistribution
vector 11 Aerocom.aircraft[0].dataLink[5] serviceTime:vector ETV
attr "" ""
attr source computeServiceTime
vector 12 Aerocom.aircraft[0].dataLink[5] tDistribution:vector ETV
attr "" ""
attr source computeTDistribution
vector 13 Aerocom.aircraft[0].dataLink[6] serviceTime:vector ETV
attr "" ""
attr source computeServiceTime
vector 14 Aerocom.aircraft[0].dataLink[6] tDistribution:vector ETV
attr "" ""
attr source computeTDistribution
vector 15 Aerocom.aircraft[0].dataLink[7] serviceTime:vector ETV
attr "" ""
attr source computeServiceTime
vector 16 Aerocom.aircraft[0].dataLink[7] tDistribution:vector ETV
attr "" ""
attr source computeTDistribution
vector 17 Aerocom.aircraft[0].dataLink[8] serviceTime:vector ETV
attr "" ""
attr source computeServiceTime
vector 18 Aerocom.aircraft[0].dataLink[8] tDistribution:vector ETV
attr "" ""
attr source computeTDistribution
vector 19 Aerocom.aircraft[0].dataLink[9] serviceTime:vector ETV
attr "" ""
attr source computeServiceTime
vector 20 Aerocom.aircraft[0].dataLink[9] tDistribution:vector ETV
attr "" ""
attr source computeTDistribution
vector 21 Aerocom.aircraft[1].packetGenerator arrivalTime:vector ETV
attr "" ""
attr source computeArrivalTime
vector 22 Aerocom.aircraft[1].dataLink[0] serviceTime:vector ETV
attr "" ""
attr source computeServiceTime
vector 23 Aerocom.aircraft[1].dataLink[0] tDistribution:vector ETV
attr "" ""
attr source computeTDistribution
vector 24 Aerocom.aircraft[1].dataLink[1] serviceTime:vector ETV
attr "" ""
attr source computeServiceTime
vector 25 Aerocom.aircraft[1].dataLink[1] tDistribution:vector ETV
attr "" ""
attr source computeTDistribution
vector 26 Aerocom.aircraft[1].dataLink[2] serviceTime:vector ETV
attr "" ""
attr source computeServiceTime
vector 27 Aerocom.aircraft[1].dataLink[2] tDistribution:vector ETV
attr "" ""
attr source computeTDistribution
vector 28 Aerocom.aircraft[1].dataLink[3] serviceTime:vector ETV
attr "" ""
attr source computeServiceTime
vector 29 Aerocom.aircraft[1].dataLink[3] tDistribution:vector ETV
attr "" ""
attr source computeTDistribution
vector 30 Aerocom.aircraft[1].dataLink[4] serviceTime:vector ETV
attr "" ""
attr source computeServiceTime
vector 31 Aerocom.aircraft[1].dataLink[4] tDistribution:vector ETV
attr "" ""
attr source computeTDistribution
vector 32 Aerocom.aircraft[1].dataLink[5] serviceTime:vector ETV
attr "" ""
attr source computeServiceTime
vector 33 Aerocom.aircraft[1].dataLink[5] tDistribution:vector ETV
attr "" ""
attr source computeTDistribution
vector 34 Aerocom.aircraft[1].dataLink[6] serviceTime:vector ETV
attr "" ""
attr source computeServiceTime
vector 35 Aerocom.aircraft[1].dataLink[6] tDistribution:vector ETV
attr "" ""
attr source computeTDistribution
vector 36 Aerocom.aircraft[1].dataLink[7] serviceTime:vector ETV
attr "" ""
attr source computeServiceTime
vector 37 Aerocom.aircraft[1].dataLink[7] tDistribution:vector ETV
attr "" ""
attr source computeTDistribution
vector 38 Aerocom.aircraft[1].dataLink[8] serviceTime:vector ETV
attr "" ""
attr source computeServiceTime
vector 39 Aerocom.aircraft[1].dataLink[8] tDistribution:vector ETV
attr "" ""
attr source computeTDistribution
vector 40 Aerocom.aircraft[1].dataLink[9] serviceTime:vector ETV
attr "" ""
attr source computeServiceTime
vector 41 Aerocom.aircraft[1].dataLink[9] tDistribution:vector ETV
attr "" ""
attr source computeTDistribution
vector 42 Aerocom.aircraft[2].packetGenerator arrivalTime:vector ETV
attr "" ""
attr source computeArrivalTime
vector 43 Aerocom.aircraft[2].dataLink[0] serviceTime:vector ETV
attr "" ""
attr source computeServiceTime
vector 44 Aerocom.aircraft[2].dataLink[0] tDistribution:vector ETV
attr "" ""
attr source computeTDistribution
vector 45 Aerocom.aircraft[2].dataLink[1] serviceTime:vector ETV
attr "" ""
attr source computeServiceTime
vector 46 Aerocom.aircraft[2].dataLink[1] tDistribution:vector ETV
attr "" ""
attr source computeTDistribution
vector 47 Aerocom.aircraft[2].dataLink[2] serviceTime:vector ETV
attr "" ""
attr source computeServiceTime
vector 48 Aerocom.aircraft[2].dataLink[2] tDistribution:vector ETV
attr "" ""
attr source computeTDistribution
vector 49 Aerocom.aircraft[2].dataLink[3] serviceTime:vector ETV
attr "" ""
attr source computeServiceTime
vector 50 Aerocom.aircraft[2].dataLink[3] tDistribution:vector ETV
attr "" ""
attr source computeTDistribution
vector 51 Aerocom.aircraft[2].dataLink[4] serviceTime:vector ETV
attr "" ""
attr source computeServiceTime
vector 52 Aerocom.aircraft[2].dataLink[4] tDistribution:vector ETV
attr "" ""
attr source computeTDistribution
vector 53 Aerocom.aircraft[2].dataLink[5] serviceTime:vector ETV
attr "" ""
attr source computeServiceTime
vector 54 Aerocom.aircraft[2].dataLink[5] tDistribution:vector ETV
attr "" ""
attr source computeTDistribution
vector 55 Aerocom.aircraft[2].dataLink[6] serviceTime:vector ETV
attr "" ""
attr source computeServiceTime
vector 56 Aerocom.aircraft[2].dataLink[6] tDistribution:vector ETV
attr "" ""
attr source computeTDistribution
vector 57 Aerocom.aircraft[2].dataLink[7] serviceTime:vector ETV
attr "" ""
attr source computeServiceTime
vector 58 Aerocom.aircraft[2].dataLink[7] tDistribution:vector ETV
attr "" ""
attr source computeTDistribution
vector 59 Aerocom.aircraft[2].dataLink[8] serviceTime:vector ETV
attr "" ""
attr source computeServiceTime
vector 60 Aerocom.aircraft[2].dataLink[8] tDistribution:vector ETV
attr "" ""
attr source computeTDistribution
vector 61 Aerocom.aircraft[2].dataLink[9] serviceTime:vector ETV
attr "" ""
attr source computeServiceTime
vector 62 Aerocom.aircraft[2].dataLink[9] tDistribution:vector ETV
attr "" ""
attr source computeTDistribution
vector 63 Aerocom.aircraft[3].packetGenerator arrivalTime:vector ETV
attr "" ""
attr source computeArrivalTime
vector 64 Aerocom.aircraft[3].dataLink[0] serviceTime:vector ETV
attr "" ""
attr source computeServiceTime
vector 65 Aerocom.aircraft[3].dataLink[0] tDistribution:vector ETV
attr "" ""
attr source computeTDistribution
vector 66 Aerocom.aircraft[3].dataLink[1] serviceTime:vector ETV
attr "" ""
attr source computeServiceTime
vector 67 Aerocom.aircraft[3].dataLink[1] tDistribution:vector ETV
attr "" ""
attr source computeTDistribution
vector 68 Aerocom.aircraft[3].dataLink[2] serviceTime:vector ETV
attr "" ""
attr source computeServiceTime
vector 69 Aerocom.aircraft[3].dataLink[2] tDistribution:vector ETV
attr "" ""
attr source computeTDistribution
vector 70 Aerocom.aircraft[3].dataLink[3] serviceTime:vector ETV
attr "" ""
attr source computeServiceTime
vector 71 Aerocom.aircraft[3].dataLink[3] tDistribution:vector ETV
attr "" ""
attr source computeTDistribution
vector 72 Aerocom.aircraft[3].dataLink[4] serviceTime:vector ETV
attr "" ""
attr source computeServiceTime
vector 73 Aerocom.aircraft[3].dataLink[4] tDistribution:vector ETV
attr "" ""
attr source computeTDistribution
vector 74 Aerocom.aircraft[3].dataLink[5] serviceTime:vector ETV
attr "" ""
attr source computeServiceTime
vector 75 Aerocom.aircraft[3].dataLink[5] tDistribution:vector ETV
attr "" ""
attr source computeTDistribution
vector 76 Aerocom.aircraft[3].dataLink[6] serviceTime:vector ETV
attr "" ""
attr source computeServiceTime
vector 77 Aerocom.aircraft[3].dataLink[6] tDistribution:vector ETV
attr "" ""
attr source computeTDistribution
vector 78 Aerocom.aircraft[3].dataLink[7] serviceTime:vector ETV
attr "" ""
attr source computeServiceTime
vector 79 Aerocom.aircraft[3].dataLink[7] tDistribution:vector ETV
attr "" ""
attr source computeTDistribution
vector 80 Aerocom.aircraft[3].dataLink[8] serviceTime:vector ETV
attr "" ""
attr source computeServiceTime
vector 81 Aerocom.aircraft[3].dataLink[8] tDistribution:vector ETV
attr "" ""
attr source computeTDistribution
vector 82 Aerocom.aircraft[3].dataLink[9] serviceTime:vector ETV
attr "" ""
attr source computeServiceTime
vector 83 Aerocom.aircraft[3].dataLink[9] tDistribution:vector ETV
attr "" ""
attr source computeTDistribution
vector 84 Aerocom.aircraft[4].packetGenerator arrivalTime:vector ETV
attr "" ""
attr source computeArrivalTime
vector 85 Aerocom.aircraft[4].dataLink[0] serviceTime:vector ETV
attr "" ""
attr source computeServiceTime
vector 86 Aerocom.aircraft[4].dataLink[0] tDistribution:vector ETV
attr "" ""
attr source computeTDistribution
vector 87 Aerocom.aircraft[4].dataLink[1] serviceTime:vector ETV
attr "" ""
attr source computeServiceTime
vector 88 Aerocom.aircraft[4].dataLink[1] tDistribution:vector ETV
attr "" ""
attr source computeTDistribution
vector 89 Aerocom.aircraft[4].dataLink[2] serviceTime:vector ETV
attr "" ""
attr source computeServiceTime
vector 90 Aerocom.aircraft[4].dataLink[2] tDistribution:vector ETV
attr "" ""
attr source computeTDistribution
vector 91 Aerocom.aircraft[4].dataLink[3] serviceTime:vector ETV
attr "" ""
attr source computeServiceTime
vector 92 Aerocom.aircraft[4].dataLink[3] tDistribution:vector ETV
attr "" ""
attr source computeTDistribution
vector 93 Aerocom.aircraft[4].dataLink[4] serviceTime:vector ETV
attr "" ""
attr source computeServiceTime
vector 94 Aerocom.aircraft[4].dataLink[4] tDistribution:vector ETV
attr "" ""
attr source computeTDistribution
vector 95 Aerocom.aircraft[4].dataLink[5] serviceTime:vector ETV
attr "" ""
attr source computeServiceTime
vector 96 Aerocom.aircraft[4].dataLink[5] tDistribution:vector ETV
attr "" ""
attr source computeTDistribution
vector 97 Aerocom.aircraft[4].dataLink[6] serviceTime:vector ETV
attr "" ""
attr source computeServiceTime
vector 98 Aerocom.aircraft[4].dataLink[6] tDistribution:vector ETV
attr "" ""
attr source computeTDistribution
vector 99 Aerocom.aircraft[4].dataLink[7] serviceTime:vector ETV
attr "" ""
attr source computeServiceTime
vector 100 Aerocom.aircraft[4].dataLink[7] tDistribution:vector ETV
attr "" ""
attr source computeTDistribution
vector 101 Aerocom.aircraft[4].dataLink[8] serviceTime:vector ETV
attr "" ""
attr source computeServiceTime
vector 102 Aerocom.aircraft[4].dataLink[8] tDistribution:vector ETV
attr "" ""
attr source computeTDistribution
vector 103 Aerocom.aircraft[4].dataLink[9] serviceTime:vector ETV
attr "" ""
attr source computeServiceTime
vector 104 Aerocom.aircraft[4].dataLink[9] tDistribution:vector ETV
attr "" ""
attr source computeTDistribution
vector 105 Aerocom.aircraft[5].packetGenerator arrivalTime:vector ETV
attr "" ""
attr source computeArrivalTime
vector 106 Aerocom.aircraft[5].dataLink[0] serviceTime:vector ETV
attr "" ""
attr source computeServiceTime
vector 107 Aerocom.aircraft[5].dataLink[0] tDistribution:vector ETV
attr "" ""
attr source computeTDistribution
vector 108 Aerocom.aircraft[5].dataLink[1] serviceTime:vector ETV
attr "" ""
attr source computeServiceTime
vector 109 Aerocom.aircraft[5].dataLink[1] tDistribution:vector ETV
attr "" ""
attr source computeTDistribution
vector 110 Aerocom.aircraft[5].dataLink[2] serviceTime:vector ETV
attr "" ""
attr source computeServiceTime
vector 111 Aerocom.aircraft[5].dataLink[2] tDistribution:vector ETV
attr "" ""
attr source computeTDistribution
vector 112 Aerocom.aircraft[5].dataLink[3] serviceTime:vector ETV
attr "" ""
attr source computeServiceTime
vector 113 Aerocom.aircraft[5].dataLink[3] tDistribution:vector ETV
attr "" ""
attr source computeTDistribution
vector 114 Aerocom.aircraft[5].dataLink[4] serviceTime:vector ETV
attr "" ""
attr source computeServiceTime
vector 115 Aerocom.aircraft[5].dataLink[4] tDistribution:vector ETV
attr "" ""
attr source computeTDistribution
vector 116 Aerocom.aircraft[5].dataLink[5] serviceTime:vector ETV
attr "" ""
attr source computeServiceTime
vector 117 Aerocom.aircraft[5].dataLink[5] tDistribution:vector ETV
attr "" ""
attr source computeTDistribution
vector 118 Aerocom.aircraft[5].dataLink[6] serviceTime:vector ETV
attr "" ""
attr source computeServiceTime
vector 119 Aerocom.aircraft[5].dataLink[6] tDistribution:vector ETV
attr "" ""
attr source computeTDistribution
vector 120 Aerocom.aircraft[5].dataLink[7] serviceTime:vector ETV
attr "" ""
attr source computeServiceTime
vector 121 Aerocom.aircraft[5].dataLink[7] tDistribution:vector ETV
attr "" ""
attr source computeTDistribution
vector 122 Aerocom.aircraft[5].dataLink[8] serviceTime:vector ETV
attr "" ""
attr source computeServiceTime
vector 123 Aerocom.aircraft[5].dataLink[8] tDistribution:vector ETV
attr "" ""
attr source computeTDistribution
vector 124 Aerocom.aircraft[5].dataLink[9] serviceTime:vector ETV
attr "" ""
attr source computeServiceTime
vector 125 Aerocom.aircraft[5].dataLink[9] tDistribution:vector ETV
attr "" ""
attr source computeTDistribution
vector 126 Aerocom.aircraft[6].packetGenerator arrivalTime:vector ETV
attr "" ""
attr source computeArrivalTime
vector 127 Aerocom.aircraft[6].dataLink[0] serviceTime:vector ETV
attr "" ""
attr source computeServiceTime
vector 128 Aerocom.aircraft[6].dataLink[0] tDistribution:vector ETV
attr "" ""
attr source computeTDistribution
vector 129 Aerocom.aircraft[6].dataLink[1] serviceTime:vector ETV
attr "" ""
attr source computeServiceTime
vector 130 Aerocom.aircraft[6].dataLink[1] tDistribution:vector ETV
attr "" ""
attr source computeTDistribution
vector 131 Aerocom.aircraft[6].dataLink[2] serviceTime:vector ETV
attr "" ""
attr source computeServiceTime
vector 132 Aerocom.aircraft[6].dataLink[2] tDistribution:vector ETV
attr "" ""
attr source computeTDistribution
vector 133 Aerocom.aircraft[6].dataLink[3] serviceTime:vector ETV
attr "" ""
attr source computeServiceTime
vector 134 Aerocom.aircraft[6].dataLink[3] tDistribution:vector ETV
attr "" ""
attr source computeTDistribution
vector 135 Aerocom.aircraft[6].dataLink[4] serviceTime:vector ETV
attr "" ""
attr source computeServiceTime
vector 136 Aerocom.aircraft[6].dataLink[4] tDistribution:vector ETV
attr "" ""
attr source computeTDistribution
vector 137 Aerocom.aircraft[6].dataLink[5] serviceTime:vector ETV
attr "" ""
attr source computeServiceTime
vector 138 Aerocom.aircraft[6].dataLink[5] tDistribution:vector ETV
attr "" ""
attr source computeTDistribution
vector 139 Aerocom.aircraft[6].dataLink[6] serviceTime:vector ETV
attr "" ""
attr source computeServiceTime
vector 140 Aerocom.aircraft[6].dataLink[6] tDistribution:vector ETV
attr "" ""
attr source computeTDistribution
vector 141 Aerocom.aircraft[6].dataLink[7] serviceTime:vector ETV
attr "" ""
attr source computeServiceTime
vector 142 Aerocom.aircraft[6].dataLink[7] tDistribution:vector ETV
attr "" ""
attr source computeTDistribution
vector 143 Aerocom.aircraft[6].dataLink[8] serviceTime:vector ETV
attr "" ""
attr source computeServiceTime
vector 144 Aerocom.aircraft[6].dataLink[8] tDistribution:vector ETV
attr "" ""
attr source computeTDistribution
vector 145 Aerocom.aircraft[6].dataLink[9] serviceTime:vector ETV
attr "" ""
attr source computeServiceTime
vector 146 Aerocom.aircraft[6].dataLink[9] tDistribution:vector ETV
attr "" ""
attr source computeTDistribution
vector 147 Aerocom.aircraft[7].packetGenerator arrivalTime:vector ETV
attr "" ""
attr source computeArrivalTime
vector 148 Aerocom.aircraft[7].dataLink[0] serviceTime:vector ETV
attr "" ""
attr source computeServiceTime
vector 149 Aerocom.aircraft[7].dataLink[0] tDistribution:vector ETV
attr "" ""
attr source computeTDistribution
vector 150 Aerocom.aircraft[7].dataLink[1] serviceTime:vector ETV
attr "" ""
attr source computeServiceTime
vector 151 Aerocom.aircraft[7].dataLink[1] tDistribution:vector ETV
attr "" ""
attr source computeTDistribution
vector 152 Aerocom.aircraft[7].dataLink[2] serviceTime:vector ETV
attr "" ""
attr source computeServiceTime
vector 153 Aerocom.aircraft[7].dataLink[2] tDistribution:vector ETV
attr "" ""
attr source computeTDistribution
vector 154 Aerocom.aircraft[7].dataLink[3] serviceTime:vector ETV
attr "" ""
attr source computeServiceTime
vector 155 Aerocom.aircraft[7].dataLink[3] tDistribution:vector ETV
attr "" ""
attr source computeTDistribution
vector 156 Aerocom.aircraft[7].dataLink[4] serviceTime:vector ETV
attr "" ""
attr source computeServiceTime
vector 157 Aerocom.aircraft[7].dataLink[4] tDistribution:vector ETV
attr "" ""
attr source computeTDistribution
vector 158 Aerocom.aircraft[7].dataLink[5] serviceTime:vector ETV
attr "" ""
attr source computeServiceTime
vector 159 Aerocom.aircraft[7].dataLink[5] tDistribution:vector ETV
attr "" ""
attr source computeTDistribution
vector 160 Aerocom.aircraft[7].dataLink[6] serviceTime:vector ETV
attr "" ""
attr source computeServiceTime
vector 161 Aerocom.aircraft[7].dataLink[6] tDistribution:vector ETV
attr "" ""
attr source computeTDistribution
vector 162 Aerocom.aircraft[7].dataLink[7] serviceTime:vector ETV
attr "" ""
attr source computeServiceTime
vector 163 Aerocom.aircraft[7].dataLink[7] tDistribution:vector ETV
attr "" ""
attr source computeTDistribution
vector 164 Aerocom.aircraft[7].dataLink[8] serviceTime:vector ETV
attr "" ""
attr source computeServiceTime
vector 165 Aerocom.aircraft[7].dataLink[8] tDistribution:vector ETV
attr "" ""
attr source computeTDistribution
vector 166 Aerocom.aircraft[7].dataLink[9] serviceTime:vector ETV
attr "" ""
attr source computeServiceTime
vector 167 Aerocom.aircraft[7].dataLink[9] tDistribution:vector ETV
attr "" ""
attr source computeTDistribution
vector 168 Aerocom.aircraft[8].packetGenerator arrivalTime:vector ETV
attr "" ""
attr source computeArrivalTime
vector 169 Aerocom.aircraft[8].dataLink[0] serviceTime:vector ETV
attr "" ""
attr source computeServiceTime
vector 170 Aerocom.aircraft[8].dataLink[0] tDistribution:vector ETV
attr "" ""
attr source computeTDistribution
vector 171 Aerocom.aircraft[8].dataLink[1] serviceTime:vector ETV
attr "" ""
attr source computeServiceTime
vector 172 Aerocom.aircraft[8].dataLink[1] tDistribution:vector ETV
attr "" ""
attr source computeTDistribution
vector 173 Aerocom.aircraft[8].dataLink[2] serviceTime:vector ETV
attr "" ""
attr source computeServiceTime
vector 174 Aerocom.aircraft[8].dataLink[2] tDistribution:vector ETV
attr "" ""
attr source computeTDistribution
vector 175 Aerocom.aircraft[8].dataLink[3] serviceTime:vector ETV
attr "" ""
attr source computeServiceTime
vector 176 Aerocom.aircraft[8].dataLink[3] tDistribution:vector ETV
attr "" ""
attr source computeTDistribution
vector 177 Aerocom.aircraft[8].dataLink[4] serviceTime:vector ETV
attr "" ""
attr source computeServiceTime
vector 178 Aerocom.aircraft[8].dataLink[4] tDistribution:vector ETV
attr "" ""
attr source computeTDistribution
vector 179 Aerocom.aircraft[8].dataLink[5] serviceTime:vector ETV
attr "" ""
attr source computeServiceTime
vector 180 Aerocom.aircraft[8].dataLink[5] tDistribution:vector ETV
attr "" ""
attr source computeTDistribution
vector 181 Aerocom.aircraft[8].dataLink[6] serviceTime:vector ETV
attr "" ""
attr source computeServiceTime
vector 182 Aerocom.aircraft[8].dataLink[6] tDistribution:vector ETV
attr "" ""
attr source computeTDistribution
vector 183 Aerocom.aircraft[8].dataLink[7] serviceTime:vector ETV
attr "" ""
attr source computeServiceTime
vector 184 Aerocom.aircraft[8].dataLink[7] tDistribution:vector ETV
attr "" ""
attr source computeTDistribution
vector 185 Aerocom.aircraft[8].dataLink[8] serviceTime:vector ETV
attr "" ""
attr source computeServiceTime
vector 186 Aerocom.aircraft[8].dataLink[8] tDistribution:vector ETV
attr "" ""
attr source computeTDistribution
vector 187 Aerocom.aircraft[8].dataLink[9] serviceTime:vector ETV
attr "" ""
attr source computeServiceTime
vector 188 Aerocom.aircraft[8].dataLink[9] tDistribution:vector ETV
attr "" ""
attr source computeTDistribution
vector 189 Aerocom.aircraft[9].packetGenerator arrivalTime:vector ETV
attr "" ""
attr source computeArrivalTime
vector 190 Aerocom.aircraft[9].dataLink[0] serviceTime:vector ETV
attr "" ""
attr source computeServiceTime
vector 191 Aerocom.aircraft[9].dataLink[0] tDistribution:vector ETV
attr "" ""
attr source computeTDistribution
vector 192 Aerocom.aircraft[9].dataLink[1] serviceTime:vector ETV
attr "" ""
attr source computeServiceTime
vector 193 Aerocom.aircraft[9].dataLink[1] tDistribution:vector ETV
attr "" ""
attr source computeTDistribution
vector 194 Aerocom.aircraft[9].dataLink[2] serviceTime:vector ETV
attr "" ""
attr source computeServiceTime
vector 195 Aerocom.aircraft[9].dataLink[2] tDistribution:vector ETV
attr "" ""
attr source computeTDistribution
vector 196 Aerocom.aircraft[9].dataLink[3] serviceTime:vector ETV
attr "" ""
attr source computeServiceTime
vector 197 Aerocom.aircraft[9].dataLink[3] tDistribution:vector ETV
attr "" ""
attr source computeTDistribution
vector 198 Aerocom.aircraft[9].dataLink[4] serviceTime:vector ETV
attr "" ""
attr source computeServiceTime
vector 199 Aerocom.aircraft[9].dataLink[4] tDistribution:vector ETV
attr "" ""
attr source computeTDistribution
vector 200 Aerocom.aircraft[9].dataLink[5] serviceTime:vector ETV
attr "" ""
attr source computeServiceTime
vector 201 Aerocom.aircraft[9].dataLink[5] tDistribution:vector ETV
attr "" ""
attr source computeTDistribution
vector 202 Aerocom.aircraft[9].dataLink[6] serviceTime:vector ETV
attr "" ""
attr source computeServiceTime
vector 203 Aerocom.aircraft[9].dataLink[6] tDistribution:vector ETV
attr "" ""
attr source computeTDistribution
vector 204 Aerocom.aircraft[9].dataLink[7] serviceTime:vector ETV
attr "" ""
attr source computeServiceTime
vector 205 Aerocom.aircraft[9].dataLink[7] tDistribution:vector ETV
attr "" ""
attr source computeTDistribution
vector 206 Aerocom.aircraft[9].dataLink[8] serviceTime:vector ETV
attr "" ""
attr source computeServiceTime
vector 207 Aerocom.aircraft[9].dataLink[8] tDistribution:vector ETV
attr "" ""
attr source computeTDistribution
vector 208 Aerocom.aircraft[9].dataLink[9] serviceTime:vector ETV
attr "" ""
attr source computeServiceTime
vector 209 Aerocom.aircraft[9].dataLink[9] tDistribution:vector ETV
attr "" ""
attr source computeTDistribution
vector 210 Aerocom.aircraft[1].dataLink[0] queueLength:vector ETV
attr "" ""
attr source computeQueueLength
vector 211 Aerocom.aircraft[1].dataLink[0] waitingTime:vector ETV
attr "" ""
attr source computeWaitingTime
vector 212 Aerocom.aircraft[1].dataLink[0] responseTime:vector ETV
attr "" ""
attr source computeResponseTime
vector 213 Aerocom.aircraft[6].dataLink[0] queueLength:vector ETV
attr "" ""
attr source computeQueueLength
vector 214 Aerocom.aircraft[6].dataLink[0] waitingTime:vector ETV
attr "" ""
attr source computeWaitingTime
vector 215 Aerocom.aircraft[6].dataLink[0] responseTime:vector ETV
attr "" ""
attr source computeResponseTime
vector 216 Aerocom.aircraft[9].dataLink[0] queueLength:vector ETV
attr "" ""
attr source computeQueueLength
vector 217 Aerocom.aircraft[9].dataLink[0] waitingTime:vector ETV
attr "" ""
attr source computeWaitingTime
vector 218 Aerocom.aircraft[9].dataLink[0] responseTime:vector ETV
attr "" ""
attr source computeResponseTime
vector 219 Aerocom.aircraft[5].dataLink[0] queueLength:vector ETV
attr "" ""
attr source computeQueueLength
vector 220 Aerocom.aircraft[5].dataLink[0] waitingTime:vector ETV
attr "" ""
attr source computeWaitingTime
vector 221 Aerocom.aircraft[5].dataLink[0] responseTime:vector ETV
attr "" ""
attr source computeResponseTime
vector 222 Aerocom.aircraft[3].dataLink[0] queueLength:vector ETV
attr "" ""
attr source computeQueueLength
vector 223 Aerocom.aircraft[3].dataLink[0] waitingTime:vector ETV
attr "" ""
attr source computeWaitingTime
vector 224 Aerocom.aircraft[3].dataLink[0] responseTime:vector ETV
attr "" ""
attr source computeResponseTime
vector 225 Aerocom.aircraft[2].dataLink[0] queueLength:vector ETV
attr "" ""
attr source computeQueueLength
vector 226 Aerocom.aircraft[2].dataLink[0] waitingTime:vector ETV
attr "" ""
attr source computeWaitingTime
vector 227 Aerocom.aircraft[2].dataLink[0] responseTime:vector ETV
attr "" ""
attr source computeResponseTime
vector 228 Aerocom.aircraft[0].dataLink[0] queueLength:vector ETV
attr "" ""
attr source computeQueueLength
vector 229 Aerocom.aircraft[0].dataLink[0] waitingTime:vector ETV
attr "" ""
attr source computeWaitingTime
vector 230 Aerocom.aircraft[0].dataLink[0] responseTime:vector ETV
attr "" ""
attr source computeResponseTime
vector 231 Aerocom.aircraft[8].dataLink[0] queueLength:vector ETV
attr "" ""
attr source computeQueueLength
vector 232 Aerocom.aircraft[8].dataLink[0] waitingTime:vector ETV
attr "" ""
attr source computeWaitingTime
vector 233 Aerocom.aircraft[8].dataLink[0] responseTime:vector ETV
attr "" ""
attr source computeResponseTime
vector 234 Aerocom.aircraft[4].dataLink[0] queueLength:vector ETV
attr "" ""
attr source computeQueueLength
vector 235 Aerocom.aircraft[4].dataLink[0] waitingTime:vector ETV
attr "" ""
attr source computeWaitingTime
vector 236 Aerocom.aircraft[4].dataLink[0] responseTime:vector ETV
attr "" ""
attr source computeResponseTime
vector 237 Aerocom.aircraft[7].dataLink[0] queueLength:vector ETV
attr "" ""
attr source computeQueueLength
vector 238 Aerocom.aircraft[7].dataLink[0] waitingTime:vector ETV
attr "" ""
attr source computeWaitingTime
vector 239 Aerocom.aircraft[7].dataLink[0] responseTime:vector ETV
attr "" ""
attr source computeResponseTime
0	0	0	1.05089196372
0	245	1.05089196372	1.00983005491
0	375	2.06072201863	0.021026630664
0	381	2.081748649294	0.340538116381
0	437	2.422286765675	1.161456855311
0	601	3.583743620986	0.736031964939
0	682	4.319775585925	0.219925339353
0	712	4.539700925278	2.984897137267
0	1225	7.524598062545	1.630861531587
0	1470	9.155459594132	0.063401282339
0	1479	9.218860876471	0.110948717981
0	1502	9.329809594452	0.663572884323
0	1606	9.993382478775	2.727309003658
0	2007	12.720691482433	0.218056499342
0	2035	12.938747981775	1.178137648135
0	2195	14.11688562991	2.366577243464
0	2519	16.483462873374	1.364067589809
0	2739	17.847530463183	0.432713124264
0	2818	18.280243587447	0.628013141265
0	2921	18.908256728712	0.010339565575
0	2929	18.918596294287	1.627267079018
0	3164	20.545863373305	0.270792077285
0	3233	20.81665545059	0.168511752154
0	3262	20.985167202744	1.60181749917
0	3495	22.586984701914	2.018107397771
0	3793	24.605092099685	1.375595382675
0	3977	25.98068748236	0.861584030372
0	4116	26.842271512732	0.041307515063
0	4135	26.883579027795	1.674632606614
0	4391	28.558211634409	2.134805845151
0	4697	30.69301747956	0.414927977889
0	4748	31.107945457449	0.75204651945
0	4838	31.859991976899	0.144635201321
0	4862	32.00462717822	0.120867741728
0	4886	32.125494919948	1.177070209504
0	5059	33.302565129452	0.756171365524
0	5178	34.058736494976	0.087887176432
0	5196	34.146623671408	0.562484045166
0	5273	34.709107716574	0.774446885588
0	5371	35.483554602162	0.407196357794
0	5433	35.890750959956	2.254253652915
0	5747	38.145004612871	0.041812157696
0	5763	38.186816770567	1.597539450924
0	6019	39.784356221491	0.483068176368
0	6109	40.267424397859	0.20907670184
0	6142	40.476501099699	0.338470153101
0	6191	40.8149712528	0.643508129198
0	6284	41.458479381998	0.700067246856
0	6369	42.158546628854	0.127161304333
0	6384	42.285707933187	1.417970217521
0	6587	43.703678150708	1.204003042344
0	6775	44.907681193052	0.257761819977
0	6825	45.165443013029	2.701353062701
0	7264	47.86679607573	2.107917313717
0	7607	49.974713389447	0.455567709455
0	7678	50.430281098902	1.120601205851
0	7833	51.550882304753	1.811378554477
0	8083	53.36226085923	1.830986139176
0	8337	55.193246998406	1.088313659795
0	8487	56.281560658201	1.219184758994
0	8702	57.500745417195	1.263408629698
0	8886	58.764154046893	0.041382404904
0	8895	58.805536451797	1.001666034205
0	9056	59.807202486002	0.480806519924
1	0	0	0.0077777777777778
1	247	1.05089196372	0.0077777777777778
1	377	2.06072201863	0.0077777777777778
1	383	2.081748649294	0.0077777777777778
1	439	2.422286765675	0.0077777777777778
1	603	3.583743620986	0.0077777777777778
1	684	4.319775585925	0.0077777777777778
1	714	4.539700925278	0.0077777777777778
1	1227	7.524598062545	0.0077777777777778
1	1472	9.155459594132	0.0077777777777778
1	1481	9.218860876471	0.0077777777777778
1	1504	9.329809594452	0.0077777777777778
1	1608	9.993382478775	0.0077777777777778
1	2009	12.720691482433	0.0077777777777778
1	2037	12.938747981775	0.0077777777777778
1	2197	14.11688562991	0.0077777777777778
1	2521	16.483462873374	0.0077777777777778
1	2741	17.847530463183	0.0077777777777778
1	2820	18.280243587447	0.0077777777777778
1	2923	18.908256728712	0.0077777777777778
1	2931	18.918596294287	0.0077777777777778
1	3166	20.545863373305	0.0077777777777778
1	3235	20.81665545059	0.0077777777777778
1	3264	20.985167202744	0.0077777777777778
1	3497	22.586984701914	0.0077777777777778
1	3795	24.605092099685	0.0077777777777778
1	3979	25.98068748236	0.0077777777777778
1	4118	26.842271512732	0.0077777777777778
1	4137	26.883579027795	0.0077777777777778
1	4393	28.558211634409	0.0077777777777778
1	4699	30.69301747956	0.0077777777777778
1	4750	31.107945457449	0.0077777777777778
1	4840	31.859991976899	0.0077777777777778
1	4864	32.00462717822	0.0077777777777778
1	4888	32.125494919948	0.0077777777777778
1	5061	33.302565129452	0.0077777777777778
1	5180	34.058736494976	0.0077777777777778
1	5198	34.146623671408	0.0077777777777778
1	5275	34.709107716574	0.0077777777777778
1	5373	35.483554602162	0.0077777777777778
1	5435	35.890750959956	0.0077777777777778
1	5749	38.145004612871	0.0077777777777778
1	5765	38.186816770567	0.0077777777777778
1	6021	39.784356221491	0.0077777777777778
1	6111	40.267424397859	0.0077777777777778
1	6144	40.476501099699	0.0077777777777778
1	6193	40.8149712528	0.0077777777777778
1	6286	41.458479381998	0.0077777777777778
1	6371	42.158546628854	0.0077777777777778
1	6386	42.285707933187	0.0077777777777778
1	6589	43.703678150708	0.0077777777777778
1	6777	44.907681193052	0.0077777777777778
1	6827	45.165443013029	0.0077777777777778
1	7266	47.86679607573	0.0077777777777778
1	7609	49.974713389447	0.0077777777777778
1	7680	50.430281098902	0.0077777777777778
1	7835	51.550882304753	0.0077777777777778
1	8085	53.36226085923	0.0077777777777778
1	8339	55.193246998406	0.0077777777777778
1	8489	56.281560658201	0.0077777777777778
1	8704	57.500745417195	0.0077777777777778
1	8888	58.764154046893	0.0077777777777778
1	8897	58.805536451797	0.0077777777777778
1	9058	59.807202486002	0.0077777777777778
2	0	0	0.88704944402534
2	215	0.887049444025	0.3341100271261
2	261	1.221159471151	3.8836106049311
2	887	5.104770076082	0.91212885494347
2	1027	6.016898931025	0.19400678994721
2	1054	6.210905720972	0.048649478082174
2	1057	6.259555199054	0.38841026995826
2	1097	6.647965469012	0.049493432415434
2	1104	6.697458901427	1.1377316051377
2	1262	7.835190506565	2.5813673668773
2	1679	10.416557873442	1.3293882836093
2	1863	11.745946157051	0.98162557947148
2	2015	12.727571736522	1.3176505512651
2	2185	14.045222287787	0.043025006353074
2	2190	14.08824729414	1.3150528205251
2	2365	15.403300114665	0.45743773871257
2	2453	15.860737853378	0.27956237873017
2	2480	16.140300232108	1.3747901694022
2	2673	17.51509040151	1.491387542842
2	2956	19.006477944352	1.9708438553825
2	3260	20.977321799735	0.26440339825132
2	3295	21.241725197986	0.84606480011512
2	3421	22.087789998101	0.16750868228332
2	3443	22.255298680384	0.6761875628312
2	3549	22.931486243215	0.53745238201389
2	3635	23.468938625229	1.2375229950771
2	3809	24.706461620306	0.74576645884559
2	3912	25.452228079152	8.9074261046566e-005
2	3913	25.452317153413	0.53033966596896
2	3981	25.982656819382	1.5735734782854
2	4260	27.556230297667	1.111530637521
2	4409	28.667760935188	0.60989432113585
2	4499	29.277655256324	2.2203743245341
2	4795	31.498029580858	1.0747000497821
2	4944	32.57272963064	0.26613410244674
2	4992	32.838863733087	0.59982100736776
2	5086	33.438684740455	0.0050211138936615
2	5089	33.443705854349	0.72248503327859
2	5202	34.166190887628	2.7447182886016
2	5578	36.91090917623	1.8214263567086
2	5863	38.732335532939	0.63233885876276
2	5959	39.364674391702	0.012867134319603
2	5960	39.377541526022	0.78004665084153
2	6087	40.157588176864	0.11352369104275
2	6113	40.271111867907	7.5118529737007
2	7245	47.782964841608	0.11855910033615
2	7278	47.901523941944	0.022904580448303
2	7286	47.924428522392	0.54253806076226
2	7383	48.466966583154	0.48742956183167
2	7458	48.954396144986	1.8339504949125
2	7737	50.788346639898	6.4372863402632
2	8653	57.225632980161	0.37317436400344
2	8722	57.598807344164	0.45065320255871
2	8778	58.049460546723	0.93531289974887
2	8926	58.984773446472	1.8638943333131
3	0	0	0.0077777777777778
4	0	0	2.1840175185251
4	399	2.184017518525	0.69517763642846
4	501	2.879195154953	3.1777610244241
4	1030	6.056956179377	2.4810723139511
4	1370	8.538028493328	0.061777911193439
4	1374	8.599806404521	1.7924285125157
4	1676	10.392234917037	0.97878645149721
4	1798	11.371021368534	0.4735204962873
4	1880	11.844541864821	1.0145672821814
4	2023	12.859109147002	0.016038245725681
4	2025	12.875147392728	1.1693106295937
4	2184	14.044458022322	0.11872982692885
4	2205	14.163187849251	1.115746488883
4	2346	15.278934338134	0.24119512397161
4	2397	15.520129462106	1.9675900023593
4	2660	17.487719464465	0.74560151319163
4	2807	18.233320977657	2.0787263182584
4	3146	20.312047295915	0.30453177073254
4	3177	20.616579066648	1.0881052611912
4	3368	21.704684327839	0.6621604639169
4	3466	22.366844791756	0.70878936884278
4	3569	23.075634160599	0.047908152648753
4	3574	23.123542313248	1.6563515644481
4	3815	24.779893877696	0.83663145744002
4	3928	25.616525335136	0.72444180852668
4	4036	26.340967143663	0.65000161013979
4	4153	26.990968753803	0.60885660645671
4	4269	27.59982536026	0.37745198672365
4	4308	27.977277346984	1.8677951169922
4	4582	29.845072463976	0.15063133761647
4	4600	29.995703801592	0.85527584909672
4	4715	30.850979650689	0.0060424444686025
4	4716	30.857022095158	1.5254172320504
4	4922	32.382439327208	0.53016186385243
4	5000	32.91260119106	1.927390571842
4	5296	34.839991762902	1.4813758922634
4	5483	36.321367655165	0.23882681645214
4	5523	36.560194471617	1.2377219180156
4	5685	37.797916389633	0.081124302150085
4	5699	37.879040691783	0.055969593309276
4	5713	37.935010285092	0.18462381931144
4	5743	38.119634104403	0.2307221764075
4	5788	38.350356280811	2.8081310635274
4	6241	41.158487344338	2.3125798386758
4	6542	43.471067183014	0.1685732838258
4	6575	43.63964046684	0.28426175130795
4	6626	43.923902218148	0.46720298481407
4	6683	44.391105202962	1.0824812268479
4	6904	45.47358642981	1.7861485794459
4	7158	47.259735009256	0.016204564744907
4	7162	47.275939574001	2.6659513845845
4	7602	49.941890958586	0.22048705736934
4	7648	50.162378015955	6.2558875167429
4	8512	56.418265532698	2.5483581440792
4	8925	58.966623676777	0.38026547802096
4	8978	59.346889154798	1.304193815379
5	0	0	0.0077777777777778
6	0	0	2.2799797723163
6	419	2.279979772316	0.67423120692116
6	514	2.954210979237	1.3130416192213
6	678	4.267252598458	0.076618725903339
6	688	4.343871324361	0.50873950267502
6	761	4.852610827036	0.66125515209264
6	947	5.513865979129	2.3394644455562
6	1266	7.853330424685	0.45759162179571
6	1347	8.310922046481	0.36901520713149
6	1394	8.679937253612	2.6327427777727
6	1792	11.312680031385	0.41237035731888
6	1861	11.725050388704	0.42177961682517
6	1915	12.146830005529	1.7668831731745
6	2170	13.913713178704	0.01990368061253
6	2175	13.933616859317	1.9621098481376
6	2457	15.895726707455	3.7825794644177
6	3046	19.678306171873	4.8521831615217
6	3777	24.530489333395	0.70943989688588
6	3874	25.239929230281	3.9453874814478
6	4482	29.185316711729	0.61590942134439
6	4571	29.801226133073	1.5778539690282
6	4777	31.379080102101	0.088409566884329
6	4791	31.467489668985	0.17272901282088
6	4812	31.640218681806	4.6772997458636
6	5482	36.31751842767	1.9838234043294
6	5781	38.301341831999	0.37963159405268
6	5855	38.680973426052	0.21988982990316
6	5886	38.900863255955	3.0875449881325
6	6342	41.988408244087	0.47117485919414
6	6420	42.459583103281	1.7506741934831
6	6662	44.210257296764	1.2005867441419
6	6883	45.410844040906	0.11079256134796
6	6911	45.521636602254	0.67802294768926
6	7011	46.199659549943	0.24369137707186
6	7043	46.443350927015	0.4423633293865
6	7106	46.885714256401	0.23639563103861
6	7148	47.12210988744	0.22743477451099
6	7176	47.349544661951	1.2659806078396
6	7396	48.615525269791	0.66338790520751
6	7495	49.278913174999	0.49730958117716
6	7566	49.776222756176	0.46591312870611
6	7655	50.242135884882	0.8088998202003
6	7780	51.051035705082	1.3225698175889
6	7949	52.373605522671	0.6453240908728
6	8041	53.018929613544	1.9450356317636
6	8303	54.963965245308	1.2983393364033
6	8485	56.262304581711	2.0834142750872
6	8820	58.345718856798	0.55881543881594
6	8916	58.904534295614	0.33136909613699
6	8954	59.235903391751	1.083858391525
7	0	0	0.0077777777777778
8	0	0	3.0881167616269
8	537	3.088116761627	2.5530449171958
8	963	5.641161678823	3.2766253441516
8	1428	8.917787022975	1.1333059978216
8	1629	10.051093020797	0.19030652141622
8	1659	10.241399542213	0.014744401497635
8	1662	10.256143943711	0.78568529605619
8	1760	11.041829239767	0.88995076528557
8	1896	11.931780005053	0.3658603578835
8	1944	12.297640362937	0.27218424987814
8	1992	12.569824612815	0.15438857097227
8	2012	12.724213183787	0.99773838659771
8	2142	13.721951570385	0.09487801079612
8	2153	13.816829581181	1.0812586961856
8	2296	14.898088277367	0.10227821779854
8	2306	15.000366495166	1.0196756490754
8	2473	16.020042144241	0.13433997918088
8	2481	16.154382123422	1.3383080892284
8	2662	17.49269021265	1.7984263704391
8	3003	19.291116583089	1.312355043354
8	3176	20.603471626443	0.86357792394625
8	3332	21.467049550389	0.50758909166653
8	3407	21.974638642056	0.57848765054054
8	3488	22.553126292597	1.3852208674096
8	3704	23.938347160007	0.33859076190853
8	3752	24.276937921916	2.8934711640611
8	4198	27.170409085977	0.32048433166462
8	4253	27.490893417642	0.30067018139747
8	4290	27.791563599039	0.25168865570936
8	4320	28.043252254748	0.3508585749285
8	4367	28.394110829676	0.50182044760667
8	4443	28.895931277283	0.15653552629711
8	4467	29.05246680358	3.0669865788895
8	4885	32.119453382469	1.4288768390404
8	5100	33.548330221509	1.3062921146428
8	5298	34.854622336152	3.284054658902
8	5745	38.138676995054	0.21641962971248
8	5790	38.355096624766	0.235791581768
8	5836	38.590888206534	0.8947732605471
8	5980	39.485661467081	0.3808070421398
8	6047	39.866468509221	0.67387752041425
8	6156	40.540346029635	1.4397046890104
8	6341	41.980050718645	0.89457079200188
8	6453	42.874621510647	0.33869854792177
8	6492	43.213320058569	0.6947469471125
8	6625	43.908067005681	1.0706134322102
8	6789	44.978680437891	2.7472220389893
8	7239	47.72590247688	0.46006372026
8	7332	48.18596619714	0.71677828592571
8	7453	48.902744483066	0.83300769182625
8	7564	49.735752174892	0.6127642013022
8	7668	50.348516376194	3.586780336366
8	8171	53.93529671256	0.96621386704404
8	8290	54.901510579604	1.8231319811054
8	8579	56.724642560709	1.0281053387487
8	8739	57.752747899458	0.14683939095348
8	8763	57.899587290411	1.1338616619115
8	8932	59.033448952322	0.47716662562469
8	9009	59.510615577947	2.2076091562842
9	0	0	0.0077777777777778
10	0	0	2.2212883617732
10	402	2.221288361773	1.1276335538476
10	566	3.348921915621	1.8546525876576
10	899	5.203574503279	0.35774836926673
10	950	5.561322872546	3.167867502762
10	1405	8.729190375308	2.1355008328243
10	1742	10.864691208132	2.7596058335183
10	2129	13.62429704165	5.2857487861007
10	2925	18.910045827751	2.274909466628
10	3287	21.184955294379	0.1954244491545
10	3319	21.380379743533	0.18916540160091
10	3351	21.569545145134	2.4756316435067
10	3717	24.045176788641	1.2877352631686
10	3885	25.33291205181	0.67911669191118
10	3984	26.012028743721	0.52976358818293
10	4064	26.541792331904	0.078845296059935
10	4072	26.620637627964	0.89182402536808
10	4257	27.512461653332	0.054190591868349
10	4265	27.5666522452	0.83983919083219
10	4368	28.406491436032	0.039257593592638
10	4373	28.445749029625	0.078370541606487
10	4387	28.524119571231	0.55959775268716
10	4471	29.083717323918	1.1147566691835
10	4619	30.198473993102	1.5355332862838
10	4819	31.734007279386	1.5340933501503
10	5057	33.268100629536	0.73391244075121
10	5168	34.002013070287	7.9111458728238
10	6334	41.913158943111	1.4484720757888
10	6521	43.3616310189	0.011855045975129
10	6524	43.373486064875	0.023631204301024
10	6531	43.397117269176	0.42856822455326
10	6608	43.825685493729	0.30164178840278
10	6650	44.127327282132	0.084434643062097
10	6663	44.211761925194	0.4786229293777
10	6738	44.690384854572	0.74063980832301
10	6887	45.431024662895	1.6226690712831
10	7136	47.053693734178	0.48698222563194
10	7211	47.54067595981	1.0285344578596
10	7389	48.56921041767	1.1263358643378
10	7557	49.695546282008	0.12905435038207
10	7587	49.82460063239	0.51416277647023
10	7665	50.33876340886	0.56520888426577
10	7754	50.903972293126	0.27922389212922
10	7798	51.183196185255	0.25879733911309
10	7823	51.441993524368	1.4222842501186
10	8010	52.864277774487	2.0590533026877
10	8293	54.923331077175	0.25276502739972
10	8336	55.176096104575	0.9281550705973
10	8464	56.104251175172	0.15240410101662
10	8484	56.256655276189	0.55026404217973
10	8591	56.806919318369	1.6239520933195
10	8833	58.430871411689	0.041759363422135
10	8845	58.472630775111	0.01646042541694
10	8848	58.489091200528	1.2547065756347
10	9048	59.743797776163	0.20858739719921
10	9085	59.952385173362	1.6592818712765
11	0	0	0.0077777777777778
12	0	0	3.0423617142248
12	532	3.042361714225	1.5765657402475
12	726	4.618927454472	3.2258703926597
12	1264	7.844797847132	0.086762108076975
12	1292	7.931559955209	1.2950200504401
12	1484	9.226580005649	2.6264706295913
12	1882	11.85305063524	2.5279832987198
12	2226	14.38103393396	0.18444540697879
12	2255	14.565479340939	0.43739027541464
12	2307	15.002869616354	0.25449125909392
12	2342	15.257360875448	0.10417481724111
12	2357	15.361535692689	1.4978702346253
12	2579	16.859405927314	0.79245816296633
12	2698	17.65186409028	0.20865522536787
12	2746	17.860519315648	1.9567471418863
12	3063	19.817266457534	0.89485703916973
12	3202	20.712123496704	0.18853870700672
12	3250	20.900662203711	0.68063498240386
12	3355	21.581297186115	2.0446254823981
12	3666	23.625922668513	0.18755470775939
12	3687	23.813477376272	1.4136596328383
12	3873	25.22713700911	0.19027541766374
12	3908	25.417412426774	0.35625575078851
12	3950	25.773668177563	0.29243422126027
12	3994	26.066102398823	0.90822314683464
12	4148	26.974325545658	1.5002806490819
12	4377	28.47460619474	0.58411568322747
12	4468	29.058721877967	0.63814898516152
12	4553	29.696870863129	0.85632030243208
12	4675	30.553191165561	0.14051167547589
12	4701	30.693702841037	0.68451314168361
12	4776	31.378215982721	0.06295276422124
12	4783	31.441168746942	0.11831201955891
12	4807	31.559480766501	0.71306185705407
12	4910	32.272542623555	1.9891132512482
12	5216	34.261655874803	0.15983560737728
12	5247	34.42149148218	3.8157213477618
12	5772	38.237212829942	0.23345874840991
12	5809	38.470671578352	0.10907543265885
12	5835	38.579747011011	1.3675712621633
12	6055	39.947318273174	0.010343899133548
12	6058	39.957662172308	1.6750016360199
12	6308	41.632663808328	1.8284642856206
12	6539	43.461128093949	1.8582978977979
12	6861	45.319425991747	1.3852875486976
12	7077	46.704713540445	2.1824654411557
12	7451	48.887178981601	0.77282301180772
12	7552	49.660001993409	0.21468452125712
12	7596	49.874686514666	0.99676549074615
12	7751	50.871452005412	1.4791842982347
12	7943	52.350636303647	1.4122670807392
12	8135	53.762903384386	0.060923090599368
12	8155	53.823826474985	0.18222700706315
12	8179	54.006053482048	1.7566179049912
12	8413	55.762671387039	1.8292023433356
12	8720	57.591873730375	1.0151518844035
12	8867	58.607025614778	0.26088291171606
12	8911	58.867908526494	5.6511224153626
13	0	0	0.0077777777777778
14	0	0	1.6919366219648
14	326	1.691936621965	0.3193829151499
14	371	2.011319537115	0.26234463252002
14	414	2.273664169635	0.066253456698544
14	426	2.339917626334	0.52707206103778
14	499	2.866989687372	2.271968963519
14	890	5.138958650891	0.21358922424841
14	917	5.352547875139	1.0409078390987
14	1076	6.393455714238	0.1312868832398
14	1082	6.524742597478	0.38668981794114
14	1127	6.911432415419	0.47127730242775
14	1204	7.382709717847	1.2172742335851
14	1375	8.599983951432	0.3224862172009
14	1434	8.922470168633	0.50853735430948
14	1535	9.431007522942	1.268453443578
14	1725	10.69946096652	1.1846946396925
14	1888	11.884155606213	0.4001218425216
14	1942	12.284277448735	4.9979913938397
14	2625	17.282268842575	0.37551005822594
14	2700	17.657778900801	0.10470692387733
14	2721	17.762485824678	0.78273116780796
14	2881	18.545216992486	0.87429850325449
14	3020	19.41951549574	0.76189557506623
14	3120	20.181411070806	0.37435150120193
14	3170	20.555762572008	0.79719109587947
14	3313	21.352953667887	1.1008496217832
14	3481	22.45380328967	2.9216735736362
14	3894	25.375476863306	1.5355681086374
14	4143	26.911044971943	0.05722342076201
14	4147	26.968268392705	2.200543389182
14	4481	29.168811781887	0.27135985035372
14	4517	29.440171632241	1.1904913061173
14	4682	30.630662938358	0.53982806029532
14	4757	31.170490998653	1.5224042875986
14	4968	32.692895286252	1.2201318298371
14	5157	33.913027116089	0.4360307097635
14	5231	34.349057825852	0.72434791577608
14	5323	35.073405741628	1.1136577402856
14	5464	36.187063481914	0.072867946899305
14	5470	36.259931428813	1.6737282060701
14	5711	37.933659634883	0.49056695600493
14	5801	38.424226590888	1.3555197104851
14	6018	39.779746301373	0.09385720783469
14	6050	39.873603509208	2.1047899246397
14	6340	41.978393433848	0.85796571561243
14	6445	42.83635914946	0.77640408567078
14	6568	43.612763235131	0.39512628511531
14	6641	44.007889520246	0.80813459854109
14	6763	44.816024118787	0.35312513747516
14	6829	45.169149256262	0.911483200864
14	6988	46.080632457126	0.31095432623155
14	7036	46.391586783358	1.1630014651294
14	7213	47.554588248487	0.52756538196293
14	7320	48.08215363045	0.48980563294341
14	7390	48.571959263393	3.4284513561787
14	7902	52.000410619572	3.6448255357908
14	8393	55.645236155363	1.6562075700416
14	8664	57.301443725405	0.4393843153991
14	8737	57.740828040804	0.12500266191277
14	8753	57.865830702717	0.83997249578747
14	8878	58.705803198504	0.71796496698969
14	8988	59.423768165494	0.222009650801
14	9031	59.645777816295	0.44427597521875
15	0	0	0.0077777777777778
16	0	0	0.97150988988747
16	223	0.971509889887	1.8256955798629
16	484	2.79720546975	1.5493001592747
16	689	4.346505629025	0.4700268961895
16	758	4.816532525214	1.3550647691061
16	1051	6.17159729432	0.64697643312185
16	1113	6.818573727442	0.091468972803502
16	1126	6.910042700246	0.28060176094307
16	1184	7.190644461189	0.15692665808361
16	1202	7.347571119273	0.27657549488772
16	1239	7.624146614161	4.9668885341253
16	1996	12.591035148286	0.077372116740937
16	2002	12.668407265027	1.0324046931067
16	2139	13.700811958134	1.4790445289511
16	2328	15.179856487085	2.9756216637513
16	2786	18.155478150836	0.99918685363215
16	2976	19.154665004468	0.21035983617135
16	3014	19.365024840639	0.07976554415078
16	3025	19.44479038479	1.7234543208468
16	3284	21.168244705637	0.011952792906739
16	3286	21.180197498544	2.983583445128
16	3737	24.163780943672	0.28493020052149
16	3772	24.448711144193	0.2626920583766
16	3810	24.71140320257	0.99728786195513
16	3936	25.708691064525	6.7308687149268
16	4925	32.439559779452	3.0428887488289
16	5370	35.482448528281	0.6999387563478
16	5463	36.182387284629	1.2065524672347
16	5633	37.388939751864	1.3032575040696
16	5857	38.692197255934	0.065497079872813
16	5865	38.757694335807	0.090924887446314
16	5882	38.848619223253	0.45815402282486
16	5942	39.306773246078	1.1151539595793
16	6138	40.421927205657	1.9473405491793
16	6409	42.369267754836	0.55561673178091
16	6459	42.924884486617	0.69280465547892
16	6571	43.617689142096	0.16703413320218
16	6604	43.784723275298	1.6434190530782
16	6885	45.428142328376	1.1637147504988
16	7059	46.591857078875	0.043448536399456
16	7064	46.635305615274	7.279458752205
16	8167	53.914764367479	1.4364580032793
16	8357	55.351222370758	0.1090117067616
16	8374	55.46023407752	1.5364705283205
16	8632	56.996704605841	0.75079095182679
16	8738	57.747495557668	4.3857121831195
17	0	0	0.0077777777777778
18	0	0	0.036549450896537
18	103	0.036549450897	0.52533611664188
18	175	0.561885567539	0.10667513830617
18	188	0.668560705845	0.3503416522312
18	234	1.018902358076	2.2164812842588
18	547	3.235383642335	0.9952587291787
18	676	4.230642371514	0.30510776407076
18	711	4.535750135585	0.44797483998793
18	778	4.983724975573	1.3441213949694
18	1061	6.327846370542	0.052052616674216
18	1075	6.379898987216	0.4929745000193
18	1120	6.872873487235	1.7759235351748
18	1391	8.64879702241	0.32778631117225
18	1444	8.976583333582	0.67199456369244
18	1549	9.648577897274	1.398800963198
18	1762	11.047378860472	3.1315014925001
18	2207	14.178880352972	1.0847024516782
18	2343	15.26358280465	1.9102372537831
18	2616	17.173820058433	0.31486441756132
18	2661	17.488684475994	0.8650557814256
18	2829	18.35374025742	0.060238438695162
18	2841	18.413978696115	0.92795192930288
18	3012	19.341930625418	0.24273436442576
18	3038	19.584664989844	1.5274318494868
18	3281	21.112096839331	0.28992181555295
18	3322	21.402018654884	0.034239115481048
18	3327	21.436257770365	1.8194974650029
18	3593	23.255755235368	0.16830357987352
18	3621	23.424058815242	0.48554927263189
18	3697	23.909608087874	2.3151657460529
18	4021	26.224773833927	1.4740941770186
18	4278	27.698868010946	0.061411661655761
18	4284	27.760279672602	1.3618821137425
18	4476	29.122161786344	0.18544478681056
18	4502	29.307606573155	0.94234697120608
18	4630	30.249953544361	0.38294904978704
18	4684	30.632902594148	2.9519062928
18	5108	33.584808886948	2.5601897769878
18	5459	36.144998663936	0.33510766835745
18	5514	36.480106332293	0.67025177927033
18	5608	37.150358111563	0.55216760182795
18	5673	37.702525713391	0.99610450518366
18	5858	38.698630218575	0.62495456176898
18	5946	39.323584780344	0.1059470217692
18	5966	39.429531802113	1.1395093453081
18	6158	40.569041147421	1.6599727475426
18	6381	42.229013894964	0.11000898926329
18	6404	42.339022884227	0.32771362260005
18	6433	42.666736506827	2.3670018418063
18	6801	45.033738348633	0.031938589582472
18	6804	45.065676938215	2.120249456875
18	7153	47.18592639509	0.67039447713803
18	7262	47.856320872228	0.48917666018168
18	7357	48.34549753241	1.2152122693255
18	7540	49.560709801735	0.096685221816747
18	7551	49.657395023552	1.017010973363
18	7715	50.674405996915	0.26309246453648
18	7766	50.937498461451	0.13156572141753
18	7782	51.069064182869	0.49154502226671
18	7838	51.560609205136	0.40628087478746
18	7892	51.966890079923	2.3390102475737
18	8216	54.305900327497	3.4903789907446
18	8744	57.796279318242	0.12665917377226
18	8766	57.922938492014	1.3727444826579
18	8960	59.295682974672	0.28447009956619
18	9027	59.580153074238	0.62054140104671
19	0	0	0.0077777777777778
20	0	0	1.022639325863
20	235	1.022639325863	1.5156853185348
20	449	2.538324644398	0.25246803232331
20	483	2.790792676721	1.1696594937605
20	647	3.960452170482	1.9287324513239
20	999	5.889184621806	0.23186847039235
20	1045	6.121053092198	1.2037203234526
20	1197	7.324773415651	0.6466429442151
20	1302	7.971416359866	1.9659882289643
20	1594	9.93740458883	0.31244081692134
20	1661	10.249845405751	1.0103091574064
20	1787	11.260154563157	0.20267191712324
20	1811	11.46282648028	2.1080305860301
20	2126	13.57085706631	0.47801016343325
20	2186	14.048867229743	0.64594235912705
20	2266	14.69480958887	0.15221676316316
20	2283	14.847026352033	0.78087751146992
20	2416	15.627903863503	1.045936738468
20	2559	16.673840601971	0.69068770823376
20	2637	17.364528310205	0.1189991928908
20	2659	17.483527503096	0.37726404184459
20	2747	17.860791544941	0.60002681803235
20	2853	18.460818362973	0.63972129186938
20	2963	19.100539654842	0.50744427523829
20	3041	19.60798393008	0.66316678262343
20	3142	20.271150712703	0.23644429652013
20	3158	20.507595009223	0.13165373586218
20	3184	20.639248745085	0.30998673407777
20	3257	20.949235479163	0.63428653532793
20	3356	21.583522014491	0.96845938590472
20	3487	22.551981400396	0.52966016586713
20	3570	23.081641566263	1.3029185230819
20	3765	24.384560089345	0.95122163684257
20	3887	25.335781726188	0.084107506836499
20	3909	25.419889233024	1.4030592165321
20	4108	26.822948449556	0.89514251459394
20	4280	27.71809096415	0.26297031653497
20	4309	27.981061280685	0.7929044407633
20	4425	28.773965721448	0.28582751519943
20	4469	29.059793236647	1.8480620645463
20	4718	30.907855301193	1.3048933577595
20	4900	32.212748658953	1.4423139369257
20	5135	33.655062595879	0.95554034317375
20	5261	34.610602939053	3.4554962825215
20	5727	38.066099221575	0.38916088850998
20	5807	38.455260110085	0.16198807674955
20	5840	38.617248186835	0.27646147498257
20	5885	38.893709661818	0.40324349024732
20	5940	39.296953152065	1.688299271766
20	6215	40.985252423831	0.64506777863963
20	6307	41.630320202471	1.6855019484679
20	6506	43.315822150939	0.58602586355836
20	6621	43.901848014497	0.044813234296953
20	6631	43.946661248794	0.71269456941281
20	6733	44.659355818207	0.34103856565835
20	6792	45.000394383865	0.67763178382862
20	6927	45.678026167694	1.8985055064696
20	7220	47.576531674164	1.1333596071269
20	7420	48.709891281291	0.70037209233106
20	7514	49.410263373622	0.068870824438348
20	7529	49.47913419806	1.5469997734354
20	7779	51.026133971495	1.0062740814664
20	7906	52.032408052961	0.30365744922712
20	7941	52.336065502188	0.54645698890478
20	8011	52.882522491093	1.8280393783828
20	8266	54.710561869476	0.13639423771205
20	8279	54.846956107188	0.69780400534643
20	8387	55.544760112534	1.4368184944411
20	8629	56.981578606975	0.43378008190186
20	8691	57.415358688877	0.93106669558571
20	8821	58.346425384463	1.615230450759
20	9086	59.961655835222	0.50572998806827
21	0	0	0.079054861163
21	109	0.079054861163	1.38683967621
21	291	1.465894537373	0.809030892686
21	415	2.274925430059	0.353428421747
21	462	2.628353851806	1.977795533046
21	721	4.606149384852	0.552613962557
21	893	5.158763347409	0.210838214589
21	920	5.369601561998	1.647795893255
21	1139	7.017397455253	1.6044380246
21	1378	8.621835479853	0.013731347365
21	1384	8.635566827218	0.692538349424
21	1498	9.328105176642	0.016435098915
21	1509	9.344540275557	0.4179843263
21	1568	9.762524601857	0.246043660467
21	1621	10.008568262324	0.057037368433
21	1630	10.065605630757	0.011077823779
21	1636	10.076683454536	1.399873425724
21	1815	11.47655688026	1.092972622695
21	1988	12.569529502955	0.562573901531
21	2069	13.132103404486	0.667705253676
21	2148	13.799808658162	0.036009513436
21	2156	13.835818171598	0.719076000421
21	2246	14.554894172019	0.896055682505
21	2380	15.450949854524	0.740746496639
21	2484	16.191696351163	4.446542665245
21	3180	20.638239016408	0.669954667689
21	3299	21.308193684097	1.012643239771
21	3457	22.320836923868	1.105874231896
21	3622	23.426711155764	0.877118992788
21	3756	24.303830148552	0.295503151696
21	3789	24.599333300248	2.172913136261
21	4098	26.772246436509	0.305835613808
21	4173	27.078082050317	0.268366415455
21	4221	27.346448465772	0.285133420939
21	4272	27.631581886711	0.395134832133
21	4314	28.026716718844	0.878236930157
21	4446	28.904953649001	0.691742154106
21	4539	29.596695803107	0.6182327241
21	4622	30.214928527207	0.849000220329
21	4737	31.063928747536	1.677809576769
21	4974	32.741738324305	1.21021569879
21	5160	33.951954023095	2.080199675972
21	5449	36.032153699067	2.045351990041
21	5728	38.077505689108	0.965186259643
21	5908	39.042691948751	0.809354541347
21	6038	39.852046490098	0.012814598203
21	6043	39.864861088301	0.387543347029
21	6101	40.25240443533	0.322093592102
21	6159	40.574498027432	0.58392341014
21	6237	41.158421437572	0.75167564532
21	6330	41.910097082892	0.122887805049
21	6350	42.032984887941	1.356772270588
21	6527	43.389757158529	0.250306413968
21	6576	43.640063572497	0.226402099065
21	6612	43.866465671562	0.530521147112
21	6684	44.396986818674	0.196401502647
21	6712	44.593388321321	0.065673314502
21	6729	44.659061635823	0.626842241135
21	6842	45.285903876958	0.17507019766
21	6888	45.460974074618	0.411800440424
21	6952	45.872774515042	0.381591795442
21	7014	46.254366310484	0.737368484877
21	7115	46.991734795361	0.916458078
21	7279	47.908192873361	1.288871689999
21	7479	49.19706456336	0.352360375257
21	7534	49.549424938617	1.150369746793
21	7720	50.69979468541	1.293518785923
21	7897	51.993313471333	0.379162615125
21	7945	52.372476086458	0.312064952689
21	7990	52.684541039147	0.82399100788
21	8104	53.508532047027	0.559967051946
21	8183	54.068499098973	0.881822024169
21	8298	54.950321123142	0.284588890615
21	8344	55.234910013757	0.69383422035
21	8427	55.928744234107	1.935221449469
21	8749	57.863965683576	0.398842005114
21	8807	58.26280768869	0.321136804293
21	8861	58.583944492983	0.933865928065
21	9014	59.517810421048	2.891366447666
22	0	0	0.0077777777777778
22	111	0.079054861163	0.0077777777777778
22	293	1.465894537373	0.0077777777777778
22	417	2.274925430059	0.0077777777777778
22	464	2.628353851806	0.0077777777777778
22	723	4.606149384852	0.0077777777777778
22	895	5.158763347409	0.0077777777777778
22	922	5.369601561998	0.0077777777777778
22	1141	7.017397455253	0.0077777777777778
22	1380	8.621835479853	0.0077777777777778
22	1386	8.635566827218	0.0077777777777778
22	1500	9.328105176642	0.0077777777777778
22	1511	9.344540275557	0.0077777777777778
22	1570	9.762524601857	0.0077777777777778
22	1623	10.008568262324	0.0077777777777778
22	1632	10.065605630757	0.0077777777777778
22	1638	10.076683454536	0.0077777777777778
22	1817	11.47655688026	0.0077777777777778
22	1990	12.569529502955	0.0077777777777778
22	2071	13.132103404486	0.0077777777777778
22	2150	13.799808658162	0.0077777777777778
22	2158	13.835818171598	0.0077777777777778
22	2248	14.554894172019	0.0077777777777778
22	2382	15.450949854524	0.0077777777777778
22	2486	16.191696351163	0.0077777777777778
22	3182	20.638239016408	0.0077777777777778
22	3301	21.308193684097	0.0077777777777778
22	3459	22.320836923868	0.0077777777777778
22	3624	23.426711155764	0.0077777777777778
22	3758	24.303830148552	0.0077777777777778
22	3791	24.599333300248	0.0077777777777778
22	4100	26.772246436509	0.0077777777777778
22	4175	27.078082050317	0.0077777777777778
22	4223	27.346448465772	0.0077777777777778
22	4274	27.631581886711	0.0077777777777778
22	4316	28.026716718844	0.0077777777777778
22	4448	28.904953649001	0.0077777777777778
22	4541	29.596695803107	0.0077777777777778
22	4624	30.214928527207	0.0077777777777778
22	4739	31.063928747536	0.0077777777777778
22	4976	32.741738324305	0.0077777777777778
22	5162	33.951954023095	0.0077777777777778
22	5451	36.032153699067	0.0077777777777778
22	5730	38.077505689108	0.0077777777777778
22	5910	39.042691948751	0.0077777777777778
22	6040	39.852046490098	0.0077777777777778
22	6045	39.864861088301	0.0077777777777778
22	6103	40.25240443533	0.0077777777777778
22	6161	40.574498027432	0.0077777777777778
22	6239	41.158421437572	0.0077777777777778
22	6332	41.910097082892	0.0077777777777778
22	6352	42.032984887941	0.0077777777777778
22	6529	43.389757158529	0.0077777777777778
22	6578	43.640063572497	0.0077777777777778
22	6614	43.866465671562	0.0077777777777778
22	6686	44.396986818674	0.0077777777777778
22	6714	44.593388321321	0.0077777777777778
22	6731	44.659061635823	0.0077777777777778
22	6844	45.285903876958	0.0077777777777778
22	6890	45.460974074618	0.0077777777777778
22	6954	45.872774515042	0.0077777777777778
22	7016	46.254366310484	0.0077777777777778
22	7117	46.991734795361	0.0077777777777778
22	7281	47.908192873361	0.0077777777777778
22	7481	49.19706456336	0.0077777777777778
22	7536	49.549424938617	0.0077777777777778
22	7722	50.69979468541	0.0077777777777778
22	7899	51.993313471333	0.0077777777777778
22	7947	52.372476086458	0.0077777777777778
22	7992	52.684541039147	0.0077777777777778
22	8106	53.508532047027	0.0077777777777778
22	8185	54.068499098973	0.0077777777777778
22	8300	54.950321123142	0.0077777777777778
22	8346	55.234910013757	0.0077777777777778
22	8429	55.928744234107	0.0077777777777778
22	8751	57.863965683576	0.0077777777777778
22	8809	58.26280768869	0.0077777777777778
22	8863	58.583944492983	0.0077777777777778
22	9016	59.517810421048	0.0077777777777778
23	0	0	1.17686871569
23	259	1.17686871569	1.0103242161095
23	400	2.1871929318	0.48091634433165
23	471	2.668109276132	0.22649844200471
23	504	2.894607718137	0.63080960251571
23	591	3.525417320653	0.017454581216344
23	594	3.542871901869	0.05814212404812
23	607	3.601014025917	1.4915350988975
23	886	5.092549124815	0.23178745141375
23	910	5.324336576229	2.4847302970578
23	1259	7.809066873287	0.31397208089822
23	1319	8.123038954185	1.1763865173816
23	1494	9.299425471567	0.49190302542012
23	1577	9.791328496987	1.4406214705233
23	1776	11.23194996751	0.2327975981148
23	1812	11.464747565625	0.38798215294505
23	1881	11.85272971857	0.14522463512436
23	1899	11.997954353694	0.26508554775492
23	1936	12.263039901449	1.588807774736
23	2163	13.851847676185	0.37576937813195
23	2211	14.227617054317	0.73112695946715
23	2303	14.958744013784	0.17019587776182
23	2324	15.128939891546	0.48794428869382
23	2415	15.61688418024	0.15546429709901
23	2441	15.772348477339	0.77455189299239
23	2530	16.546900370331	0.75307085780283
23	2627	17.299971228134	3.3018813090257
23	3175	20.60185253716	6.0113376277134
23	4071	26.613190164873	2.170924333283
23	4430	28.784114498156	2.2969759021652
23	4743	31.081090400321	1.4125098963699
23	4930	32.493600296691	0.20947505517759
23	4970	32.703075351869	0.099035966889742
23	4983	32.802111318759	1.1361170417204
23	5159	33.938228360479	0.27376413599881
23	5205	34.211992496478	0.079283342394871
23	5224	34.291275838873	1.1092734091498
23	5359	35.400549248023	1.6475758932508
23	5595	37.048125141274	2.9799754273401
23	6073	40.028100568614	1.2446576534168
23	6259	41.272758222031	3.6711120013918
23	6785	44.943870223423	2.0265896312704
23	7111	46.970459854693	0.30538656515034
23	7161	47.275846419843	3.5527468029523
23	7744	50.828593222795	0.27368764518111
23	7790	51.102280867976	0.13041062393508
23	7808	51.232691491911	1.650008356393
23	8012	52.882699848304	1.9435422519365
23	8277	54.826242100241	1.2848687889504
23	8466	56.111110889191	1.2894216058299
23	8687	57.400532495021	2.1081600440402
23	9008	59.508692539061	1.2481135617648
24	0	0	0.0077777777777778
25	0	0	3.0048063223147
25	520	3.004806322315	1.9943004337273
25	779	4.999106756042	2.2635819698321
25	1190	7.262688725874	0.019434167681146
25	1192	7.282122893555	1.1312387707592
25	1358	8.413361664314	2.2557530835694
25	1722	10.669114747883	1.133495481922
25	1868	11.802610229805	0.52550711883361
25	1948	12.328117348639	0.45273548634267
25	2019	12.780852834982	0.36048964234325
25	2074	13.141342477325	0.33203882459609
25	2116	13.473381301921	0.15755699889726
25	2130	13.630938300818	0.032964420969186
25	2133	13.663902721787	0.44026116600949
25	2192	14.104163887796	0.059349837442806
25	2206	14.163513725239	0.061845407714366
25	2210	14.225359132953	1.1539336795862
25	2359	15.379292812539	0.98481798179068
25	2504	16.36411079433	0.26395228255746
25	2554	16.628063076887	1.6092535138298
25	2808	18.237316590717	0.41599894806547
25	2891	18.653315538782	0.11429756802429
25	2904	18.767613106806	0.13192777986716
25	2918	18.899540886673	1.3954953649109
25	3145	20.295036251584	0.4444553805234
25	3208	20.739491632107	0.51785413718058
25	3297	21.257345769288	0.33534646201291
25	3357	21.592692231301	0.95132984142516
25	3486	22.544022072726	1.5491758735455
25	3724	24.093197946272	1.3703022498901
25	3916	25.463500196162	0.30657446742458
25	3949	25.770074663587	0.47695665742501
25	4024	26.247031321012	0.7616551590151
25	4157	27.008686480027	1.098469030086
25	4332	28.107155510113	1.7396804845991
25	4583	29.846835994712	1.23554034128
25	4744	31.082376335992	0.12536250458368
25	4760	31.207738840576	0.29472727758158
25	4797	31.502466118158	0.35919865630813
25	4842	31.861664774466	0.22071244688819
25	4876	32.082377221354	0.13360056647333
25	4901	32.215977787827	0.1429931242201
25	4920	32.358970912047	0.71902772624631
25	5025	33.077998638293	1.7232347375008
25	5289	34.801233375794	2.2520707066411
25	5597	37.053304082435	0.95580663440118
25	5716	38.009110716836	1.0957501013867
25	5918	39.104860818223	1.8465286769068
25	6207	40.95138949513	5.9981957692917
25	7109	46.949585264422	0.33416475516595
25	7164	47.283750019588	0.55903698028835
25	7260	47.842786999876	0.067051571918319
25	7283	47.909838571794	1.7634504436316
25	7555	49.673289015426	0.36142615344625
25	7618	50.034715168872	0.31158911111694
25	7667	50.346304279989	1.5752865324016
25	7881	51.921590812391	0.45071151607533
25	7944	52.372302328466	1.306749885536
25	8126	53.679052214002	0.4336219647371
25	8191	54.112674178739	0.16648584604652
25	8213	54.279160024786	1.5477934268892
25	8420	55.826953451675	2.9762975822279
25	8893	58.803251033903	1.0626987113293
25	9067	59.865949745232	3.9316702096266
26	0	0	0.0077777777777778
27	0	0	0.47591053993054
27	167	0.475910539931	0.44716491241419
27	218	0.923075452345	0.92434971703923
27	353	1.847425169384	2.1599272720723
27	653	4.007352441456	0.94471191813985
27	774	4.952064359596	1.0580402709853
27	1023	6.010104630581	1.4108658397058
27	1212	7.420970470287	7.4451053292652
27	2288	14.866075799552	0.68418840689309
27	2400	15.550264206445	0.12169689097527
27	2420	15.67196109742	0.91705717011268
27	2539	16.589018267533	2.7193841639409
27	3005	19.308402431474	1.707801368467
27	3269	21.016203799941	0.58512058264019
27	3358	21.601324382581	0.7711506492386
27	3467	22.37247503182	1.4594807688982
27	3690	23.831955800718	0.27776457993244
27	3728	24.10972038065	0.13523193784775
27	3749	24.244952318498	0.30509054114895
27	3781	24.550042859647	0.18613354886544
27	3811	24.736176408512	0.21662371714276
27	3837	24.952800125655	1.6070336332675
27	4067	26.559833758923	0.32513372451354
27	4139	26.884967483437	3.6492897786981
27	4671	30.534257262135	1.4227931617705
27	4854	31.957050423906	0.98192870855439
27	5002	32.93897913246	0.32694250302993
27	5056	33.26592163549	0.31142435083245
27	5107	33.577345986322	0.21638198134108
27	5148	33.793727967663	4.4029395161393
27	5768	38.196667483802	0.57584602587898
27	5866	38.772513509681	0.39179374437533
27	5922	39.164307254056	0.78973047203583
27	6056	39.954037726092	1.0248443948514
27	6212	40.978882120943	0.20174585301414
27	6244	41.180627973957	2.1633351021933
27	6519	43.34396307615	0.27683206364826
27	6574	43.620795139798	0.48950343009832
27	6648	44.110298569896	0.039674009474032
27	6653	44.14997257937	1.4609943662792
27	6923	45.610966945649	3.5918985203987
27	7483	49.202865466048	0.70314964641239
27	7598	49.90601511246	0.72230788743918
27	7709	50.628322999899	2.0011792395206
27	7977	52.62950223942	0.88796423779816
27	8109	53.517466477218	0.14442908243522
27	8120	53.661895559653	0.22227938005082
27	8163	53.884174939704	0.28114825823842
27	8197	54.165323197942	0.29283220165605
27	8234	54.458155399598	0.66598303712728
27	8332	55.124138436725	1.5631326393646
27	8570	56.68727107609	0.72233832564454
27	8689	57.409609401735	0.8826119269373
27	8814	58.292221328672	0.89102906899592
27	8950	59.183250397668	0.14055588437985
27	8972	59.323806282048	1.747077055469
28	0	0	0.0077777777777778
29	0	0	1.1173843565838
29	254	1.117384356584	0.54935320011776
29	323	1.666737556702	2.4763077021562
29	669	4.143045258858	2.0928425128911
29	1055	6.235887771749	0.29725490789989
29	1084	6.533142679649	0.37940738939228
29	1128	6.912550069041	2.0297465265678
29	1437	8.942296595609	0.81267166271447
29	1564	9.754968258323	0.096886474871713
29	1588	9.851854733195	0.60237390207924
29	1688	10.454228635274	0.080647023881337
29	1705	10.534875659155	0.50576738551208
29	1759	11.040643044667	0.13753409445418
29	1772	11.178177139121	1.1403089801396
29	1947	12.318486119261	0.11284885281844
29	1961	12.431334972079	6.4306360623426
29	2912	18.861971034422	3.1169643442699
29	3409	21.978935378692	1.3690237710471
29	3612	23.347959149739	0.82689509080404
29	3739	24.174854240543	1.9633115626349
29	4003	26.138165803178	0.98987405588031
29	4183	27.128039859058	1.2989524327586
29	4370	28.426992291817	0.95756680900795
29	4511	29.384559100825	0.45179259472833
29	4580	29.836351695553	0.30612814067343
29	4609	30.142479836226	2.0049740858923
29	4893	32.147453922118	2.1405514184348
29	5223	34.288005340553	0.19901227508722
29	5252	34.48701761564	0.22927599587168
29	5277	34.716293611512	0.30667477964059
29	5318	35.022968391153	0.84903967104527
29	5429	35.872008062198	0.41569505942714
29	5477	36.287703121625	3.0045669103994
29	5938	39.292270032024	1.1334572518443
29	6139	40.425727283868	0.36475397636287
29	6188	40.790481260231	0.42923856521905
29	6247	41.21971982545	2.2021010309576
29	6534	43.421820856408	0.53416837713165
29	6633	43.95598923354	0.95581542019636
29	6780	44.911804653736	1.3625034303959
29	7024	46.274308084132	0.26077287668543
29	7055	46.535080960817	0.097388030985298
29	7063	46.632468991802	1.0382627031901
29	7235	47.670731694992	0.31227813486639
29	7297	47.983009829858	0.020824218748213
29	7301	48.003834048606	0.62924206541428
29	7398	48.63307611402	0.53070771372999
29	7474	49.16378382775	0.098168551173909
29	7490	49.261952378924	0.51563357312203
29	7567	49.777585952046	0.46093472622736
29	7654	50.238520678273	0.2593989602271
29	7685	50.4979196385	0.071211410513424
29	7703	50.569131049013	3.7119044626828
29	8214	54.281035511696	1.9584964492563
29	8481	56.239531960952	1.4753851461895
29	8736	57.714917107142	0.3226195412275
29	8777	58.037536648369	1.3139816741191
29	8980	59.351518322488	1.7844000150367
30	0	0	0.0077777777777778
31	0	0	0.73087178321312
31	198	0.730871783213	1.1890862797648
31	365	1.919958062978	1.5652536300746
31	587	3.485211693053	0.066793922763699
31	596	3.552005615817	2.2103247778759
31	976	5.762330393693	0.3720817473856
31	1049	6.134412141079	1.1731583457741
31	1195	7.307570486853	0.10066711847485
31	1207	7.408237605328	1.334404183453
31	1406	8.742641788781	0.94824058016313
31	1556	9.690882368944	3.9520481403649
31	2132	13.642930509309	2.0477353451159
31	2427	15.690665854425	0.13470027811389
31	2446	15.825366132539	0.98151768950451
31	2570	16.806883822044	0.79437125788637
31	2688	17.60125507993	1.1411538637743
31	2901	18.742408943704	1.9018748907558
31	3185	20.64428383446	0.13667273651735
31	3220	20.780956570977	1.429791715287
31	3433	22.210748286264	0.052459149739394
31	3444	22.263207436003	0.42415575303928
31	3510	22.687363189042	1.2885928515816
31	3707	23.975956040624	0.97640059303575
31	3836	24.95235663366	0.66540378467466
31	3929	25.617760418335	0.57276302838543
31	4013	26.19052344672	1.4353412011598
31	4270	27.62586464788	0.40822519937202
31	4318	28.034089847252	1.2089562617397
31	4492	29.243046108992	0.40519469372004
31	4548	29.648240802712	0.73323646946405
31	4646	30.381477272176	0.72727252794944
31	4753	31.108749800125	0.15180261229826
31	4764	31.260552412423	0.15228902795463
31	4780	31.412841440378	1.1607671857372
31	4945	32.573608626115	3.6946488015417
31	5471	36.268257427657	1.4930813756624
31	5683	37.761338803319	0.48041398867145
31	5773	38.24175279199	0.33457393556767
31	5833	38.576326727558	0.6934772519758
31	5936	39.269803979534	1.4128998730091
31	6178	40.682703852543	2.4226401230356
31	6481	43.105343975579	0.20950724708314
31	6505	43.314851222662	2.4923313428506
31	6940	45.807182565513	0.45805220285189
31	7020	46.265234768365	0.23505502305694
31	7054	46.500289791422	1.5617648128022
31	7317	48.062054604224	1.3561733434385
31	7515	49.418227947662	3.641595578767
31	8049	53.059823526429	1.9448286897157
31	8316	55.004652216145	1.4376751799354
31	8515	56.44232739608	0.26995582437234
31	8575	56.712283220452	2.0454846677449
31	8885	58.757767888197	0.18994757456131
31	8923	58.947715462758	0.44636420580952
31	8983	59.394079668568	1.8396452626294
32	0	0	0.0077777777777778
33	0	0	0.042044959618934
33	105	0.042044959619	1.5081813751415
33	309	1.55022633476	1.3136714914422
33	496	2.863897826202	0.76097919611901
33	610	3.624877022321	0.18277076069478
33	624	3.807647783016	3.1749188476392
33	1135	6.982566630655	0.095544306827145
33	1161	7.078110937482	0.14720847628301
33	1186	7.225319413765	0.18401748361507
33	1208	7.40933689738	0.42301674186116
33	1260	7.832353639241	0.4485575652236
33	1334	8.280911204465	2.0479628155619
33	1670	10.328874020027	1.0456956375423
33	1799	11.374569657569	0.93982151190753
33	1946	12.314391169477	2.3862370782228
33	2269	14.7006282477	1.5668332725317
33	2493	16.267461520232	0.1040360823816
33	2506	16.371497602614	0.48663247661601
33	2578	16.85813007923	1.3929693993809
33	2816	18.251099478611	0.063680390823691
33	2825	18.314779869435	0.61753857025733
33	2941	18.932318439692	1.6884051204672
33	3179	20.620723560159	0.37107410424051
33	3266	20.9917976644	1.8420952787495
33	3534	22.83389294315	2.0305569132226
33	3827	24.864449856373	0.52551596970287
33	3900	25.389965826076	0.95455826634123
33	4037	26.344524092417	0.86864617573732
33	4209	27.213170268154	0.56495441140228
33	4285	27.778124679556	1.5640467646415
33	4507	29.342171444197	3.0957016580235
33	4924	32.437873102221	0.48311463240362
33	5001	32.920987734625	1.9287147936061
33	5297	34.849702528231	0.072942315843266
33	5303	34.922644844074	0.26182658054967
33	5335	35.184471424624	0.32787589939144
33	5382	35.512347324015	2.9988047924788
33	5814	38.511152116494	0.10988872963548
33	5841	38.621040846129	0.84341680944918
33	5976	39.464457655578	0.55485340932711
33	6071	40.019311064905	3.2615363066898
33	6498	43.280847371595	0.056076220385562
33	6518	43.336923591981	3.8419381623194
33	7152	47.1788617543	1.7893032499226
33	7459	48.968165004223	0.84351855404425
33	7578	49.811683558267	2.4999671758617
33	7938	52.311650734129	0.8222210301505
33	8059	53.13387176428	0.060867294695766
33	8066	53.194739058976	0.70924496504643
33	8166	53.903984024022	0.056338252117987
33	8175	53.96032227614	1.8072300390184
33	8415	55.767552315158	0.77846519734932
33	8528	56.546017512507	0.031884764546181
33	8535	56.577902277053	0.038569872569423
33	8541	56.616472149622	1.0201339085748
33	8727	57.636606058197	0.4663451105468
33	8787	58.102951168744	0.2927196678341
33	8830	58.395670836578	0.18286851190722
33	8860	58.578539348485	0.19871806315236
33	8892	58.777257411637	0.98638109164781
33	9052	59.763638503285	0.10362766203777
33	9068	59.867266165323	0.29456858847604
34	0	0	0.0077777777777778
35	0	0	1.0728026377843
35	251	1.072802637784	0.1941792199925
35	267	1.266981857777	0.26678852228731
35	306	1.533770380064	1.6195753808475
35	544	3.153345760912	2.4422189843858
35	960	5.595564745298	0.20628949402533
35	982	5.801854239323	2.353019738789
35	1322	8.154873978112	1.6146667561448
35	1574	9.769540734257	0.99686656205846
35	1733	10.766407296315	0.80726437387707
35	1831	11.573671670192	0.11053182433071
35	1854	11.684203494523	0.34617995659262
35	1901	12.030383451116	0.67834961138701
35	2004	12.708733062503	0.15178727714254
35	2024	12.860520339646	1.0201962145202
35	2165	13.880716554166	3.2613225815883
35	2613	17.142039135754	1.5093060223512
35	2889	18.651345158105	0.9123079363722
35	3037	19.563653094477	0.99029982185604
35	3169	20.553952916333	0.0069405515849414
35	3171	20.560893467918	0.76539535314397
35	3310	21.326288821062	0.53244472109146
35	3390	21.858733542153	0.79971977962218
35	3506	22.658453321775	2.4215924595644
35	3855	25.080045781339	0.74405100043115
35	3959	25.82409678177	0.26304901382255
35	3999	26.087145795593	1.8486713538056
35	4305	27.935817149399	0.22249327494955
35	4339	28.158310424349	0.68178542845402
35	4437	28.840095852803	0.72998534740751
35	4535	29.570081200211	0.6076706157917
35	4617	30.177751816003	0.12132902664022
35	4639	30.299080842643	3.3023486246491
35	5114	33.601429467292	0.4676932384516
35	5185	34.069122705744	0.7219855887066
35	5288	34.791108294451	0.1493765303233
35	5305	34.940484824774	0.32250508533365
35	5340	35.262989910108	2.0913949472256
35	5630	37.354384857334	0.53478614672743
35	5701	37.889171004061	0.29639515793978
35	5762	38.185566162001	0.30616367530876
35	5811	38.49172983731	0.087469029894444
35	5834	38.579198867204	0.64092940480157
35	5930	39.220128272006	0.11276025248454
35	5949	39.332888524491	0.17325027782684
35	5982	39.506138802318	3.6597678488223
35	6485	43.16590665114	0.14377470535101
35	6500	43.309681356491	0.15267428808352
35	6540	43.462355644575	0.81052263902361
35	6669	44.272878283599	0.97709181077198
35	6839	45.249970094371	2.032329341825
35	7163	47.282299436196	3.3401920182615
35	7708	50.622491454458	0.95471980420859
35	7844	51.577211258667	2.1918937377822
35	8136	53.769104996449	0.18679074127202
35	8174	53.955895737721	1.1590293387138
35	8331	55.114925076435	0.35201660094368
35	8376	55.466941677379	0.092441944916609
35	8388	55.559383622296	0.21113031341015
35	8416	55.770513935706	0.81952314822842
35	8538	56.590037083934	2.9484849795201
35	9022	59.538522063454	0.01264612635853
35	9023	59.551168189813	0.2911809692822
35	9064	59.842349159095	3.0132616725697
36	0	0	0.0077777777777778
37	0	0	1.8424685458582
37	352	1.842468545858	1.8652371660424
37	617	3.7077057119	0.45393375402447
37	672	4.161639465924	1.4246118977498
37	959	5.586251363674	1.01186583202
37	1088	6.598117195694	1.7909537309744
37	1354	8.389070926668	1.2938159688892
37	1555	9.682886895557	0.29959524160663
37	1604	9.982482137164	0.45493635252249
37	1682	10.437418489686	1.520041291401
37	1897	11.957459781087	0.076392849547402
37	1902	12.033852630634	1.1970563688741
37	2087	13.230908999508	2.712599691388
37	2461	15.943508690896	0.96193772968859
37	2587	16.905446420585	1.008093751986
37	2751	17.913540172571	0.47190110038894
37	2835	18.38544127296	0.4944964179988
37	2914	18.879937690959	0.31136329562275
37	2988	19.191300986582	0.90672624907714
37	3105	20.098027235659	0.12949827435377
37	3129	20.227525510013	1.0137340784956
37	3294	21.241259588509	2.1026734159389
37	3610	23.343933004448	0.072068070034942
37	3620	23.416001074483	0.60221130732644
37	3714	24.018212381809	2.9330874203796
37	4145	26.951299802189	1.3310948703317
37	4359	28.282394672521	0.52916962433068
37	4436	28.811564296852	1.3372778466123
37	4612	30.148842143464	0.018086542421329
37	4615	30.166928685885	0.46047886673196
37	4681	30.627407552617	0.32596295613971
37	4722	30.953370508757	0.50514441942167
37	4788	31.458514928179	1.0987564156344
37	4943	32.557271343813	0.89589311386146
37	5090	33.453164457674	0.034566261761794
37	5095	33.487730719436	0.8585369912658
37	5229	34.346267710702	0.26307215224675
37	5260	34.609339862949	0.41993155963376
37	5319	35.029271422583	0.11426203766919
37	5330	35.143533460252	0.14309132965271
37	5344	35.286624789905	0.42745137984611
37	5411	35.714076169751	0.69696399213407
37	5500	36.411040161885	0.46136047063308
[...]
229	8339	55.193246998406	0
229	8489	56.281560658201	0
229	8704	57.500745417195	0
229	8888	58.764154046893	0
229	8897	58.805536451797	0
229	9058	59.807202486002	0
230	247	1.05089196372	0.007777777778
230	377	2.06072201863	0.007777777778
230	383	2.081748649294	0.007777777778
230	439	2.422286765675	0.007777777778
230	603	3.583743620986	0.007777777778
230	684	4.319775585925	0.007777777778
230	714	4.539700925278	0.007777777778
230	1227	7.524598062545	0.007777777778
230	1472	9.155459594132	0.007777777778
230	1481	9.218860876471	0.007777777778
230	1504	9.329809594452	0.007777777778
230	1608	9.993382478775	0.007777777778
230	2009	12.720691482433	0.007777777778
230	2037	12.938747981775	0.007777777778
230	2197	14.11688562991	0.007777777778
230	2521	16.483462873374	0.007777777778
230	2741	17.847530463183	0.007777777778
230	2820	18.280243587447	0.007777777778
230	2923	18.908256728712	0.007777777778
230	2931	18.918596294287	0.007777777778
230	3166	20.545863373305	0.007777777778
230	3235	20.81665545059	0.007777777778
230	3264	20.985167202744	0.007777777778
230	3497	22.586984701914	0.007777777778
230	3795	24.605092099685	0.007777777778
230	3979	25.98068748236	0.007777777778
230	4118	26.842271512732	0.007777777778
230	4137	26.883579027795	0.007777777778
230	4393	28.558211634409	0.007777777778
230	4699	30.69301747956	0.007777777778
230	4750	31.107945457449	0.007777777778
230	4840	31.859991976899	0.007777777778
230	4864	32.00462717822	0.007777777778
230	4888	32.125494919948	0.007777777778
230	5061	33.302565129452	0.007777777778
230	5180	34.058736494976	0.007777777778
230	5198	34.146623671408	0.007777777778
230	5275	34.709107716574	0.007777777778
230	5373	35.483554602162	0.007777777778
230	5435	35.890750959956	0.007777777778
230	5749	38.145004612871	0.007777777778
230	5765	38.186816770567	0.007777777778
230	6021	39.784356221491	0.007777777778
230	6111	40.267424397859	0.007777777778
230	6144	40.476501099699	0.007777777778
230	6193	40.8149712528	0.007777777778
230	6286	41.458479381998	0.007777777778
230	6371	42.158546628854	0.007777777778
230	6386	42.285707933187	0.007777777778
230	6589	43.703678150708	0.007777777778
230	6777	44.907681193052	0.007777777778
230	6827	45.165443013029	0.007777777778
230	7266	47.86679607573	0.007777777778
230	7609	49.974713389447	0.007777777778
230	7680	50.430281098902	0.007777777778
230	7835	51.550882304753	0.007777777778
230	8085	53.36226085923	0.007777777778
230	8339	55.193246998406	0.007777777778
230	8489	56.281560658201	0.007777777778
230	8704	57.500745417195	0.007777777778
230	8888	58.764154046893	0.007777777778
230	8897	58.805536451797	0.007777777778
230	9058	59.807202486002	0.007777777778
231	362	1.912119027709	0
231	489	2.814316283963	0
231	528	3.035754238289	0
231	629	3.845555186036	0
231	1093	6.63831380271	0
231	1164	7.086482211057	0
231	1315	8.107773392984	0
231	1422	8.872758652857	0
231	1665	10.270982784181	0
231	1806	11.42732042421	0
231	1875	11.827835070755	0
231	1911	12.116930921835	0
231	1934	12.262650435221	0
231	2137	13.694686869932	0
231	2216	14.314571348448	0
231	2252	14.560836767049	0
231	2272	14.706595425511	0
231	2368	15.403900977427	0
231	2424	15.682303728639	0
231	2576	16.857743719477	0
231	2676	17.520467824023	0
231	2691	17.602872380926	0
231	2725	17.769418766409	0
231	2813	18.242923230259	0
231	2856	18.461632808231	0
231	2974	19.154622318065	0
231	3195	20.683654190853	0
231	3246	20.876137387314	0
231	3336	21.48412811363	0
231	3375	21.783151246764	0
231	3436	22.21422670985	0
231	3517	22.758430694635	0
231	3642	23.530406097509	0
231	3648	23.548737146301	0
231	3712	24.012912110336	0
231	3733	24.142246097532	0
231	3939	25.712127849237	0
231	4041	26.351682281696	0
231	4161	27.032743069413	0
231	4238	27.400399847504	0
231	4454	28.916322978628	0
231	4852	31.954223750039	0
231	4857	31.961967316673	0
231	5221	34.283536492486	0
231	5379	35.507633318406	0
231	5504	36.434467727314	0
231	5559	36.772067020627	0
231	5755	38.155032235897	0
231	5954	39.352310684083	0
231	6153	40.529659484221	0
231	6503	43.313376007817	0
231	6561	43.594060033133	0
231	6820	45.141005552346	0
231	6848	45.289855273241	0
231	6859	45.312077873283	0
231	6873	45.344458736107	0
231	6933	45.751744355401	0
231	6944	45.820124703617	0
231	6980	45.99351599654	0
231	7080	46.713310098155	0
231	7187	47.42191124201	0
231	7191	47.429088077855	0
231	7199	47.448281602644	0
231	7218	47.574117222848	0
231	7224	47.583739645468	0
231	7372	48.434985515899	0
231	7405	48.688598509606	0
231	7502	49.325080308597	0
231	7630	50.105938070496	0
231	7803	51.204421209594	0
231	7842	51.572772159316	0
231	8078	53.323773424949	0
231	8139	53.771756954388	0
231	8240	54.519621340333	0
231	8274	54.802388142775	0
231	8313	54.999956287777	0
231	8371	55.455301749423	0
231	8824	58.351884143557	0
231	8902	58.852071681672	0
232	362	1.912119027709	0
232	489	2.814316283963	0
232	528	3.035754238289	0
232	629	3.845555186036	0
232	1093	6.63831380271	0
232	1164	7.086482211057	0
232	1315	8.107773392984	0
232	1422	8.872758652857	0
232	1665	10.270982784181	0
232	1806	11.42732042421	0
232	1875	11.827835070755	0
232	1911	12.116930921835	0
232	1934	12.262650435221	0
232	2137	13.694686869932	0
232	2216	14.314571348448	0
232	2252	14.560836767049	0
232	2272	14.706595425511	0
232	2368	15.403900977427	0
232	2424	15.682303728639	0
232	2576	16.857743719477	0
232	2676	17.520467824023	0
232	2691	17.602872380926	0
232	2725	17.769418766409	0
232	2813	18.242923230259	0
232	2856	18.461632808231	0
232	2974	19.154622318065	0
232	3195	20.683654190853	0
232	3246	20.876137387314	0
232	3336	21.48412811363	0
232	3375	21.783151246764	0
232	3436	22.21422670985	0
232	3517	22.758430694635	0
232	3642	23.530406097509	0
232	3648	23.548737146301	0
232	3712	24.012912110336	0
232	3733	24.142246097532	0
232	3939	25.712127849237	0
232	4041	26.351682281696	0
232	4161	27.032743069413	0
232	4238	27.400399847504	0
232	4454	28.916322978628	0
232	4852	31.954223750039	0
232	4858	31.962001527817	3.4211144e-005
232	5221	34.283536492486	0
232	5379	35.507633318406	0
232	5504	36.434467727314	0
232	5559	36.772067020627	0
232	5755	38.155032235897	0
232	5954	39.352310684083	0
232	6153	40.529659484221	0
232	6503	43.313376007817	0
232	6561	43.594060033133	0
232	6820	45.141005552346	0
232	6848	45.289855273241	0
232	6859	45.312077873283	0
232	6873	45.344458736107	0
232	6933	45.751744355401	0
232	6944	45.820124703617	0
232	6980	45.99351599654	0
232	7080	46.713310098155	0
232	7187	47.42191124201	0
232	7192	47.429689019788	0.000600941933
232	7199	47.448281602644	0
232	7218	47.574117222848	0
232	7224	47.583739645468	0
232	7372	48.434985515899	0
232	7405	48.688598509606	0
232	7502	49.325080308597	0
232	7630	50.105938070496	0
232	7803	51.204421209594	0
232	7842	51.572772159316	0
232	8078	53.323773424949	0
232	8139	53.771756954388	0
232	8240	54.519621340333	0
232	8274	54.802388142775	0
232	8313	54.999956287777	0
232	8371	55.455301749423	0
232	8824	58.351884143557	0
232	8902	58.852071681672	0
233	362	1.912119027709	0.007777777778
233	489	2.814316283963	0.007777777778
233	528	3.035754238289	0.007777777778
233	629	3.845555186036	0.007777777778
233	1093	6.63831380271	0.007777777778
233	1164	7.086482211057	0.007777777778
233	1315	8.107773392984	0.007777777778
233	1422	8.872758652857	0.007777777778
233	1665	10.270982784181	0.007777777778
233	1806	11.42732042421	0.007777777778
233	1875	11.827835070755	0.007777777778
233	1911	12.116930921835	0.007777777778
233	1934	12.262650435221	0.007777777778
233	2137	13.694686869932	0.007777777778
233	2216	14.314571348448	0.007777777778
233	2252	14.560836767049	0.007777777778
233	2272	14.706595425511	0.007777777778
233	2368	15.403900977427	0.007777777778
233	2424	15.682303728639	0.007777777778
233	2576	16.857743719477	0.007777777778
233	2676	17.520467824023	0.007777777778
233	2691	17.602872380926	0.007777777778
233	2725	17.769418766409	0.007777777778
233	2813	18.242923230259	0.007777777778
233	2856	18.461632808231	0.007777777778
233	2974	19.154622318065	0.007777777778
233	3195	20.683654190853	0.007777777778
233	3246	20.876137387314	0.007777777778
233	3336	21.48412811363	0.007777777778
233	3375	21.783151246764	0.007777777778
233	3436	22.21422670985	0.007777777778
233	3517	22.758430694635	0.007777777778
233	3642	23.530406097509	0.007777777778
233	3648	23.548737146301	0.007777777778
233	3712	24.012912110336	0.007777777778
233	3733	24.142246097532	0.007777777778
233	3939	25.712127849237	0.007777777778
233	4041	26.351682281696	0.007777777778
233	4161	27.032743069413	0.007777777778
233	4238	27.400399847504	0.007777777778
233	4454	28.916322978628	0.007777777778
233	4852	31.954223750039	0.007777777778
233	4858	31.962001527817	0.007811988922
233	5221	34.283536492486	0.007777777778
233	5379	35.507633318406	0.007777777778
233	5504	36.434467727314	0.007777777778
233	5559	36.772067020627	0.007777777778
233	5755	38.155032235897	0.007777777778
233	5954	39.352310684083	0.007777777778
233	6153	40.529659484221	0.007777777778
233	6503	43.313376007817	0.007777777778
233	6561	43.594060033133	0.007777777778
233	6820	45.141005552346	0.007777777778
233	6848	45.289855273241	0.007777777778
233	6859	45.312077873283	0.007777777778
233	6873	45.344458736107	0.007777777778
233	6933	45.751744355401	0.007777777778
233	6944	45.820124703617	0.007777777778
233	6980	45.99351599654	0.007777777778
233	7080	46.713310098155	0.007777777778
233	7187	47.42191124201	0.007777777778
233	7192	47.429689019788	0.008378719711
233	7199	47.448281602644	0.007777777778
233	7218	47.574117222848	0.007777777778
233	7224	47.583739645468	0.007777777778
233	7372	48.434985515899	0.007777777778
233	7405	48.688598509606	0.007777777778
233	7502	49.325080308597	0.007777777778
233	7630	50.105938070496	0.007777777778
233	7803	51.204421209594	0.007777777778
233	7842	51.572772159316	0.007777777778
233	8078	53.323773424949	0.007777777778
233	8139	53.771756954388	0.007777777778
233	8240	54.519621340333	0.007777777778
233	8274	54.802388142775	0.007777777778
233	8313	54.999956287777	0.007777777778
233	8371	55.455301749423	0.007777777778
233	8824	58.351884143557	0.007777777778
233	8902	58.852071681672	0.007777777778
234	391	2.108676559281	0
234	406	2.227013265642	0
234	550	3.236373232926	0
234	703	4.439198776738	0
234	746	4.746699845583	0
234	1337	8.283319803489	0
234	1432	8.918579590251	0
234	2286	14.865178554432	0
234	2350	15.314976281243	0
234	2389	15.475165973395	0
234	2533	16.547638038768	0
234	2549	16.617124234061	0
234	2791	18.164855835729	0
234	2845	18.435779369347	0
234	2936	18.924273933173	0
234	3058	19.778556397503	0
234	3493	22.584867597847	0
234	3545	22.911420338789	0
234	3830	24.872148018507	0
234	3892	25.3742238478	0
234	4010	26.170339021473	0
234	4018	26.2145716123	0
234	4151	26.989226250801	0
234	4324	28.066216108626	0
234	4348	28.227255407559	0
234	4558	29.757532391906	0
234	4666	30.514056478463	0
234	4950	32.578577181067	0
234	5023	33.077022200717	0
234	5191	34.107703276835	0
234	5587	37.017923341602	0
234	6026	39.798043190689	0
234	6128	40.356287081829	0
234	6231	41.077846586685	0
234	6272	41.329051479103	0
234	6771	44.889589359356	0
234	6795	45.011074387477	0
234	6854	45.300875032177	0
234	6966	45.961107906242	0
234	7250	47.793597848976	0
234	7291	47.946781745501	0
234	7310	48.033372293379	0
234	7360	48.373116970156	0
234	7581	49.820010888838	0
234	7694	50.512703937641	0
234	7886	51.950953609859	0
234	8100	53.452918786406	0
234	8145	53.796833113985	0
234	8964	59.310718964594	0
234	9012	59.515207037962	0
235	391	2.108676559281	0
235	406	2.227013265642	0
235	550	3.236373232926	0
235	703	4.439198776738	0
235	746	4.746699845583	0
235	1337	8.283319803489	0
235	1432	8.918579590251	0
235	2286	14.865178554432	0
235	2350	15.314976281243	0
235	2389	15.475165973395	0
235	2533	16.547638038768	0
235	2549	16.617124234061	0
235	2791	18.164855835729	0
235	2845	18.435779369347	0
235	2936	18.924273933173	0
235	3058	19.778556397503	0
235	3493	22.584867597847	0
235	3545	22.911420338789	0
235	3830	24.872148018507	0
235	3892	25.3742238478	0
235	4010	26.170339021473	0
235	4018	26.2145716123	0
235	4151	26.989226250801	0
235	4324	28.066216108626	0
235	4348	28.227255407559	0
235	4558	29.757532391906	0
235	4666	30.514056478463	0
235	4950	32.578577181067	0
235	5023	33.077022200717	0
235	5191	34.107703276835	0
235	5587	37.017923341602	0
235	6026	39.798043190689	0
235	6128	40.356287081829	0
235	6231	41.077846586685	0
235	6272	41.329051479103	0
235	6771	44.889589359356	0
235	6795	45.011074387477	0
235	6854	45.300875032177	0
235	6966	45.961107906242	0
235	7250	47.793597848976	0
235	7291	47.946781745501	0
235	7310	48.033372293379	0
235	7360	48.373116970156	0
235	7581	49.820010888838	0
235	7694	50.512703937641	0
235	7886	51.950953609859	0
235	8100	53.452918786406	0
235	8145	53.796833113985	0
235	8964	59.310718964594	0
235	9012	59.515207037962	0
236	391	2.108676559281	0.007777777778
236	406	2.227013265642	0.007777777778
236	550	3.236373232926	0.007777777778
236	703	4.439198776738	0.007777777778
236	746	4.746699845583	0.007777777778
236	1337	8.283319803489	0.007777777778
236	1432	8.918579590251	0.007777777778
236	2286	14.865178554432	0.007777777778
236	2350	15.314976281243	0.007777777778
236	2389	15.475165973395	0.007777777778
236	2533	16.547638038768	0.007777777778
236	2549	16.617124234061	0.007777777778
236	2791	18.164855835729	0.007777777778
236	2845	18.435779369347	0.007777777778
236	2936	18.924273933173	0.007777777778
236	3058	19.778556397503	0.007777777778
236	3493	22.584867597847	0.007777777778
236	3545	22.911420338789	0.007777777778
236	3830	24.872148018507	0.007777777778
236	3892	25.3742238478	0.007777777778
236	4010	26.170339021473	0.007777777778
236	4018	26.2145716123	0.007777777778
236	4151	26.989226250801	0.007777777778
236	4324	28.066216108626	0.007777777778
236	4348	28.227255407559	0.007777777778
236	4558	29.757532391906	0.007777777778
236	4666	30.514056478463	0.007777777778
236	4950	32.578577181067	0.007777777778
236	5023	33.077022200717	0.007777777778
236	5191	34.107703276835	0.007777777778
236	5587	37.017923341602	0.007777777778
236	6026	39.798043190689	0.007777777778
236	6128	40.356287081829	0.007777777778
236	6231	41.077846586685	0.007777777778
236	6272	41.329051479103	0.007777777778
236	6771	44.889589359356	0.007777777778
236	6795	45.011074387477	0.007777777778
236	6854	45.300875032177	0.007777777778
236	6966	45.961107906242	0.007777777778
236	7250	47.793597848976	0.007777777778
236	7291	47.946781745501	0.007777777778
236	7310	48.033372293379	0.007777777778
236	7360	48.373116970156	0.007777777778
236	7581	49.820010888838	0.007777777778
236	7694	50.512703937641	0.007777777778
236	7886	51.950953609859	0.007777777778
236	8100	53.452918786406	0.007777777778
236	8145	53.796833113985	0.007777777778
236	8964	59.310718964594	0.007777777778
236	9012	59.515207037962	0.007777777778
237	432	2.390054606466	0
237	458	2.617648057583	0
237	511	2.953623163949	0
237	582	3.451833715698	0
237	635	3.88630414108	0
237	955	5.568570500625	0
237	1155	7.057352576462	0
237	1598	9.957560566326	0
237	1612	9.993830755201	0
237	1685	10.446733662161	0
237	1892	11.920155192722	0
237	2498	16.32534743463	0
237	2631	17.317852947229	0
237	2704	17.664356012176	0
237	3109	20.133197324042	0
237	3218	20.779511442498	0
237	3476	22.425980438184	0
237	3522	22.770505214	0
237	3527	22.782222731558	0
237	3539	22.872471106324	0
237	3586	23.219461079548	0
237	3631	23.44284758504	0
237	3947	25.766584946422	0
237	3970	25.918150542097	0
237	4169	27.070198271518	0
237	4228	27.348401329352	0
237	4330	28.102952803198	0
237	4914	32.286471658794	0
237	5126	33.637828251915	0
237	5668	37.679943670105	0
237	5741	38.117561264865	0
237	5973	39.462079461521	0
237	6077	40.053351052959	0
237	6170	40.63222198731	0
237	6264	41.305778972688	0
237	6488	43.166074665061	0
237	6696	44.508342988962	0
237	7270	47.866938852166	0
237	7304	48.005196064364	0
237	7427	48.732486211896	0
237	7660	50.271127262607	0
237	7671	50.364689249826	0
237	7688	50.500012534702	0
237	7749	50.866453814251	0
237	7786	51.088034731725	0
237	7926	52.227275224533	0
237	7964	52.461830358289	0
237	8003	52.841672784104	0
237	8038	53.005546250302	0
237	8054	53.108886200701	0
237	8204	54.204654630537	0
237	8450	56.053389857007	0
237	8678	57.378404848572	0
237	8802	58.237542427306	0
237	8839	58.45390541762	0
237	8968	59.314916333098	0
237	9075	59.923152831952	0
238	432	2.390054606466	0
238	458	2.617648057583	0
238	511	2.953623163949	0
238	582	3.451833715698	0
238	635	3.88630414108	0
238	955	5.568570500625	0
238	1155	7.057352576462	0
238	1598	9.957560566326	0
238	1612	9.993830755201	0
238	1685	10.446733662161	0
238	1892	11.920155192722	0
238	2498	16.32534743463	0
238	2631	17.317852947229	0
238	2704	17.664356012176	0
238	3109	20.133197324042	0
238	3218	20.779511442498	0
238	3476	22.425980438184	0
238	3522	22.770505214	0
238	3527	22.782222731558	0
238	3539	22.872471106324	0
238	3586	23.219461079548	0
238	3631	23.44284758504	0
238	3947	25.766584946422	0
238	3970	25.918150542097	0
238	4169	27.070198271518	0
238	4228	27.348401329352	0
238	4330	28.102952803198	0
238	4914	32.286471658794	0
238	5126	33.637828251915	0
238	5668	37.679943670105	0
238	5741	38.117561264865	0
238	5973	39.462079461521	0
238	6077	40.053351052959	0
238	6170	40.63222198731	0
238	6264	41.305778972688	0
238	6488	43.166074665061	0
238	6696	44.508342988962	0
238	7270	47.866938852166	0
238	7304	48.005196064364	0
238	7427	48.732486211896	0
238	7660	50.271127262607	0
238	7671	50.364689249826	0
238	7688	50.500012534702	0
238	7749	50.866453814251	0
238	7786	51.088034731725	0
238	7926	52.227275224533	0
238	7964	52.461830358289	0
238	8003	52.841672784104	0
238	8038	53.005546250302	0
238	8054	53.108886200701	0
238	8204	54.204654630537	0
238	8450	56.053389857007	0
238	8678	57.378404848572	0
238	8802	58.237542427306	0
238	8839	58.45390541762	0
238	8968	59.314916333098	0
238	9075	59.923152831952	0
239	432	2.390054606466	0.007777777778
239	458	2.617648057583	0.007777777778
239	511	2.953623163949	0.007777777778
239	582	3.451833715698	0.007777777778
239	635	3.88630414108	0.007777777778
239	955	5.568570500625	0.007777777778
239	1155	7.057352576462	0.007777777778
239	1598	9.957560566326	0.007777777778
239	1612	9.993830755201	0.007777777778
239	1685	10.446733662161	0.007777777778
239	1892	11.920155192722	0.007777777778
239	2498	16.32534743463	0.007777777778
239	2631	17.317852947229	0.007777777778
239	2704	17.664356012176	0.007777777778
239	3109	20.133197324042	0.007777777778
239	3218	20.779511442498	0.007777777778
239	3476	22.425980438184	0.007777777778
239	3522	22.770505214	0.007777777778
239	3527	22.782222731558	0.007777777778
239	3539	22.872471106324	0.007777777778
239	3586	23.219461079548	0.007777777778
239	3631	23.44284758504	0.007777777778
239	3947	25.766584946422	0.007777777778
239	3970	25.918150542097	0.007777777778
239	4169	27.070198271518	0.007777777778
239	4228	27.348401329352	0.007777777778
239	4330	28.102952803198	0.007777777778
239	4914	32.286471658794	0.007777777778
239	5126	33.637828251915	0.007777777778
239	5668	37.679943670105	0.007777777778
239	5741	38.117561264865	0.007777777778
239	5973	39.462079461521	0.007777777778
239	6077	40.053351052959	0.007777777778
239	6170	40.63222198731	0.007777777778
239	6264	41.305778972688	0.007777777778
239	6488	43.166074665061	0.007777777778
239	6696	44.508342988962	0.007777777778
239	7270	47.866938852166	0.007777777778
239	7304	48.005196064364	0.007777777778
239	7427	48.732486211896	0.007777777778
239	7660	50.271127262607	0.007777777778
239	7671	50.364689249826	0.007777777778
239	7688	50.500012534702	0.007777777778
239	7749	50.866453814251	0.007777777778
239	7786	51.088034731725	0.007777777778
239	7926	52.227275224533	0.007777777778
239	7964	52.461830358289	0.007777777778
239	8003	52.841672784104	0.007777777778
239	8038	53.005546250302	0.007777777778
239	8054	53.108886200701	0.007777777778
239	8204	54.204654630537	0.007777777778
239	8450	56.053389857007	0.007777777778
239	8678	57.378404848572	0.007777777778
239	8802	58.237542427306	0.007777777778
239	8839	58.45390541762	0.007777777778
239	8968	59.314916333098	0.007777777778
239	9075	59.923152831952	0.007777777778

