version 2
run non-monitoring-0-20201231-11:34:26-20816
attr configname non-monitoring
attr datetime 20201231-11:34:26
attr experiment non-monitoring
attr inifile aerocom.ini
attr iterationvars ""
attr iterationvarsf ""
attr measurement ""
attr network Aerocom
attr processid 20816
attr repetition 0
attr replication #0
attr resultdir results
attr runnumber 0
attr seedset 0
param **.t 0.5s
param **.k 0.5s
param **.nDL 1
param **.dataLink[*].s "70 byte"
param **.dataLink[*].X 0
param **.dataLink[*].dimPoolMax 100
param **.dataLink[*].dimPoolMin 10
param **.dataLink[*].tDistribution "\"exponential\""
param **.aircraft[*].m 1s
param **.aircraft[*].linkSelector.DLMaxCapacity 0
param **.aircraft[*].linkSelector.trasmitting false
param **.operationMode 1

vector 0 Aerocom.aircraft[0].dataLink[0] queueLength:vector ETV
attr "" ""
attr source computeQueueLength
vector 1 Aerocom.aircraft[0].dataLink[0] waitingTime:vector ETV
attr "" ""
attr source computeWaitingTime
vector 2 Aerocom.aircraft[0].dataLink[0] responseTime:vector ETV
attr "" ""
attr source computeResponseTime
0	120893	10000.335380543637	0
0	120899	10000.350007797999	0
0	120905	10000.910532644909	0
0	120909	10001.345078550119	0
0	120920	10003.136975116251	0
0	120925	10003.651005338807	0
0	120931	10004.956349512024	1
0	120946	10008.083893554735	0
0	120951	10008.557103249732	0
0	120957	10008.719418977318	0
0	120962	10008.743089940826	0
0	120969	10010.071747050249	0
0	120973	10010.465814139529	0
0	120981	10011.486674417187	0
0	120984	10011.745129989401	1
0	120987	10012.025006000663	2
0	120993	10012.418491832125	2
0	121001	10013.199310052749	2
0	121004	10013.219812920707	3
0	121008	10013.606152781937	4
0	121027	10016.338009453049	0
0	121031	10016.395793708217	0
0	121034	10016.425116136376	1
0	121037	10016.46048900533	2
0	121041	10016.619683326284	3
0	121044	10016.768484753509	4
0	121047	10016.805913357318	5
0	121050	10016.983012572289	6
0	121053	10017.379619118155	7
0	121057	10017.702236272822	8
0	121060	10017.919028378029	9
0	121063	10018.202135092698	10
0	121069	10018.437376837811	10
0	121073	10018.565758430108	11
0	121078	10019.344104127095	11
0	121083	10019.884900856577	12
0	121088	10021.056709175904	13
0	121102	10022.965324624397	13
0	121105	10023.055903931807	14
0	121110	10023.527048914831	14
0	121114	10023.690590995446	15
0	121117	10023.721124398588	16
0	121120	10024.04114435473	17
0	121124	10024.266920242066	18
0	121127	10024.326808691832	19
0	121171	10024.504648629187	0
0	121176	10024.748967175029	0
0	121181	10024.83521835821	0
0	121184	10025.015049519984	1
0	121187	10025.089525886106	2
0	121192	10026.364897473081	2
0	121196	10026.493240918855	3
0	121199	10026.603897358077	4
0	121205	10027.032119844905	4
0	121208	10027.670770589089	5
0	121213	10027.819376080443	5
0	121216	10027.940981107434	6
0	121224	10029.68629897302	6
0	121227	10030.177592209922	7
0	121230	10030.231166036916	8
0	121234	10030.667291873443	9
0	121237	10030.809855202539	10
0	121240	10031.116768456997	11
0	121243	10031.328998522567	12
0	121250	10032.177879888013	12
0	121253	10032.222551194523	13
0	121256	10032.348526705276	14
0	121259	10033.194868670316	15
0	121262	10033.519223553239	16
0	121265	10033.689029917897	17
0	121274	10035.709458343192	16
0	121279	10035.973469949791	16
0	121283	10036.07468827935	17
0	121329	10038.264962646802	0
0	121336	10038.659167026947	0
0	121343	10039.664637169177	0
0	121348	10039.838074293437	1
0	121351	10040.015928689858	2
0	121354	10040.082012601414	3
0	121357	10040.091536921994	4
0	121361	10041.045435252542	5
0	121364	10041.085035007554	6
0	121371	10041.516029618001	6
0	121376	10042.01236766496	7
0	121381	10042.444726148054	7
0	121384	10042.967165121356	8
0	121407	10043.361262031962	0
0	121412	10043.646852323787	0
0	121417	10043.748809697552	0
0	121423	10043.85162437286	0
0	121428	10044.27202258374	0
0	121433	10044.671748006917	0
0	121436	10044.719667121867	1
0	121445	10045.786851041624	1
0	121450	10046.360713238274	1
0	121457	10047.443934939081	2
0	121460	10047.470349108199	3
0	121464	10047.573408562247	4
0	121467	10047.678245352088	5
0	121470	10047.770568919416	6
0	121473	10047.944793214091	7
0	121476	10048.097474481759	8
0	121479	10048.260984857445	9
0	121482	10048.441170351849	10
0	121488	10049.277099140783	10
0	121491	10049.345498342156	11
0	121494	10049.515161943715	12
0	121497	10050.206277711323	13
0	121500	10050.244695502105	14
0	121503	10050.691037796612	15
0	121506	10050.72623974296	16
0	121511	10051.290184941447	17
0	121515	10051.37109953802	18
0	121518	10051.42619137509	19
0	121521	10051.67678738229	20
0	121524	10051.838316737382	21
0	121527	10051.947901362649	22
0	121531	10052.119225154176	23
0	121534	10052.253179494386	24
0	121539	10052.316875318086	24
0	121543	10052.418530864396	25
0	121548	10052.753142176355	26
0	121552	10052.930577174208	27
0	121556	10053.099931869119	28
0	121561	10053.451387950609	28
0	121567	10053.815010532347	29
0	121634	10055.591260429348	0
0	121638	10055.622685143652	0
0	121645	10056.407770772261	1
0	121651	10057.020455376093	1
0	121655	10057.115140971443	2
0	121662	10058.068334578148	2
0	121666	10058.880231527898	3
0	121669	10059.326241967866	4
0	121673	10059.945339575392	5
0	121676	10060.02161029202	6
0	121695	10061.20276940412	0
0	121701	10061.664147076553	0
0	121706	10061.949352389775	0
0	121711	10062.013240356758	0
0	121717	10063.022314570045	0
0	121722	10063.08938163842	0
0	121727	10063.688195211542	1
0	121733	10064.189690299549	1
0	121736	10064.349168378576	2
0	121739	10064.401596655099	3
0	121742	10064.648561368536	4
0	121745	10064.689648632971	5
0	121752	10065.601207435508	5
0	121756	10065.76606564451	6
0	121765	10066.590446903028	6
0	121769	10066.628678817902	7
0	121772	10066.76953277316	8
0	121776	10067.784645821977	9
0	121782	10068.689425971085	9
0	121790	10069.128219805141	9
0	121794	10070.585361157717	10
0	121798	10070.873084808621	11
0	121802	10071.924007970674	12
0	121806	10072.218195078563	13
0	121809	10072.458252787687	14
0	121815	10073.246347694878	14
0	121820	10073.635876510383	15
0	121825	10074.210439396255	15
0	121833	10075.145712959035	15
0	121837	10075.390512530002	16
0	121842	10076.020608526707	17
0	121848	10076.662948368379	17
0	121853	10077.280344704583	18
0	121864	10079.179188426658	17
0	121867	10079.347100675006	18
0	121870	10079.356229573114	19
0	121873	10079.82806296106	20
0	121883	10081.129526671668	19
0	121887	10081.157526805098	20
0	121891	10081.281865628795	21
0	121895	10081.458169665135	22
0	121900	10082.407711589725	23
0	121903	10082.521029447894	24
0	121909	10083.597271232435	25
0	121913	10083.841978288043	26
0	121921	10084.843254290273	26
0	121926	10085.513398005043	26
0	121933	10086.340014868116	26
0	121936	10086.490933178428	27
0	121939	10086.615322574644	28
0	121942	10086.713886951278	29
0	121945	10086.745182043387	30
0	121950	10087.66787508707	30
0	121953	10087.802939787006	31
0	122022	10089.036068398981	0
0	122027	10089.517644418989	0
0	122030	10089.813135234404	1
0	122038	10090.516863502247	1
0	122041	10090.657049777645	2
0	122046	10090.94656058544	3
0	122051	10091.091981377746	3
0	122059	10092.762390674705	3
0	122062	10093.031471859166	4
0	122082	10094.815690766774	0
0	122088	10095.626554661462	0
0	122093	10096.957734075922	1
0	122096	10097.36991091845	2
0	122102	10097.732295340435	3
0	122107	10098.162884149978	3
0	122110	10098.204686395097	4
0	122122	10100.11663095974	4
0	122125	10100.495721996625	5
0	122128	10100.536150914796	6
0	122148	10100.830332362237	0
0	122153	10101.152523626699	0
0	122158	10101.424678499761	0
0	122161	10101.751067344782	1
0	122169	10102.694318246157	1
0	122172	10103.098007235926	2
0	122177	10103.352430951048	2
0	122180	10103.444356458169	3
0	122184	10103.496272835238	4
0	122188	10103.588788733463	5
0	122206	10105.294338101729	0
0	122211	10105.562793348806	0
0	122219	10107.077828113045	0
0	122225	10107.54380607307	0
0	122232	10108.384368899104	0
0	122237	10108.564712190917	0
0	122241	10109.994782966311	1
0	122246	10110.338881896208	2
0	122258	10110.458566483244	0
0	122264	10112.620720001069	0
0	122269	10112.918095761753	0
0	122273	10112.933547590168	1
0	122276	10112.940998372053	2
0	122281	10113.254553843753	3
0	122284	10113.78380570361	4
0	122287	10114.104942148299	5
0	122292	10114.830837666194	5
0	122296	10115.419351200715	6
0	122304	10116.038213350592	6
0	122307	10116.193109108536	7
0	122310	10116.312755161533	8
0	122334	10117.117309324214	0
0	122338	10117.162014328358	0
0	122341	10117.418255671706	1
0	122352	10118.172836224822	0
0	122356	10118.222836121594	0
0	122359	10118.291515651993	1
0	122363	10118.788723552421	2
0	122369	10119.36892837094	2
0	122372	10119.382302217181	3
0	122380	10120.426354172064	3
0	122384	10121.057158999343	4
0	122400	10122.019994421308	0
0	122404	10122.026101720115	0
0	122408	10122.126955192044	1
0	122411	10122.580955538924	2
0	122417	10123.883013290586	2
0	122423	10124.906566217813	2
0	122434	10125.764379490951	0
0	122438	10126.363720280276	0
0	122442	10126.558874063007	1
0	122447	10127.048414461463	1
0	122450	10127.193630974758	2
0	122454	10127.476264067273	3
0	122466	10128.297840414797	0
0	122471	10128.502724227084	0
0	122476	10128.795328756156	0
0	122481	10129.026581080985	0
0	122488	10129.382954239692	0
0	122493	10129.617977190569	0
0	122498	10129.633167417254	0
0	122505	10130.010554922254	0
0	122511	10130.947371224213	0
0	122516	10131.024722518208	0
0	122522	10131.925237606702	0
0	122528	10132.993272908884	0
0	122533	10133.59179983661	0
0	122538	10134.083383222271	0
0	122541	10134.502426864827	1
0	122544	10134.736977862595	2
0	122550	10135.494295987523	2
0	122558	10137.508916291444	2
0	122561	10137.551376576787	3
0	122568	10138.581304039106	4
0	122572	10139.018976741361	5
0	122577	10139.485715771449	6
0	122580	10139.645163337099	7
0	122583	10139.877570943847	8
0	122590	10140.681087480594	9
0	122593	10140.91138656377	10
0	122599	10141.648236821745	10
0	122602	10141.682754717858	11
0	122605	10141.82870592066	12
0	122610	10142.038377127565	12
0	122613	10142.376420761893	13
0	122616	10142.517392862966	14
0	122621	10143.974366433536	14
0	122628	10144.443316611289	14
0	122631	10144.444475096776	15
0	122638	10145.081249950018	15
0	122642	10145.940390534495	16
0	122645	10146.113346224655	17
0	122649	10146.692153756067	18
0	122657	10147.087145269586	18
0	122660	10147.459234588972	19
0	122709	10148.232653133217	0
0	122714	10148.541194261095	0
0	122719	10149.054671085715	0
0	122724	10149.059259437972	0
0	122729	10149.739887290903	0
0	122736	10150.466558992244	0
0	122740	10150.589560218907	0
0	122743	10150.706841799505	1
0	122747	10151.210839107148	2
0	122751	10152.035441053958	3
0	122754	10152.195395163574	4
0	122757	10152.508278037103	5
0	122761	10152.639448048961	6
0	122766	10153.23142048128	7
0	122769	10153.389418238007	8
0	122772	10153.40905330999	9
0	122777	10153.637321088114	9
0	122780	10153.901882552504	10
0	122784	10154.220209660098	11
0	122791	10154.876913679116	11
0	122795	10155.007116704653	12
0	122802	10156.410864517946	12
0	122808	10156.626227898551	12
0	122811	10156.751100517469	13
0	122817	10157.885176500531	13
0	122821	10158.037092031226	14
0	122824	10158.109389301745	15
0	122828	10158.641741759261	16
0	122831	10158.763238940267	17
0	122834	10158.879191193033	18
0	122837	10158.910497486356	19
0	122842	10159.128180580319	20
0	122848	10159.745192384302	21
0	122852	10160.280623532882	22
0	122855	10160.657508317998	23
0	122858	10160.757479940908	24
0	122861	10161.079011574238	25
0	122864	10161.398787139555	26
0	122867	10161.416297802976	27
0	122872	10162.013656931196	27
0	122879	10163.640166273753	27
0	122883	10163.891218660106	28
0	122888	10164.820416334192	29
0	122891	10164.897120746077	30
0	122897	10165.755560219831	30
0	122904	10166.914810535724	30
0	122973	10167.955401979084	0
0	122977	10167.993052454148	0
0	122985	10168.743400621367	1
0	122991	10169.343139827059	1
0	122994	10169.418224384215	2
0	122997	10169.755378398475	3
0	123014	10171.534171224704	0
0	123020	10172.500220663703	0
0	123028	10173.85714268913	0
0	123032	10173.87219587607	0
0	123035	10174.467686515435	1
0	123039	10174.724842955394	2
0	123042	10174.897506089369	3
0	123046	10175.302730217896	4
0	123049	10175.303286080704	5
0	123052	10175.596554628366	6
0	123055	10175.929186184484	7
0	123060	10176.766899769325	8
0	123064	10177.218591307874	9
0	123069	10177.804922418865	10
0	123098	10180.36136610941	0
0	123106	10181.37883578222	0
0	123110	10181.450144939591	0
0	123114	10181.621283632792	1
0	123117	10181.667791091824	2
0	123121	10182.247324429718	3
0	123127	10182.525164835292	3
0	123130	10182.608371444112	4
0	123136	10183.303434721342	5
0	123144	10185.263838314032	5
0	123147	10185.471649317798	6
0	123156	10187.636234938794	6
0	123161	10188.179122840695	7
0	123166	10188.312206037488	8
0	123172	10189.413297195	8
0	123179	10189.708193860342	9
0	123186	10190.496103549811	9
0	123191	10190.736613915664	10
0	123194	10190.790181550375	11
0	123198	10190.972322135035	12
0	123202	10191.267685414544	13
0	123209	10192.569467675273	13
0	123212	10192.588834272397	14
0	123217	10193.297131971719	15
0	123222	10193.389477147403	15
0	123225	10194.102173332698	16
0	123230	10194.83855940771	16
0	123236	10196.125547766556	16
0	123239	10196.221184394892	17
0	123246	10196.6991737447	17
0	123249	10197.10831816448	18
0	123252	10197.146132685319	19
0	123257	10197.623360723898	19
0	123260	10197.726384869742	20
0	123263	10197.811563383667	21
0	123266	10197.971457634361	22
0	123271	10199.202964657896	22
0	123274	10199.303253751109	23
0	123277	10199.333395201314	24
0	123280	10199.357372272976	25
0	123289	10200.6154755191	24
0	123294	10200.842436600719	25
0	123297	10200.902842567928	26
0	123300	10201.009749823773	27
0	123363	10202.165411311702	0
0	123367	10202.410576277968	0
0	123371	10202.639922936829	1
0	123376	10202.868641027574	2
0	123381	10203.64858597717	3
0	123384	10203.819180393753	4
0	123387	10204.069814148455	5
0	123392	10204.663666926139	6
0	123397	10205.324213365441	7
0	123402	10205.59965780853	8
0	123409	10206.556251175848	9
0	123413	10206.963235369476	10
0	123420	10207.33591780003	10
0	123423	10207.668068776708	11
0	123428	10207.92526775103	12
0	123431	10207.939663613954	13
0	123436	10208.190623516197	13
0	123439	10208.409004049017	14
0	123442	10208.438132136978	15
0	123448	10209.340459748315	16
0	123451	10209.347923028466	17
0	123458	10210.428427706143	17
0	123461	10211.108877759178	18
0	123464	10211.12386049343	19
0	123508	10211.392273762755	0
0	123516	10212.430546689284	0
0	123520	10212.512449372535	0
0	123523	10212.563018365698	1
0	123530	10213.589075515207	1
0	123535	10214.069123133756	2
0	123538	10214.576863470325	3
0	123554	10216.775957840839	0
0	123558	10217.097664612926	0
0	123570	10219.173833040449	0
0	123574	10219.394626645887	0
0	123579	10220.03945573741	1
0	123582	10220.250822152548	2
0	123585	10220.79415587309	3
0	123588	10221.026302086065	4
0	123591	10221.149444438671	5
0	123598	10222.237660083427	5
0	123602	10222.853211691661	6
0	123605	10223.091105149365	7
0	123608	10223.877298247537	8
0	123611	10223.887050964335	9
0	123618	10224.222068017734	9
0	123621	10224.300356146532	10
0	123630	10225.11697325925	11
0	123635	10225.329456450336	11
0	123641	10226.261437804578	11
0	123644	10226.352409939597	12
0	123647	10226.636008108449	13
0	123653	10227.501758499733	14
0	123691	10229.148801650489	0
0	123700	10232.483804785186	0
0	123706	10233.049090394706	0
0	123710	10233.252445600171	1
0	123713	10233.544001738633	2
0	123717	10233.875976880666	3
0	123721	10234.057306783838	4
0	123724	10234.081701406659	5
0	123727	10234.199951741637	6
0	123730	10234.308075504584	7
0	123734	10234.702214542201	8
0	123737	10234.832287235392	9
0	123741	10235.327547741499	10
0	123768	10235.572636965567	0
0	123773	10235.808316908516	0
0	123783	10236.683865487823	0
0	123788	10237.355023858732	0
0	123791	10237.609778992707	1
0	123795	10238.220206602708	2
0	123798	10238.896498329962	3
0	123801	10239.191757562582	4
0	123804	10239.567770977992	5
0	123809	10240.059187111164	6
0	123813	10240.603987427484	7
0	123818	10240.898950407163	8
0	123821	10241.008790049061	9
0	123824	10241.049226567972	10
0	123827	10241.069019095705	11
0	123836	10241.765453534862	11
0	123839	10241.907079788159	12
0	123844	10242.93733592975	12
0	123847	10242.990701469641	13
0	123850	10243.143554440699	14
0	123885	10243.750007714031	0
0	123890	10244.31256193776	0
0	123895	10244.733647231435	0
0	123901	10244.830831388324	0
0	123906	10245.620015325931	0
0	123910	10245.700991445224	0
0	123914	10245.958572616928	1
0	123917	10246.09478900505	2
0	123921	10246.24567420717	3
0	123934	10246.706485546241	0
0	123941	10247.693273212305	0
0	123948	10247.89979588928	0
0	123956	10248.316610685637	0
0	123960	10248.403671277642	0
0	123963	10248.723852634179	1
0	123966	10248.793489578236	2
0	123973	10249.903272577683	2
0	123979	10250.906794347596	2
0	123983	10251.120505989567	3
0	123986	10251.133796908712	4
0	123989	10251.396683806752	5
0	123992	10251.661416064363	6
0	123996	10251.810244951355	7
0	124000	10252.062224954409	8
0	124003	10252.133414460322	9
0	124009	10252.834264443284	9
0	124012	10253.257292515838	10
0	124038	10253.674986293213	0
0	124044	10254.946310074198	0
0	124051	10255.504408714591	0
0	124057	10256.027611707953	0
0	124062	10256.899376745758	0
0	124068	10257.444491145949	0
0	124071	10258.14509898338	1
0	124079	10259.122557791735	2
0	124082	10259.214356475287	3
0	124086	10259.816544662344	4
0	124089	10260.206474997159	5
0	124092	10260.442229725339	6
0	124095	10260.710491780303	7
0	124099	10261.523593376014	8
0	124103	10262.690362867621	9
0	124106	10262.756555960114	10
0	124132	10263.042511842145	0
0	124138	10264.068304172843	0
0	124146	10265.377521194637	0
0	124150	10265.733321260229	0
0	124153	10265.764708445868	1
0	124158	10266.159340885512	2
0	124161	10266.226561386582	3
0	124175	10267.506434263367	0
0	124180	10267.524922082581	0
0	124186	10268.098844181892	0
0	124192	10268.691781212679	0
0	124196	10268.732477618217	0
0	124199	10269.012316691159	1
0	124203	10269.158098842251	2
0	124210	10270.676792759659	2
0	124215	10271.2970532504	2
0	124220	10271.562302336081	3
0	124223	10271.611175484625	4
0	124229	10271.780151612581	4
0	124232	10271.93158111791	5
0	124235	10272.371554021669	6
0	124238	10272.524604068143	7
0	124243	10273.425319210099	8
0	124246	10274.040321163286	9
0	124249	10274.687065215171	10
0	124253	10274.713566954418	11
0	124258	10275.322294333519	12
0	124261	10275.533839962712	13
0	124264	10275.561692572019	14
0	124267	10275.839580464905	15
0	124272	10276.205533387266	16
0	124275	10276.243592193448	17
0	124281	10276.782877235011	17
0	124284	10277.089492428167	18
0	124292	10279.011959971611	18
0	124295	10279.390971089847	19
0	124299	10279.870865810798	20
0	124305	10281.637976910967	21
0	124308	10281.975935681993	22
0	124312	10283.0097640408	23
0	124315	10283.466022414608	24
0	124322	10284.79961946735	24
0	124327	10285.528561477746	25
0	124330	10285.686417081169	26
0	124335	10285.829168690827	26
0	124338	10285.910526540941	27
0	124343	10286.60125022843	28
0	124405	10287.109986282423	0
0	124411	10287.402471869703	0
0	124416	10287.514997608184	0
0	124422	10287.532714042555	0
0	124427	10287.97424126384	0
0	124431	10288.044833613798	0
0	124434	10288.153740524546	1
0	124439	10288.643473108803	2
0	124442	10288.677154510926	3
0	124445	10288.80581374294	4
0	124450	10289.103755196363	4
0	124461	10290.34937372312	4
0	124465	10290.855292675188	5
0	124473	10291.585284516381	5
0	124476	10291.634716826602	6
0	124486	10293.287605637609	6
0	124489	10293.686546300155	7
0	124492	10293.691836594535	8
0	124499	10293.978927804187	8
0	124502	10294.964345452561	9
0	124507	10295.111693349767	9
0	124516	10296.304174718419	10
0	124519	10296.398472043669	11
0	124528	10298.070164403678	11
0	124532	10298.203663765762	12
0	124536	10298.633097774381	13
0	124543	10299.767728768478	14
0	124549	10300.056160712607	14
0	124552	10300.072355395718	15
0	124556	10300.342404998296	16
0	124560	10300.422186946729	17
0	124563	10300.744030120618	18
0	124569	10301.109111947492	18
0	124573	10301.662903636431	19
0	124620	10302.23676432616	0
0	124628	10303.0338638471	0
0	124633	10303.297951213824	0
0	124636	10303.339263702368	1
0	124640	10303.47671759786	2
0	124646	10303.633734559291	3
0	124649	10303.794076523481	4
0	124655	10304.458149630318	4
0	124658	10304.982202310545	5
0	124663	10305.293014211429	5
0	124667	10305.916979724091	6
0	124670	10306.045840210351	7
0	124681	10307.80390264009	7
0	124685	10308.110792349461	8
0	124690	10308.718659546524	8
0	124693	10309.580361555289	9
0	124696	10309.854379138658	10
0	124700	10309.965525873191	11
0	124704	10310.106402056499	12
0	124715	10311.35118465086	11
0	124719	10311.733655312409	12
0	124722	10312.123205188947	13
0	124728	10312.771553036602	13
0	124732	10313.055299636833	14
0	124735	10313.117283711853	15
0	124738	10313.2212279882	16
0	124741	10313.252064210501	17
0	124744	10313.41002234357	18
0	124747	10313.536925697092	19
0	124750	10313.7527000657	20
0	124753	10314.024415207733	21
0	124757	10314.797054824376	22
0	124808	10315.347123171815	0
0	124815	10315.677270202625	0
0	124819	10315.681863046372	0
0	124824	10316.618057331675	1
0	124829	10317.004754908196	2
0	124833	10317.912215383579	3
0	124837	10318.084076884062	4
0	124845	10320.164152671082	5
0	124848	10320.368148444139	6
0	124854	10321.212885857468	7
0	124857	10321.496786664024	8
0	124860	10321.514629864067	9
0	124864	10321.822745891804	10
0	124869	10321.971801526203	11
0	124873	10322.22870033548	12
0	124876	10322.372841331856	13
0	124879	10322.418566351044	14
0	124882	10322.465726597564	15
0	124886	10322.55239385504	16
0	124889	10322.660528472067	17
0	124894	10323.000505141339	17
0	124898	10323.583659336911	18
0	124903	10323.82799312931	18
0	124906	10323.902671408948	19
0	124955	10326.759841525563	0
0	124959	10327.35800214749	0
0	124966	10328.09201366033	0
0	124969	10328.218020473545	1
0	124972	10328.655176691366	2
0	124985	10330.333080841251	0
0	124990	10330.729934967248	0
0	124995	10331.596382936552	0
0	124998	10331.622027475187	1
0	125001	10331.85804454952	2
0	125008	10332.422680614835	2
0	125015	10333.277355804349	3
0	125020	10333.694055128895	4
0	125023	10333.980939358068	5
0	125028	10334.343671410205	5
0	125034	10335.565648240201	5
0	125040	10336.292816399021	6
0	125047	10336.787989808849	6
0	125054	10337.551896647371	6
0	125057	10337.694947124151	7
0	125062	10337.817060918785	8
0	125065	10337.844602525239	9
0	125068	10337.946670951793	10
0	125071	10338.112525498761	11
0	125076	10338.651440184482	11
0	125083	10339.422221037821	11
0	125087	10339.623058947075	12
0	125092	10340.284205988647	13
0	125127	10340.58748815735	0
0	125132	10341.152454193543	0
0	125136	10341.175150261229	0
0	125141	10342.840335983637	0
0	125145	10343.115239577329	1
0	125151	10343.859494886061	1
0	125160	10345.281850677849	1
0	125168	10346.538999716815	1
0	125173	10347.120844946506	2
0	125176	10347.569220458894	3
0	125184	10348.424970996339	3
0	125187	10348.544383030882	4
0	125194	10349.038175331637	5
0	125199	10349.30748009833	5
0	125203	10349.747349111874	6
0	125207	10350.059810887796	7
0	125220	10351.827546073992	6
0	125223	10351.95660734473	7
0	125228	10352.292999193181	7
0	125231	10352.354041526067	8
0	125236	10353.135084874319	9
0	125260	10354.329653927544	0
0	125266	10354.461253357998	0
0	125271	10354.748028778457	0
0	125276	10354.801799741491	0
0	125281	10355.692737987072	0
0	125286	10355.792773249685	0
0	125294	10356.957975308982	0
0	125298	10357.167481624848	0
0	125306	10358.121457275064	0
0	125310	10358.430183020394	1
0	125313	10358.540631521629	2
0	125318	10359.641490513356	2
0	125323	10359.969514332455	2
0	125327	10360.418525552981	3
0	125330	10360.641400118196	4
0	125338	10361.15586407411	4
0	125342	10361.666506021306	5
0	125347	10361.909531101421	6
0	125352	10362.215268271157	6
0	125355	10362.769024058158	7
0	125362	10363.538430633188	7
0	125365	10363.797285220724	8
0	125368	10363.844513977525	9
0	125371	10364.312848863375	10
0	125374	10364.36197704102	11
0	125378	10364.745707706965	12
0	125383	10365.073639129136	12
0	125386	10365.257656265715	13
0	125392	10365.615257915883	14
0	125395	10365.658910432259	15
0	125435	10366.572474867449	0
0	125440	10366.63787324781	0
0	125445	10367.299688389904	0
0	125450	10367.727410451491	0
0	125454	10368.184708583722	1
0	125457	10368.222669544286	2
0	125463	10368.934740096264	3
0	125466	10369.236444133984	4
0	125469	10369.272610368579	5
0	125485	10370.419229506093	0
0	125489	10370.650591531957	0
0	125493	10371.087493477103	1
0	125499	10371.785446610102	1
0	125513	10373.66430335356	0
0	125518	10373.940285200354	0
0	125523	10374.110040197152	0
0	125532	10376.060337488475	0
0	125539	10376.585124895891	0
0	125543	10376.873398369622	1
0	125552	10378.238200490215	0
0	125555	10378.433754364468	1
0	125558	10378.648687764269	2
0	125571	10380.098263179766	0
0	125577	10380.479598148968	0
0	125581	10381.276647080493	1
0	125591	10382.215889336895	0
0	125596	10382.682059106936	0
0	125602	10382.883294916156	0
0	125609	10383.370635024154	0
0	125613	10383.375131953537	0
0	125616	10383.648548984049	1
0	125630	10385.962539061817	0
0	125635	10386.136036997475	0
0	125640	10386.396578169502	0
0	125646	10386.763009486842	0
0	125651	10386.820981537751	0
0	125657	10387.080529314426	0
0	125665	10387.746484432621	0
0	125671	10388.017949811422	0
0	125676	10388.214515175499	0
0	125687	10390.645836639694	0
0	125692	10390.738072611143	0
0	125696	10391.325055343525	1
0	125699	10391.388115102249	2
0	125704	10392.540993040762	2
0	125710	10393.138951728631	2
0	125716	10393.744911467638	2
0	125726	10396.244923493025	2
0	125730	10396.982294408806	3
0	125734	10397.231014449214	4
0	125737	10397.353523004236	5
0	125743	10398.074931253506	5
0	125750	10398.843775136482	5
0	125756	10399.374780797351	6
0	125759	10399.56534100155	7
0	125765	10399.838534165756	7
0	125768	10400.063574504575	8
0	125771	10400.088660382632	9
0	125775	10400.288939873042	10
0	125778	10400.552272545873	11
0	125781	10400.569204993313	12
0	125784	10400.584056224734	13
0	125793	10401.052979718453	13
0	125798	10402.573780283883	14
0	125806	10404.170904453686	14
0	125809	10404.434202625804	15
0	125812	10404.518032696317	16
0	125816	10404.950879256514	17
0	125823	10406.152595210423	18
0	125829	10407.565462426807	19
0	125834	10407.711222068665	19
0	125837	10408.140262011219	20
0	125840	10408.180099626291	21
0	125843	10408.274669359038	22
0	125846	10408.365753246976	23
0	125852	10409.880021311332	23
0	125857	10410.216148724997	24
0	125860	10410.320239172602	25
0	125863	10410.579231562564	26
0	125868	10410.647798297881	26
0	125871	10410.781843980195	27
0	125875	10411.006906392112	28
0	125878	10411.339358327495	29
0	125881	10411.624691119156	30
0	125886	10411.755538917853	30
0	125894	10413.649833801025	30
0	125897	10413.748676545751	31
0	125901	10414.152456274806	32
0	125906	10414.66724663019	33
0	125912	10415.486784539614	34
0	125919	10416.04054218254	34
0	125925	10416.773175749793	34
0	125928	10416.914787436736	35
0	125931	10417.172058905663	36
0	125934	10417.207834502532	37
0	125937	10417.246625703737	38
0	125945	10418.626487597677	39
0	125951	10418.690251594515	39
0	125955	10419.209729045669	40
0	126044	10421.67085372807	0
0	126049	10422.222055955403	0
0	126055	10423.204916940876	0
0	126058	10423.476195901899	1
0	126064	10423.688304512475	1
0	126067	10423.967219080011	2
0	126074	10424.861442405293	2
0	126077	10425.27843882046	3
0	126083	10426.429068769241	3
0	126086	10426.446134892825	4
0	126093	10427.730681979042	3
0	126098	10428.278189031759	4
0	126107	10429.318734441964	4
0	126114	10430.144613252313	4
0	126117	10430.247645800423	5
0	126125	10431.390286852963	5
0	126142	10432.178929649401	0
0	126148	10432.900974546813	0
0	126151	10432.929595897349	1
0	126156	10433.224752064992	1
0	126161	10434.046060840696	2
0	126166	10434.671558532877	2
0	126170	10435.101642171765	3
0	126173	10435.758286715163	4
0	126179	10436.422179177326	5
0	126183	10436.660230202829	6
0	126186	10437.059157002979	7
0	126206	10437.465339993154	0
0	126211	10437.920393674028	0
0	126217	10438.491009274254	0
0	126222	10438.509871305873	0
0	126227	10439.115149278994	0
0	126232	10439.131129849503	0
0	126238	10439.279909471245	0
0	126244	10440.115913600932	0
0	126251	10440.455888311802	0
0	126256	10440.627877943858	0
0	126262	10440.842890877235	0
0	126269	10441.665978799538	0
0	126275	10442.456601647456	0
0	126282	10443.064462639634	0
0	126286	10443.087534569362	0
0	126289	10443.503679040918	1
0	126303	10446.404536123333	0
0	126308	10446.459980082848	0
0	126311	10446.543617807581	1
0	126314	10446.57777993089	2
0	126317	10446.856681432311	3
0	126320	10447.09892057048	4
0	126323	10447.134284983046	5
0	126334	10448.431100727054	5
0	126337	10448.541242303604	6
0	126341	10448.669504138348	7
0	126344	10448.714090370703	8
0	126349	10448.98838937499	9
0	126358	10449.953072312284	9
0	126364	10450.466247610118	9
0	126367	10450.483442481685	10
0	126370	10450.826728764276	11
0	126373	10450.850118906842	12
0	126376	10450.862827020472	13
0	126410	10452.189410402227	0
0	126416	10452.783602047097	0
0	126423	10454.711579379658	0
0	126429	10455.964589429234	0
0	126435	10456.264265098249	0
0	126438	10456.722028482776	1
0	126441	10456.83155947877	2
0	126447	10457.265801289362	2
0	126450	10457.772120360508	3
0	126457	10458.67392984531	3
0	126460	10458.783020068465	4
0	126466	10459.677417221565	4
0	126470	10459.875236218551	5
0	126475	10459.978598588897	5
0	126480	10460.915066704983	6
0	126486	10461.18941625753	6
0	126489	10461.223767758613	7
0	126496	10462.079142684654	7
0	126499	10462.795536284288	8
0	126505	10463.459235837204	9
0	126508	10463.795025070526	10
0	126513	10464.725219960329	11
0	126521	10465.124903571362	11
0	126524	10465.194214768138	12
0	126555	10466.07378867328	0
0	126560	10466.363222310939	0
0	126564	10466.6709095801	0
0	126568	10467.288045210741	1
0	126571	10467.34391773133	2
0	126577	10467.998883094417	2
0	126583	10468.510781149901	2
0	126586	10468.548037821634	3
0	126593	10469.653576861109	3
0	126597	10470.275870722754	4
0	126600	10470.341072230333	5
0	126617	10470.833127491774	0
0	126622	10470.834800510375	0
0	126627	10471.049356569961	0
0	126633	10471.64622173514	0
0	126637	10471.827502569226	0
0	126641	10471.968921146867	1
0	126644	10471.983640369674	2
0	126647	10471.987063562289	3
0	126650	10472.235845383362	4
0	126653	10472.428652704121	5
0	126656	10472.612011813458	6
0	126664	10473.575211051413	6
0	126682	10473.85758924183	0
0	126689	10474.407507130439	0
0	126695	10475.024286239806	0
0	126700	10475.254419689838	1
0	126703	10475.333028494578	2
0	126708	10475.414762800903	2
0	126711	10475.741689916472	3
0	126714	10475.810438278386	4
0	126721	10476.597602262377	4
0	126727	10478.936772340104	4
0	126731	10479.079703930945	5
0	126737	10480.097452231738	6
0	126744	10481.09384341007	7
0	126754	10482.460938840198	6
0	126760	10483.812167725572	6
0	126766	10484.237481735394	7
0	126769	10484.297346475858	8
0	126776	10485.901780741569	8
0	126779	10485.963260475658	9
0	126783	10486.300017623057	10
0	126789	10486.818120952115	10
0	126792	10486.839348353958	11
0	126796	10487.203414384776	12
0	126800	10487.329906909629	13
0	126809	10488.499415161642	13
0	126812	10488.529337497296	14
0	126816	10489.338960184791	15
0	126821	10489.922869491972	15
0	126824	10490.271339234898	16
0	126827	10490.485308980098	17
0	126830	10490.520890794198	18
0	126834	10490.539503149393	19
0	126837	10490.591556287208	20
0	126845	10492.479278650979	19
0	126848	10492.776827220797	20
0	126855	10493.127217476136	21
0	126859	10493.308831097187	22
0	126911	10493.935709719069	0
0	126918	10495.369198407958	0
0	126921	10495.511227281401	1
0	126924	10496.059303668204	2
0	126929	10496.370722761834	3
0	126933	10496.528441674206	4
0	126949	10497.122720962178	0
0	126953	10497.34349406584	0
0	126957	10497.508531081398	1
0	126960	10497.550647460071	2
0	126963	10497.619332513188	3
0	126966	10497.762965625372	4
0	126969	10497.783923319886	5
0	126972	10497.975851994441	6
0	126975	10498.036635779077	7
0	126979	10498.55017478493	8
0	126982	10498.727297620269	9
0	126985	10498.822003175941	10
0	126988	10498.95132131366	11
0	126994	10499.516657239965	11
0	126997	10499.945209327888	12
0	127000	10500.00779220408	13
0	127005	10500.139759268198	13
0	127011	10501.262512583213	13
0	127014	10501.328139211811	14
0	127017	10501.820472928229	15
0	127022	10502.153888126197	15
0	127026	10502.584638644765	16
0	127029	10502.610590039444	17
0	127032	10502.714269240384	18
0	127037	10503.350056216542	18
0	127044	10504.025270181893	19
0	127049	10504.350322139228	19
0	127052	10504.484950020764	20
0	127061	10505.458222544211	20
0	127109	10506.25807332221	0
0	127115	10507.944917650499	0
0	127120	10508.699611190572	0
0	127129	10509.869119878438	0
0	127139	10511.270815004211	0
0	127145	10511.775337199617	0
0	127151	10512.538559821578	0
0	127154	10512.687241892369	1
0	127157	10512.914263870401	2
0	127162	10513.399250462142	2
0	127168	10513.756591411532	3
0	127171	10513.940029588525	4
0	127185	10514.43294249982	0
0	127191	10514.743458304239	0
0	127196	10514.899116604135	0
0	127206	10515.992140909108	0
0	127211	10516.796988931393	0
0	127218	10517.130073874276	0
0	127222	10517.329640004723	1
0	127226	10517.710015239693	2
0	127229	10517.779724486021	3
0	127244	10518.442998386685	0
0	127248	10518.473681593665	0
0	127256	10519.50217918695	0
0	127261	10520.041597814288	0
0	127266	10520.468254361007	0
0	127271	10520.62200044249	0
0	127276	10521.017592360478	0
0	127281	10521.971432458916	0
0	127286	10522.280964860337	0
0	127293	10523.021117612029	0
0	127298	10523.712912844057	0
0	127301	10523.774114159476	1
0	127306	10524.115789054176	1
0	127309	10524.520945636021	2
0	127315	10525.387668231669	2
0	127329	10527.098989525065	0
0	127333	10527.397915140121	0
0	127339	10528.281636666965	0
0	127344	10528.996487233105	1
0	127350	10530.02528640461	1
0	127359	10530.461749773469	0
0	127364	10530.614168432051	0
0	127368	10530.744364530463	0
0	127374	10531.390727209506	1
0	127382	10532.174303990765	1
0	127386	10532.381972062529	2
0	127389	10532.62290267063	3
0	127393	10533.503215271137	4
0	127397	10533.63211010423	5
0	127400	10533.686265990137	6
0	127403	10533.8419335969	7
0	127409	10534.419706050721	8
0	127414	10535.013102079968	8
0	127418	10535.530786079217	9
0	127422	10535.937222731892	10
0	127425	10536.088666710249	11
0	127430	10536.442984677183	12
0	127434	10536.943040285448	13
0	127440	10538.742259852389	14
0	127446	10539.951150977081	14
0	127449	10540.324264157575	15
0	127453	10540.801735545257	16
0	127456	10540.816170310902	17
0	127459	10540.917867127629	18
0	127462	10541.526350812295	19
0	127507	10541.709109497961	0
0	127512	10542.100192338912	0
0	127516	10542.316784034328	0
0	127519	10542.457680583544	1
0	127522	10542.644060496653	2
0	127531	10544.407620750448	2
0	127534	10544.984272457569	3
0	127546	10545.105823390686	0
0	127556	10546.603717288166	0
0	127562	10547.349778968996	0
0	127568	10547.7002780946	0
0	127571	10547.836595295204	1
0	127575	10548.617531574584	2
0	127578	10548.658266938396	3
0	127585	10550.102918725406	4
0	127590	10550.912560639471	4
0	127593	10551.147118181929	5
0	127601	10551.776098405907	5
0	127604	10551.799790296779	6
0	127609	10552.349699453067	7
0	127614	10553.049493822179	7
0	127619	10554.067355833167	7
0	127639	10554.73135032384	0
0	127644	10554.732129163166	0
0	127649	10554.912794602551	0
0	127657	10555.656902419745	0
0	127662	10555.81366217606	0
0	127665	10556.206798059007	1
0	127672	10556.814362387125	1
0	127675	10556.99604519757	2
0	127679	10557.081086652442	3
0	127682	10557.419782134065	4
0	127686	10558.346966371482	5
0	127692	10558.668902387144	6
0	127699	10559.654210404083	7
0	127708	10560.724124047093	6
0	127712	10561.14188099754	7
0	127716	10561.379873665874	8
0	127720	10561.50333889219	9
0	127726	10562.981689305492	9
0	127732	10564.469684094129	9
0	127735	10564.492075494713	10
0	127738	10564.626199285902	11
0	127747	10565.835468112855	10
0	127750	10566.02027659144	11
0	127753	10566.461645080485	12
0	127758	10566.75319276587	12
0	127765	10567.638159794541	13
0	127768	10568.005905322176	14
0	127771	10568.441143070036	15
0	127807	10568.745102647549	0
0	127812	10568.766011005426	0
0	127817	10568.766114493291	0
0	127822	10568.850368624356	0
0	127830	10569.84133173459	0
0	127836	10571.044202945333	0
0	127840	10571.056215404001	0
0	127844	10571.946243323901	1
0	127854	10573.012878046762	1
0	127867	10574.924072537056	0
0	127871	10575.789360742112	0
0	127875	10575.966290889945	1
0	127879	10577.34621885946	2
0	127882	10577.386378014202	3
0	127885	10577.574790197393	4
0	127892	10579.166541770092	5
0	127895	10579.265588615261	6
0	127898	10579.381079801855	7
0	127901	10579.408987622436	8
0	127904	10579.5287906838	9
0	127910	10580.110754555263	9
0	127914	10580.241363025855	10
0	127917	10580.326495600029	11
0	127920	10580.542791508068	12
0	127924	10580.634651663667	13
0	127957	10581.052637825342	0
0	127961	10581.183575414837	0
0	127967	10581.546105890927	1
0	127972	10581.70939985634	2
0	127976	10581.742426830297	3
0	127979	10581.862569514517	4
0	127982	10582.000858922592	5
0	127988	10582.468362871361	5
0	127992	10582.619904950366	6
0	127995	10582.977719909908	7
0	128001	10583.52189399687	7
0	128007	10584.047786865624	8
0	128032	10585.551497561281	0
0	128039	10586.065176046002	0
0	128045	10586.752196249299	0
0	128054	10587.718244396706	0
0	128059	10588.289796213904	1
0	128062	10588.308505244186	2
0	128066	10588.385386672073	3
0	128071	10588.793283293741	3
0	128075	10589.91233361521	4
0	128078	10590.156166227702	5
0	128081	10590.358431462833	6
0	128088	10591.137007600229	6
0	128091	10591.216682238399	7
0	128094	10591.346427026134	8
0	128097	10591.359849003287	9
0	128101	10591.82931112918	10
0	128105	10591.929323545748	11
0	128108	10592.086400517494	12
0	128116	10593.05573180709	12
0	128119	10593.189456663333	13
0	128122	10593.336652405866	14
0	128125	10593.535279600442	15
0	128131	10593.706230894429	15
0	128134	10593.739074211777	16
0	128139	10594.200215940078	17
0	128146	10594.886187317201	17
0	128149	10595.514584072104	18
0	128153	10596.580204412489	19
0	128162	10598.533922915171	20
0	128165	10598.542488418053	21
0	128170	10599.366308702302	21
0	128175	10599.894721154028	21
0	128179	10600.366881754627	22
0	128186	10600.780679156524	22
0	128189	10600.815487037275	23
0	128195	10601.994503728912	23
0	128198	10602.126666406524	24
0	128254	10602.704829838634	0
0	128260	10603.045397286741	0
0	128265	10603.316542511897	0
0	128268	10603.518148797172	1
0	128271	10603.949756115815	2
0	128276	10604.179139794335	2
0	128279	10604.247172517489	3
0	128282	10604.274985345321	4
0	128286	10604.363443512661	5
0	128290	10605.023485884535	6
0	128294	10605.150182216397	7
0	128298	10605.388383122082	8
0	128302	10605.718326458766	9
0	128330	10606.692934076426	0
0	128335	10606.848118899158	0
0	128342	10608.069908093328	0
0	128345	10608.122890880148	1
0	128349	10608.378844307008	2
0	128354	10608.744277599708	3
0	128361	10609.186658385773	4
0	128367	10609.785040758491	4
0	128370	10610.038789106052	5
0	128373	10610.089494980046	6
0	128376	10610.462275746289	7
0	128383	10611.115006940003	7
0	128387	10611.257404155532	8
0	128390	10611.269380534388	9
0	128393	10611.8650923139	10
0	128396	10612.465316200703	11
0	128402	10612.794416626564	11
0	128408	10614.324128228274	11
0	128411	10614.671859774406	12
0	128444	10614.976968124088	0
0	128449	10615.127964907275	0
0	128454	10615.162045847886	0
0	128460	10615.854946696107	0
0	128464	10616.021064745412	0
0	128469	10616.563299790321	1
0	128472	10616.643098925735	2
0	128479	10617.661469957984	2
0	128484	10618.008980999202	3
0	128489	10618.744571047946	4
0	128492	10618.844286660647	5
0	128510	10620.03070851808	0
0	128519	10622.841583657896	0
0	128524	10623.538248070437	0
0	128527	10623.81023748895	1
0	128537	10625.528273872841	0
0	128541	10625.773247417216	1
0	128544	10625.808116299807	2
0	128547	10625.841273858915	3
0	128555	10627.136584499089	2
0	128560	10627.59297074381	3
0	128563	10627.638312465967	4
0	128566	10627.704680218863	5
0	128572	10628.102036274684	5
0	128575	10628.253766873463	6
0	128580	10629.035505862382	6
0	128584	10629.213228891499	7
0	128587	10629.382954219028	8
0	128591	10629.43458889821	9
0	128594	10629.782106154882	10
0	128600	10630.668125271726	11
0	128629	10631.182525072529	0
0	128634	10631.241089263656	0
0	128641	10631.801589411036	0
0	128645	10632.131450478203	0
0	128656	10633.276328401441	0
0	128661	10633.446913834835	0
0	128664	10634.038463259195	1
0	128667	10634.173413523604	2
0	128672	10634.277028434049	2
0	128676	10634.403376318759	3
0	128679	10634.428449296099	4
0	128682	10634.982575163306	5
0	128686	10635.455542322099	6
0	128691	10636.244990617064	7
0	128695	10636.727964334151	8
0	128699	10636.990860668042	9
0	128705	10638.174679037092	10
0	128708	10638.366429320388	11
0	128712	10638.46786574074	12
0	128716	10639.124453875676	13
0	128721	10640.021147175098	13
0	128724	10640.177930430855	14
0	128728	10640.613721103251	15
0	128737	10641.635606732471	15
0	128741	10642.227533548812	16
0	128744	10642.401516845186	17
0	128749	10642.508218783067	18
0	128752	10642.534525107344	19
0	128755	10643.034332126346	20
0	128760	10643.352094597057	20
0	128765	10643.839018439354	21
0	128768	10644.017288311055	22
0	128774	10644.563840004227	22
0	128778	10644.877476433579	23
0	128782	10645.120723630795	24
0	128788	10645.293397903443	24
0	128791	10645.469529472926	25
0	128798	10647.641495626428	25
0	128801	10647.672411037756	26
0	128860	10649.507657113382	0
0	128865	10649.578037747935	0
0	128871	10650.058597086596	0
0	128876	10650.21177311418	0
0	128889	10651.396991640917	0
0	128894	10651.532022310908	0
0	128899	10651.719686201077	0
0	128904	10651.933365116003	1
0	128909	10652.708697083621	1
0	128912	10652.728748932469	2
0	128916	10653.452945590826	3
0	128923	10653.920538518996	3
0	128926	10654.140034866069	4
0	128932	10654.821229530707	4
0	128938	10655.460347392671	5
0	128943	10655.786053262015	5
0	128946	10655.835200159495	6
0	128950	10656.074061403855	7
0	128953	10656.206422698813	8
0	128957	10656.441877856314	9
0	128962	10656.559676849935	9
0	128966	10657.193818877322	10
0	128970	10657.685263014129	11
0	128973	10657.818954150517	12
0	128976	10657.931628499714	13
0	128979	10658.203801093938	14
0	128982	10658.370529528047	15
0	128986	10658.458802416815	16
0	128992	10658.617776428416	16
0	128996	10659.041979504172	17
0	129005	10660.477406683047	17
0	129010	10660.62995658668	17
0	129018	10662.108209824537	18
0	129021	10662.387757909504	19
0	129025	10663.278602856273	20
0	129072	10663.742656298432	0
0	129077	10664.042960312532	0
0	129085	10665.215289438279	0
0	129089	10665.552026393959	0
0	129094	10666.154308191316	1
0	129101	10666.38897195869	1
0	129104	10666.88548157997	2
0	129109	10667.19434333299	3
0	129114	10667.545962058944	3
0	129118	10667.622248602723	4
0	129121	10667.715388008548	5
0	129124	10667.873418122846	6
0	129132	10668.964824900221	7
0	129135	10669.067170638344	8
0	129161	10669.852352514244	0
0	129170	10670.916274250408	0
0	129175	10671.625196708755	0
0	129180	10672.210744917698	0
0	129183	10672.520382788109	1
0	129186	10672.591934032789	2
0	129191	10672.74433448448	2
0	129194	10673.025753296383	3
0	129197	10673.04088931734	4
0	129201	10673.237886851548	5
0	129204	10673.425638256564	6
0	129207	10673.433166088606	7
0	129211	10673.587685131128	8
0	129217	10674.260122222559	8
0	129224	10675.438616063707	8
0	129246	10675.728712680675	0
0	129251	10675.956861745799	0
0	129256	10676.181303648594	0
0	129261	10677.040209603526	0
0	129266	10677.140748447581	0
0	129271	10677.150722651141	0
0	129278	10677.485720544165	0
0	129291	10679.452226878752	0
0	129295	10679.610706129093	0
0	129299	10679.795733067884	1
0	129302	10680.150144112075	2
0	129306	10680.349832664851	3
0	129309	10680.493936002364	4
0	129313	10680.871661875185	5
0	129316	10681.044773371975	6
0	129321	10681.404260703017	7
0	129326	10681.68109511911	7
0	129329	10681.707718722926	8
0	129332	10682.179692898197	9
0	129335	10682.401728826479	10
0	129343	10683.326093546276	10
0	129346	10683.375059673442	11
0	129351	10683.538378305026	11
0	129354	10683.700206186968	12
0	129359	10683.898489286716	13
0	129362	10683.995847343083	14
0	129365	10684.513208440826	15
0	129368	10684.528159680157	16
0	129378	10687.162089294501	16
0	129383	10687.863736480837	17
0	129386	10687.994916521848	18
0	129393	10688.528258929024	18
0	129396	10688.652985740261	19
0	129401	10689.241879158442	20
0	129408	10690.100127482194	20
0	129455	10690.957651926482	0
0	129460	10691.757568068617	0
0	129468	10692.64408821576	0
0	129472	10692.843590088711	0
0	129476	10693.461801809179	1
0	129479	10693.469231777425	2
0	129482	10693.484815166343	3
0	129487	10693.765452036035	3
0	129492	10694.176899098116	4
0	129496	10694.568964486376	5
0	129503	10695.278157952177	5
0	129508	10695.992037963805	5
0	129512	10696.465698025212	6
0	129517	10697.006497531393	6
0	129520	10697.23078232871	7
0	129526	10697.788346049965	7
0	129529	10697.888972686415	8
0	129534	10698.702215451304	8
0	129543	10699.791355838285	8
0	129547	10700.53689864908	9
0	129552	10700.794523291666	9
0	129556	10701.115041622642	10
0	129559	10701.241473164916	11
0	129563	10701.296834249549	12
0	129569	10702.631822403241	12
0	129574	10703.473729604198	12
0	129577	10703.531575235703	13
0	129585	10703.991943042133	14
0	129588	10704.019547655773	15
0	129591	10704.03633301279	16
0	129600	10705.038632167623	16
0	129605	10705.81537617693	16
0	129608	10706.265909478223	17
0	129611	10706.515802398475	18
0	129614	10706.621429599002	19
0	129659	10706.809950716001	0
0	129664	10706.976612943091	0
0	129670	10707.338465984213	0
0	129675	10708.220824406228	0
0	129678	10708.777525461447	1
0	129684	10710.109251475655	1
0	129695	10711.403361972581	1
0	129698	10711.834441118405	2
0	129701	10711.847622230096	3
0	129707	10712.095513400126	4
0	129710	10712.27719885638	5
0	129713	10712.781406681557	6
0	129716	10712.802049452031	7
0	129724	10713.428152256652	7
0	129728	10714.354325449127	8
0	129739	10715.491399497925	8
0	129763	10716.099317298516	0
0	129768	10716.279864026643	0
0	129772	10716.43761010835	1
0	129786	10718.123813284751	0
0	129791	10718.857314288806	0
0	129795	10718.865627781485	0
0	129799	10719.367342224225	1
0	129805	10719.926557082481	1
0	129808	10720.466153906782	2
0	129812	10720.872104208751	3
0	129816	10721.566111561171	4
0	129819	10721.640137214895	5
0	129822	10721.727895966125	6
0	129827	10722.381219605056	7
0	129830	10722.839940071816	8
0	129833	10722.841462936947	9
0	129837	10723.205998255273	10
0	129840	10723.291160502916	11
0	129844	10723.499280873931	12
0	129849	10723.76238753427	13
0	129855	10724.418210756289	13
0	129858	10724.462273947783	14
0	129861	10724.747066698092	15
0	129871	10726.032975664202	14
0	129874	10726.350479034806	15
0	129877	10726.359912436026	16
0	129881	10726.477289318274	17
0	129924	10727.684997284405	0
0	129930	10728.356526642744	0
0	129937	10728.622000683049	0
0	129940	10728.627329197957	1
0	129943	10728.869798863319	2
0	129948	10729.213612732236	3
0	129951	10729.294124704377	4
0	129954	10729.679835691661	5
0	129958	10730.74924821569	6
0	129962	10730.904951887523	7
0	129965	10731.138464864602	8
0	129968	10731.230740899943	9
0	129975	10731.551466761995	9
0	129979	10731.765292400323	10
0	129990	10733.410765189298	9
0	129993	10733.466716141369	10
0	129996	10733.493280871558	11
0	130000	10734.13188064572	12
0	130005	10734.753580715259	12
0	130008	10735.188681793337	13
0	130013	10735.442432502082	13
0	130016	10735.463765686561	14
0	130051	10736.758070263674	0
0	130058	10738.295780609041	0
0	130065	10739.814233964372	0
0	130072	10740.552917495306	0
0	130078	10741.685426639641	0
0	130086	10743.517808685415	0
0	130091	10743.569676824268	0
0	130097	10744.084364821531	0
0	130101	10744.459199269136	0
0	130109	10745.883836737639	0
0	130112	10745.943170759345	1
0	130119	10746.755837352942	1
0	130122	10746.77264540949	2
0	130125	10746.957210370114	3
0	130130	10747.23173227782	3
0	130136	10747.933244838685	4
0	130139	10747.937104468706	5
0	130142	10748.001934782353	6
0	130146	10748.268835370377	7
0	130149	10748.621798979477	8
0	130152	10748.722157118045	9
0	130157	10749.919354444577	10
0	130163	10750.717697971233	10
0	130169	10751.089518770282	10
0	130172	10752.053465852445	11
0	130180	10753.51948723273	10
0	130183	10753.653255646632	11
0	130187	10753.89370383385	12
0	130190	10754.048833300848	13
0	130196	10754.420163359804	13
0	130199	10754.427471467482	14
0	130205	10754.848870180263	15
0	130208	10755.076998585663	16
0	130250	10756.692696533337	0
0	130256	10757.592866623429	0
0	130263	10758.207822305597	0
0	130271	10759.074046036436	0
0	130274	10759.525751947666	1
0	130277	10759.750011590941	2
0	130280	10759.783995299096	3
0	130283	10759.798274321323	4
0	130286	10759.924468362054	5
0	130289	10760.138199816823	6
0	130292	10760.204031462662	7
0	130300	10761.194590833314	7
0	130303	10761.552449153416	8
0	130308	10761.62587313848	9
0	130319	10763.971099788656	7
0	130324	10764.640974973981	8
0	130332	10765.549681047714	8
0	130335	10765.677617963668	9
0	130360	10766.013149491846	0
0	130368	10767.088172064148	0
0	130373	10767.449350268132	0
0	130376	10767.641828471963	1
0	130379	10767.662921711723	2
0	130385	10768.745625668755	2
0	130390	10769.647407587435	3
0	130393	10770.046630231054	4
0	130399	10770.287126938232	4
0	130403	10770.925870277108	5
0	130406	10770.939890884204	6
0	130411	10771.888236745787	7
0	130417	10773.178699599472	7
0	130429	10774.662393914569	7
0	130432	10774.95219314514	8
0	130436	10775.09674915316	9
0	130440	10775.658055577592	10
0	130443	10775.678587141959	11
0	130446	10776.066902986364	12
0	130452	10776.268543833635	12
0	130456	10777.048044765907	13
0	130491	10778.210676993453	0
0	130501	10779.850776628921	0
0	130508	10781.440059197885	0
0	130514	10781.925123323306	0
0	130521	10782.900187817215	0
0	130526	10782.962357063293	0
0	130531	10782.978184919985	0
0	130537	10783.421820420183	0
0	130543	10784.219508733013	0
0	130546	10784.23561939267	1
0	130552	10784.738890540979	1
0	130555	10784.950329318778	2
0	130562	10785.5048757298	2
0	130565	10785.543309768091	3
0	130568	10785.879608583942	4
0	130571	10786.047841986151	5
0	130574	10786.116496047342	6
0	130582	10787.26147285579	6
0	130586	10787.400286384193	7
0	130592	10787.519317887795	7
0	130595	10788.296802658299	8
0	130621	10789.059603850965	0
0	130626	10789.565756479086	0
0	130630	10789.818171150657	1
0	130634	10790.238133773175	2
0	130637	10790.468522253057	3
0	130653	10792.163552161448	0
0	130659	10793.093765918267	0
0	130664	10793.293912325562	0
0	130669	10793.559991915814	0
0	130673	10793.56921500724	0
0	130682	10795.589339846689	0
0	130687	10796.037863709514	0
0	130690	10796.148716571545	1
0	130693	10796.463658739768	2
0	130699	10797.521670635602	2
0	130704	10797.617111662238	2
0	130707	10797.77521221382	3
0	130712	10798.69752634754	3
0	130718	10799.102720575577	4
0	130721	10799.391777006198	5
0	130724	10799.455595684023	6
0	130727	10799.585524491399	7
0	130732	10799.609527957146	7
0	130735	10799.787835731318	8
0	130738	10800.021054620789	9
0	130745	10800.956785021943	10
0	130748	10801.055573804843	11
0	130778	10802.711407309981	0
0	130783	10803.046321170069	0
0	130788	10803.095525891785	0
0	130793	10803.234716643915	0
0	130801	10804.27689287776	0
0	130805	10804.296717610925	0
0	130810	10804.516559615905	1
0	130814	10805.150003985747	2
0	130826	10805.378917381316	0
0	130831	10805.582000277511	0
0	130836	10806.04054082977	0
0	130841	10806.135094286853	0
0	130846	10806.767691411823	0
0	130853	10808.24569269543	0
0	130862	10808.997724108891	0
0	130866	10809.332985793641	0
0	130870	10809.445406099016	1
0	130873	10809.859269659176	2
0	130878	10810.047454318217	2
0	130885	10811.685489015443	2
0	130889	10812.011996688727	3
0	130892	10812.074865836502	4
0	130895	10812.174392778071	5
0	130899	10812.275003917401	6
0	130903	10812.396117365266	7
0	130912	10813.015407747971	7
0	130915	10813.236462081146	8
0	130919	10813.647848880907	9
0	130922	10813.825812884223	10
0	130949	10814.094117017331	0
0	130956	10814.608997113903	0
0	130961	10814.66847618185	0
0	130968	10815.330404629985	0
0	130972	10815.768891666539	0
0	130980	10816.544554284948	0
0	130987	10816.835755718516	1
0	130990	10817.105228924449	2
0	130995	10817.661178357034	2
0	130998	10817.724018096549	3
0	131001	10817.902656874984	4
0	131019	10819.288438053964	0
0	131024	10819.545946969252	0
0	131029	10819.756092768612	0
0	131035	10819.940189294339	0
0	131040	10819.958208363995	0
0	131045	10820.070362975766	0
0	131050	10820.331668223149	0
0	131056	10820.686320659143	0
0	131063	10821.918934200576	0
0	131072	10822.802385958848	0
0	131075	10822.941897745386	1
0	131078	10822.959417273396	2
0	131089	10824.440962408335	0
0	131095	10824.773124746566	0
0	131101	10825.274963058206	0
0	131108	10825.972330877851	0
0	131116	10827.279785773861	0
0	131121	10827.782420939676	0
0	131127	10828.464697619968	0
0	131134	10830.947453408655	0
0	131137	10831.354780995676	1
0	131140	10831.384252108287	2
0	131143	10831.444742411803	3
0	131146	10831.532957235759	4
0	131150	10831.686963773898	5
0	131153	10831.879559594628	6
0	131160	10832.334759374741	6
0	131163	10832.337882711867	7
0	131167	10832.521021568972	8
0	131170	10832.887450430733	9
0	131198	10834.425449538961	0
0	131204	10834.937157444479	0
0	131207	10835.178018775467	1
0	131212	10835.449294228778	1
0	131215	10835.786325610102	2
0	131218	10836.056401583166	3
0	131221	10836.345047404358	4
0	131230	10837.393967535712	5
0	131247	10837.489074845002	0
0	131253	10837.962323426075	0
0	131260	10838.852141082324	0
0	131263	10839.005065672905	1
0	131270	10840.049382063192	1
0	131273	10840.241953012308	2
0	131276	10840.397368405733	3
0	131279	10840.509455841379	4
0	131297	10841.315832650634	0
0	131302	10841.469532242318	0
0	131308	10842.407797685047	0
0	131313	10842.962374831177	0
0	131318	10843.155763899087	1
0	131323	10843.663493467714	1
0	131329	10844.780599347232	2
0	131333	10844.93226575222	3
0	131346	10846.077469394658	0
0	131352	10846.465442423792	0
0	131358	10847.082439498869	0
0	131363	10848.067756450996	0
0	131369	10848.760954387021	0
0	131373	10848.917201008509	1
0	131378	10849.221428077943	1
0	131381	10849.23403375271	2
0	131385	10849.622250463021	3
0	131388	10849.783791993178	4
0	131391	10849.895603225515	5
0	131402	10851.308370605762	5
0	131409	10852.491740393604	5
0	131412	10852.502103269737	6
0	131415	10852.873911787745	7
0	131418	10852.938711444877	8
0	131424	10853.45746578274	8
0	131427	10853.552879140879	9
0	131436	10856.000230987582	9
0	131441	10856.612843821274	9
0	131450	10858.490873986125	8
0	131457	10860.415080968504	8
0	131464	10861.554398213549	8
0	131469	10861.998139488176	9
0	131474	10862.139800497311	9
0	131477	10862.186131212668	10
0	131481	10862.744214746303	11
0	131484	10863.050456299526	12
0	131489	10863.454063753335	12
0	131493	10864.218155115101	13
0	131496	10864.378995866643	14
0	131499	10864.477666013014	15
0	131502	10864.74755073169	16
0	131505	10864.922925825929	17
0	131508	10865.741561214814	18
0	131515	10866.292230964383	18
0	131519	10866.947135510956	19
0	131524	10867.13837713794	19
0	131528	10867.183167085445	20
0	131533	10867.835723216851	21
0	131536	10867.909233185726	22
0	131542	10868.701965539382	22
0	131545	10868.702015216268	23
0	131552	10869.590298877396	23
0	131555	10869.620344888447	24
0	131558	10870.021008781807	25
0	131563	10870.787838850973	26
0	131566	10871.02588585443	27
0	131574	10871.689340641089	27
0	131634	10872.171114467669	0
0	131641	10872.279581181907	0
0	131645	10872.38264510225	0
0	131649	10872.393848864003	1
0	131652	10872.508282053912	2
0	131656	10873.294543683584	3
0	131660	10874.148356831443	4
0	131665	10874.325090964116	5
0	131671	10875.174985106414	6
0	131674	10875.469766128395	7
0	131679	10875.730930755138	8
0	131682	10875.808005139904	9
0	131686	10876.123003211887	10
0	131690	10876.183913268222	11
0	131694	10876.464756204257	12
0	131699	10876.782397485553	13
0	131704	10877.083487776482	14
0	131708	10877.233928969867	15
0	131744	10877.363179168116	0
0	131748	10877.745750684816	0
0	131751	10877.868885445386	1
0	131754	10878.166164250327	2
0	131765	10879.060384224897	2
0	131768	10879.095534200966	3
0	131773	10879.645463841191	3
0	131778	10880.173443260151	4
0	131790	10882.0337058829	4
0	131800	10883.423488506139	3
0	131804	10883.510799064987	4
0	131808	10884.12224014304	5
0	131827	10885.407115855125	0
0	131834	10886.189554348766	0
0	131839	10886.914869389332	0
0	131842	10887.044783160762	1
0	131847	10887.419721025331	2
0	131850	10888.023315158262	3
0	131855	10888.552893306264	4
0	131868	10890.896661917218	3
0	131887	10891.805590651001	0
0	131893	10891.975385751206	0
0	131896	10892.350379601977	1
0	131899	10892.41159431401	2
0	131905	10892.932779850126	2
0	131908	10893.559670933478	3
0	131920	10895.440827904669	2
0	131925	10896.240746584617	3
0	131932	10896.877758769059	3
0	131936	10897.119189253078	4
0	131939	10897.160051556259	5
0	131948	10897.877952008432	5
0	131952	10898.50876087001	6
0	131955	10898.601774518855	7
0	131960	10900.424223608305	7
0	131965	10900.737538593103	8
0	131987	10900.985285008189	0
0	131991	10901.437738000278	0
0	131994	10901.459937696453	1
0	131997	10901.511094796453	2
0	132002	10902.16083322077	2
0	132005	10902.593342337867	3
0	132009	10902.77825572439	4
0	132012	10902.917109477649	5
0	132032	10904.167173824826	0
0	132040	10905.608455323181	0
0	132044	10905.709231236862	0
0	132049	10906.263905590568	1
0	132052	10906.500244115016	2
0	132055	10906.570903221735	3
0	132058	10906.582884134138	4
0	132064	10907.198276329953	4
0	132067	10907.487028405546	5
0	132083	10908.316692383039	0
0	132088	10908.422055200385	0
0	132093	10908.480695476377	0
0	132099	10908.935219385754	0
0	132103	10908.938208314821	0
0	132108	10909.623786133823	1
0	132111	10909.669516006315	2
0	132115	10909.833656861483	3
0	132120	10910.019914128702	3
0	132124	10910.091694143508	4
0	132127	10910.278023611894	5
0	132131	10910.341794617489	6
0	132138	10911.00895136096	6
0	132141	10911.155960215197	7
0	132145	10911.454755639258	8
0	132151	10912.336112595459	8
0	132154	10912.340473515186	9
0	132158	10912.624232584927	10
0	132162	10912.93314772507	11
0	132165	10913.040341375923	12
0	132169	10913.675689180583	13
0	132172	10913.842473461004	14
0	132176	10913.874802937811	15
0	132179	10914.090136344232	16
0	132182	10914.472714138782	17
0	132185	10914.586764997937	18
0	132188	10914.806595405972	19
0	132193	10915.194347332184	19
0	132196	10915.363056876996	20
0	132201	10915.784434016722	21
0	132204	10915.851382065715	22
0	132255	10916.607494188622	0
0	132260	10916.783329845202	0
0	132266	10917.377895789292	1
0	132269	10917.565562487918	2
0	132274	10917.706614123391	2
0	132278	10918.46881237925	3
0	132281	10918.554506921206	4
0	132284	10918.685159930422	5
0	132291	10919.856237380212	6
0	132294	10920.080740238144	7
0	132299	10920.954042299455	7
0	132305	10921.868965784261	7
0	132308	10921.872699605398	8
0	132333	10923.008430330637	0
0	132338	10923.020283256259	0
0	132343	10923.192411594021	0
0	132348	10923.527935508509	0
0	132351	10923.57774312694	1
0	132357	10924.488872975591	1
0	132367	10927.069239047757	1
0	132377	10928.366639734224	0
0	132380	10928.435077668744	1
0	132383	10928.542889003732	2
0	132386	10928.916555221346	3
0	132391	10929.745202837187	4
0	132396	10930.976969188935	5
0	132399	10931.245903103671	6
0	132402	10931.673706997868	7
0	132409	10932.201442528669	7
0	132412	10932.241171779814	8
0	132416	10932.430735925776	9
0	132422	10933.388035340752	9
0	132426	10933.455356709338	10
0	132429	10933.742981084097	11
0	132435	10934.357703862822	11
0	132438	10934.497934638304	12
0	132441	10934.68206937855	13
0	132444	10935.181852969618	14
0	132447	10935.196939917029	15
0	132450	10935.298229728102	16
0	132491	10937.000727520373	0
0	132498	10938.792725088608	0
0	132503	10939.072728781857	0
0	132507	10939.177727121207	0
0	132510	10939.230022923175	1
0	132521	10940.633052802295	0
0	132526	10941.469845308905	0
0	132531	10941.851459611951	0
0	132537	10942.795388830574	1
0	132540	10943.481011839739	2
0	132543	10943.660314589678	3
0	132547	10944.056507097617	4
0	132552	10944.630563187839	5
0	132572	10945.630606740335	0
0	132577	10945.694657928678	0
0	132582	10945.75601529164	0
0	132588	10946.000776434637	0
0	132594	10946.553960504747	0
0	132597	10946.67916454674	1
0	132610	10948.810116382211	0
0	132614	10948.951021643173	0
0	132618	10949.266451091816	1
0	132628	10950.939603362817	1
0	132631	10951.25255675589	2
0	132634	10951.27020235277	3
0	132637	10951.286501184575	4
0	132641	10951.68656955171	5
0	132647	10952.240753743946	5
0	132652	10952.74660895908	6
0	132660	10954.437136871343	6
0	132663	10954.640256002131	7
0	132666	10954.732710752135	8
0	132671	10954.871915868003	8
0	132674	10954.873391586142	9
0	132678	10955.669183020625	10
0	132683	10955.836675831151	10
0	132686	10955.930452027175	11
0	132689	10956.238142087614	12
0	132693	10956.763824801465	13
0	132699	10956.870767562369	13
0	132741	10961.115038905465	0
0	132747	10961.85892063921	0
0	132751	10962.768389015319	0
0	132754	10962.910692376266	1
0	132757	10963.186271114727	2
0	132760	10963.269253751269	3
0	132764	10963.84163607731	4
0	132780	10964.874029091632	0
0	132786	10965.317964718717	0
0	132791	10965.4689482002	0
0	132797	10965.996882108116	0
0	132802	10967.503202643557	0
0	132808	10967.689775704838	0
0	132813	10967.852386337311	0
0	132816	10968.203971817885	1
0	132819	10968.259899294669	2
0	132822	10968.299663740385	3
0	132827	10968.690865016883	3
0	132831	10968.822839240673	4
0	132835	10969.145894442612	5
0	132839	10969.401090078942	6
0	132842	10969.623981964103	7
0	132847	10969.709213561563	7
0	132851	10969.989587100828	8
0	132854	10970.076458996098	9
0	132860	10970.795362698558	9
0	132863	10970.893537285951	10
0	132869	10971.757696324049	10
0	132872	10972.158641567043	11
0	132876	10972.217212460658	12
0	132880	10972.518335586724	13
0	132885	10972.746400497599	14
0	132888	10973.232912199323	15
0	132892	10973.76345447585	16
0	132898	10975.7447846849	16
0	132901	10975.752991196376	17
0	132907	10976.219939828077	18
0	132910	10976.654414720166	19
0	132915	10976.782032252793	20
0	132918	10976.898628049339	21
0	132921	10977.052847402643	22
0	132924	10977.395056879656	23
0	132927	10977.505026717834	24
0	132930	10978.248128655076	25
0	132987	10978.998042179691	0
0	132992	10979.628364825434	0
0	132995	10979.971748403866	1
0	133005	10980.430943452308	0
0	133009	10980.49123525563	0
0	133012	10980.537021715338	1
0	133019	10981.57163879919	1
0	133022	10981.652778294895	2
0	133026	10981.904618335359	3
0	133029	10982.161153585951	4
0	133034	10982.631458304521	4
0	133038	10984.221840975615	5
0	133056	10986.058681472833	0
0	133062	10986.586564920427	0
0	133067	10987.024621537311	0
0	133072	10987.813550318667	0
0	133077	10988.168270718175	0
0	133087	10990.51592454324	0
0	133097	10991.708005378508	0
0	133101	10991.744222296962	0
0	133106	10992.873374398113	1
0	133109	10993.195570016194	2
0	133112	10993.499823784845	3
0	133119	10994.116395187603	3
0	133123	10994.690135091237	4
0	133129	10995.499925758163	5
0	133136	10996.066228488433	5
0	133140	10996.442339972619	6
0	133143	10996.618151029417	7
0	133149	10996.847576140768	7
0	133152	10996.936712040078	8
0	133156	10997.117175493153	9
0	133159	10997.537759947113	10
0	133165	10998.59992310863	11
0	133168	10998.618294280737	12
0	133173	10998.984716316798	12
0	133178	10999.850220593809	12
0	133182	10999.942023838342	13
0	133186	11000.656889966454	14
0	133189	11001.451656171153	15
0	133227	11002.068584438441	0
0	133231	11002.244957920088	0
0	133235	11003.561578905878	1
0	133238	11003.750658422192	2
0	133247	11005.335586353932	2
0	133250	11005.349272919907	3
0	133253	11005.66409285367	4
0	133257	11005.849212926702	5
0	133261	11006.410897052161	6
0	133282	11007.088099207404	0
0	133289	11008.92411807062	0
0	133294	11009.831643863347	0
0	133300	11010.7918464715	1
0	133307	11012.140139770239	1
0	133311	11012.670996541121	2
0	133316	11013.343933283307	2
0	133319	11013.633388830332	3
0	133326	11015.375647955103	3
0	133330	11016.054106283896	4
0	133333	11016.12581660129	5
0	133336	11016.155950760584	6
0	133339	11016.170173099901	7
0	133342	11016.181900208471	8
0	133345	11016.85570761186	9
0	133349	11017.556142177447	10
0	133356	11017.896218556112	11
0	133361	11017.965575970435	11
0	133364	11018.129892943007	12
0	133367	11018.965245615851	13
0	133371	11019.266691784774	14
0	133374	11019.517514711751	15
0	133377	11019.711549513118	16
0	133388	11021.224846190503	16
0	133391	11021.780784773166	17
0	133394	11021.813846359878	18
0	133400	11021.994192584468	18
0	133403	11022.343660959659	19
0	133406	11022.371316721357	20
0	133410	11022.528539427746	21
0	133416	11023.271651012591	21
0	133419	11023.324935096776	22
0	133422	11023.327793432269	23
0	133426	11023.717301759991	24
0	133429	11023.783547668334	25
0	133432	11023.786700392449	26
0	133437	11024.075578384519	26
0	133440	11024.193579223024	27
0	133446	11024.624019759338	28
0	133451	11024.924581756194	28
0	133455	11025.365359199248	29
0	133459	11025.577812086384	30
0	133462	11026.184804688549	31
0	133468	11027.179315709648	31
0	133471	11027.326056685091	32
0	133474	11027.494423110662	33
0	133477	11027.779537219413	34
0	133482	11027.973939643592	34
0	133488	11028.848726598926	35
0	133496	11030.056860639687	34
0	133499	11030.172708399498	35
0	133502	11030.266756633743	36
0	133506	11030.514714931306	37
0	133587	11031.004569857926	0
0	133591	11031.232489628276	0
0	133595	11031.484475891356	1
0	133602	11032.195817612121	1
0	133606	11032.229496691063	2
0	133609	11032.440191797425	3
0	133614	11033.237254668029	3
0	133622	11034.376460762315	3
0	133639	11037.511680501447	2
0	133653	11039.566204339752	0
0	133657	11039.840689694494	0
0	133661	11039.959949078128	1
0	133666	11040.415972934876	2
0	133669	11040.634447889974	3
0	133674	11041.541776485574	4
0	133679	11041.637816949181	4
0	133684	11042.408096644566	5
0	133687	11042.543834814077	6
0	133691	11042.895486475032	7
0	133694	11043.362173244635	8
0	133698	11043.529343396406	9
0	133701	11043.968571627545	10
0	133704	11044.113653489814	11
0	133707	11044.315155229329	12
0	133740	11045.332407227333	0
0	133744	11045.738671152717	0
0	133747	11045.778599058764	1
0	133750	11045.957669573517	2
0	133753	11046.403864472242	3
0	133757	11046.921700959687	4
0	133762	11047.257523594902	5
0	133781	11047.854118106591	0
0	133786	11048.192475981459	0
0	133789	11048.47959888997	1
0	133798	11049.296671402299	0
0	133804	11050.480965489209	0
0	133808	11050.563427806404	0
0	133811	11050.62461005256	1
0	133823	11052.858291883607	1
0	133826	11053.02922320565	2
0	133831	11053.218086060557	3
0	133835	11053.385911568717	4
0	133839	11054.260317344392	5
0	133842	11054.35622195104	6
0	133845	11054.447388523787	7
0	133851	11055.190048441027	7
0	133859	11055.90235913166	7
0	133862	11056.046312602492	8
0	133866	11056.609276120152	9
0	133869	11056.716919953129	10
0	133875	11057.509465550985	10
0	133879	11058.00655012739	11
0	133912	11061.5373975249	0
0	133916	11061.873535004009	0
0	133920	11062.448553432009	1
0	133927	11063.44257933333	1
0	133932	11063.805182397487	1
0	133935	11063.922040649061	2
0	133938	11064.521807612351	3
0	133943	11064.952782752774	3
0	133955	11065.663087142112	0
0	133961	11066.192324022102	0
0	133967	11066.50080895677	0
0	133970	11066.655424878572	1
0	133973	11066.785373769906	2
0	133976	11066.881480613859	3
0	133979	11067.004482725935	4
0	133986	11067.369528574402	4
0	133989	11067.380587927325	5
0	133992	11067.854827621788	6
0	133997	11068.565260238826	6
0	134001	11068.988296578732	7
0	134006	11069.203347029941	7
0	134012	11069.628453342788	8
0	134019	11070.339085777828	8
0	134022	11070.683022640603	9
0	134025	11070.752785672347	10
0	134028	11070.867979485721	11
0	134034	11071.425680875895	11
0	134037	11071.994473869286	12
0	134040	11072.016463560134	13
0	134047	11072.369044300869	13
0	134051	11072.819446843293	14
0	134056	11073.732037314101	14
0	134059	11073.74509639038	15
0	134096	11074.558190438016	0
0	134103	11075.155803493552	0
0	134108	11075.542962135594	0
0	134115	11076.328003727354	0
0	134119	11076.568721027088	0
0	134122	11076.83456991555	1
0	134125	11077.201158621254	2
0	134128	11077.421273949155	3
0	134134	11078.69986615155	3
0	134137	11078.831924316397	4
0	134140	11079.204081532695	5
0	134146	11080.165747108647	6
0	134152	11080.550163142089	6
0	134155	11080.865197638995	7
0	134159	11081.231518467952	8
0	134165	11081.937208196763	8
0	134190	11083.743347599174	0
0	134195	11084.226949594423	0
0	134201	11085.362156750743	0
0	134205	11085.440944665274	0
0	134209	11085.70189501574	1
0	134212	11085.795145402345	2
0	134215	11086.119684654954	3
0	134218	11086.271752320065	4
0	134223	11086.456447196602	4
0	134239	11087.433006448566	0
0	134244	11087.45606313135	0
0	134249	11087.651799859041	0
0	134255	11089.202348171451	0
0	134260	11090.301190803281	0
0	134264	11090.40860843273	0
0	134267	11090.905423031635	1
0	134273	11091.391770431937	1
0	134276	11092.007805729087	2
0	134283	11093.042347082891	2
0	134286	11093.206932810978	3
0	134289	11093.377238497147	4
0	134292	11093.401934850508	5
0	134295	11094.319040748033	6
0	134299	11094.621509848684	7
0	134302	11094.844349588382	8
0	134307	11095.356024546011	8
0	134310	11096.017711074398	9
0	134314	11096.22186814501	10
0	134317	11096.283087880554	11
0	134323	11097.808967559022	11
0	134327	11098.018334544627	12
0	134332	11098.52749195656	13
0	134335	11098.944143770505	14
0	134352	11101.474896402924	12
0	134355	11101.826787437125	13
0	134363	11102.63474633208	13
0	134373	11103.859936591111	13
0	134376	11104.216898165675	14
0	134413	11104.845647786757	0
0	134418	11104.935405503739	0
0	134423	11105.232332998997	0
0	134428	11105.757149732689	0
0	134433	11105.863227129705	0
0	134439	11105.945207894958	0
0	134445	11106.510717121773	0
0	134449	11106.770906761548	0
0	134453	11106.897693156104	1
0	134457	11107.237892067039	2
0	134463	11107.529498981613	2
0	134467	11107.870775581003	3
0	134473	11108.643022646906	3
0	134476	11108.785414563195	4
0	134494	11109.996253158192	0
0	134498	11110.007885948994	0
0	134502	11110.12129282498	1
0	134507	11110.524210987653	2
0	134510	11111.066691427911	3
0	134513	11111.367202204406	4
0	134517	11111.590408346232	5
0	134520	11111.623379753164	6
0	134527	11112.515966827722	6
0	134530	11112.880461207588	7
0	134535	11113.103517365998	7
0	134538	11113.164601365824	8
0	134543	11114.155020148608	9
0	134572	11116.558342016767	0
0	134577	11116.776235512255	0
0	134581	11117.449887562158	0
0	134586	11117.787506276781	0
0	134589	11118.013655055928	1
0	134592	11118.013898264767	2
0	134598	11118.929345337821	3
0	134606	11120.683492006703	4
0	134609	11120.737386756932	5
0	134628	11121.841494173912	0
0	134633	11122.892463532576	0
0	134637	11122.998049569516	0
0	134640	11123.535800569793	1
0	134645	11123.966899376625	1
0	134649	11124.009465595471	2
0	134655	11125.265250427526	3
0	134658	11125.552884624011	4
0	134678	11128.723473903202	0
0	134683	11129.177584099235	0
0	134686	11129.40737167674	1
0	134693	11129.896099660349	1
0	134698	11130.572485058048	2
0	134703	11131.240298333188	3
0	134707	11131.442818295376	4
0	134713	11131.980921334778	4
0	134717	11132.886651018489	5
0	134720	11133.40262598244	6
0	134726	11133.880616327926	6
0	134733	11134.739256249547	6
0	134736	11135.287258947606	7
0	134739	11135.297645576421	8
0	134761	11135.773260467463	0
0	134768	11137.379125834257	0
0	134773	11137.795847442621	0
0	134779	11138.077136141027	0
0	134785	11138.688346347851	1
0	134790	11138.8556608918	1
0	134793	11138.901335517657	2
0	134796	11139.237632945325	3
0	134799	11139.31948183184	4
0	134810	11140.728665925028	4
0	134816	11141.20591582687	4
0	134822	11142.461976565261	4
0	134826	11142.612415859929	5
0	134842	11143.463519018239	0
0	134847	11143.814434460318	0
0	134851	11143.940757958789	1
0	134859	11144.516891167231	1
0	134862	11144.685307486483	2
0	134866	11144.933627239993	3
0	134873	11145.816726946297	3
0	134876	11146.814521412182	4
0	134883	11147.342600324532	5
0	134886	11147.420427054063	6
0	134905	11147.561568056427	0
0	134915	11149.345257094557	0
0	134921	11150.361999749905	0
0	134926	11151.26951458325	0
0	134935	11152.441918765388	0
0	134944	11153.978406657258	0
0	134949	11154.482219450338	0
0	134954	11154.48730188013	0
0	134959	11156.574993171101	0
0	134963	11156.684893852325	0
0	134966	11157.085855615612	1
0	134973	11158.086300751376	1
0	134978	11159.062771397341	1
0	134982	11160.068148719613	2
0	134985	11160.248793051422	3
0	134990	11161.029613443957	3
0	134997	11162.548594132062	3
0	135010	11162.929074946139	0
0	135014	11163.153898216698	0
0	135018	11163.921475196439	1
0	135023	11163.973905294464	1
0	135026	11164.337508940579	2
0	135030	11164.421797667686	3
0	135034	11164.893730626553	4
0	135039	11165.395543541051	4
0	135043	11166.258821984928	5
0	135049	11166.9665491313	5
0	135052	11167.643061002237	6
0	135055	11167.671201239336	7
0	135058	11167.910521782508	8
0	135080	11168.227501298061	0
0	135085	11168.319041086051	0
0	135092	11169.085759059838	0
0	135097	11169.132045717963	0
0	135104	11169.506358948907	0
0	135108	11169.567666584641	0
0	135112	11169.839057406981	1
0	135116	11170.042012894555	2
0	135119	11170.139377651293	3
0	135124	11171.064113596257	4
0	135127	11171.124429319847	5
0	135130	11171.174589426866	6
0	135133	11171.377106883588	7
0	135137	11171.574046788784	8
0	135140	11171.741747424341	9
0	135146	11172.780397487919	10
0	135150	11173.009615293602	11
0	135155	11173.425560048616	12
0	135158	11173.46518056665	13
0	135161	11173.493241677063	14
0	135164	11173.621345786132	15
0	135168	11174.114282816226	16
0	135172	11174.476412593825	17
0	135177	11174.72919531874	17
0	135189	11177.119736590496	16
0	135196	11177.704941063286	16
0	135199	11177.973665348363	17
0	135240	11178.889329602096	0
0	135246	11179.155773243194	0
0	135250	11179.790476822231	0
0	135253	11179.957599636473	1
0	135257	11180.129216176999	2
0	135262	11180.537123331707	2
0	135266	11180.634437145129	3
0	135278	11181.617029099433	0
0	135284	11182.251300162752	0
0	135290	11182.80470156369	0
0	135295	11183.794679763119	0
0	135306	11187.111139043362	0
0	135310	11187.19932774163	0
0	135319	11188.652058002529	1
0	135329	11190.05762339886	0
0	135335	11190.984521757495	0
0	135340	11191.476253730536	0
0	135345	11191.497578325151	0
0	135350	11191.611405980845	0
0	135358	11192.314182552358	0
0	135362	11192.420612615301	0
0	135365	11192.899017414676	1
0	135371	11193.385827043569	1
0	135374	11194.070672816454	2
0	135377	11194.160294745734	3
0	135389	11196.056398088836	2
0	135402	11196.859301901654	0
0	135407	11196.983836998363	0
0	135413	11197.564330473351	1
0	135417	11197.788554041689	2
0	135423	11197.992908416324	2
0	135426	11198.395047492628	3
0	135430	11198.678808938195	4
0	135433	11198.883610813674	5
0	135438	11199.01700326665	6
0	135457	11200.016855516984	0
0	135462	11200.024050489018	0
0	135467	11200.41508062834	0
0	135473	11201.232297426564	0
0	135477	11201.234930971476	0
0	135480	11201.487852240232	1
0	135487	11202.697426486812	1
0	135491	11203.213749790004	2
0	135498	11203.583022681121	2
0	135501	11203.744912494765	3
0	135508	11204.324148930493	3
0	135511	11205.009681353825	4
0	135515	11205.365053174065	5
0	135518	11205.396250986201	6
0	135524	11205.87235325104	7
0	135527	11206.487102484522	8
0	135537	11208.468626723423	8
0	135543	11209.282759948404	8
0	135546	11209.574275650254	9
0	135549	11209.576197088962	10
0	135554	11210.174808881248	11
0	135559	11210.285981068784	11
0	135589	11211.267003199059	0
0	135597	11212.54447189944	0
0	135601	11212.599663047709	0
0	135604	11212.6018582966	1
0	135608	11213.03720633821	2
0	135611	11213.09134644576	3
0	135615	11213.398119419912	4
0	135619	11213.416955107566	5
0	135637	11215.842152417741	0
0	135649	11217.206044928338	0
0	135656	11218.588144913443	0
0	135662	11218.765005331677	0
0	135665	11218.868027985056	1
0	135668	11218.969182025776	2
0	135672	11219.020533452085	3
0	135676	11219.40214061806	4
0	135682	11219.704377687667	4
0	135689	11220.634194918616	4
0	135692	11220.643863662722	5
0	135697	11222.239501913752	6
0	135702	11222.58304805279	7
0	135705	11222.675382231923	8
0	135710	11223.345932952451	9
0	135713	11223.381185831526	10
0	135722	11224.455117687674	10
0	135749	11225.132373947412	0
0	135756	11226.784021400628	0
0	135760	11226.860606319287	0
0	135769	11228.104329326965	0
0	135774	11228.249200367644	0
0	135780	11229.475583726058	0
0	135786	11229.807403598327	0
0	135791	11230.011292221203	0
0	135796	11230.156409366224	0
0	135801	11230.40076744397	0
0	135806	11230.824954978226	0
0	135812	11231.66653510648	0
0	135815	11231.897352215966	1
0	135819	11232.212106385899	2
0	135823	11232.946159933836	3
0	135826	11233.027749741469	4
0	135830	11233.107383697569	5
0	135846	11233.410197905875	0
0	135851	11233.431386095656	0
0	135856	11233.662340102009	0
0	135862	11234.171567877037	0
0	135867	11234.216159616537	0
0	135873	11234.556632116616	0
0	135878	11234.772341404126	0
0	135885	11235.137342935469	0
0	135894	11236.737132258386	0
0	135898	11236.92782062445	0
0	135904	11238.23287955008	0
0	135909	11239.038478107654	0
0	135921	11240.777593292589	0
0	135926	11240.915331804293	0
0	135933	11241.339277384799	0
0	135940	11242.329797461139	0
0	135945	11242.385763525277	0
0	135950	11242.499324526821	0
0	135955	11242.628055105773	0
0	135961	11243.22676881014	0
0	135968	11243.329890743577	0
0	135975	11243.955158484603	0
0	135978	11244.0596885712	1
0	135982	11244.448289597766	2
0	135995	11245.544450879169	0
0	136003	11246.88419317936	0
0	136007	11246.998282345415	0
0	136021	11248.215125239534	0
0	136025	11248.453309548528	1
0	136029	11248.54246593056	2
0	136033	11248.591309233514	3
0	136037	11248.824671127678	4
0	136040	11248.843266669589	5
0	136043	11248.993978072779	6
0	136049	11250.470800766097	7
0	136053	11250.892931631151	8
0	136058	11251.611546937516	9
0	136063	11252.529637771534	10
0	136066	11252.815008612518	11
0	136071	11253.035256444322	11
0	136074	11253.127708923392	12
0	136080	11253.491467439016	13
0	136093	11255.457679561192	12
0	136096	11255.482943701273	13
0	136100	11255.767668553964	14
0	136103	11255.779914486762	15
0	136108	11256.173153447531	16
0	136112	11256.402272048614	17
0	136116	11256.44148195137	18
0	136123	11257.139868757823	18
0	136127	11257.303803778935	19
0	136130	11257.424637151945	20
0	136133	11257.576769173175	21
0	136137	11257.807256280039	22
0	136140	11257.882100588789	23
0	136145	11257.960892240101	23
0	136154	11259.083920887452	23
0	136157	11259.121998344157	24
0	136160	11259.229721942866	25
0	136163	11259.740186921946	26
0	136166	11259.755830402559	27
0	136171	11260.38377561199	27
0	136181	11262.513142452558	26
0	136184	11262.560816847101	27
0	136193	11263.963981174527	26
0	136199	11265.363101892921	26
0	136209	11266.00487415805	26
0	136212	11266.10555482605	27
0	136219	11267.026368963588	27
0	136223	11267.382042479161	28
0	136227	11267.466985992979	29
0	136230	11267.774994934872	30
0	136233	11267.816673510482	31
0	136239	11267.893080990979	31
0	136307	11268.891431483943	0
0	136313	11269.535995777964	0
0	136318	11269.757956901008	0
0	136324	11270.307896405853	0
0	136329	11270.502773201812	0
0	136336	11272.077886370829	0
0	136341	11272.66137759455	0
0	136346	11272.720451632234	0
0	136353	11273.427882098168	0
0	136358	11273.9202117727	0
0	136362	11274.395763820441	0
0	136372	11275.507879908564	0
0	136375	11275.557949146431	1
0	136384	11276.427953727861	1
0	136390	11276.655233574678	2
0	136394	11277.738871720693	3
0	136397	11277.745494254372	4
0	136400	11277.755134313618	5
0	136403	11277.806405137921	6
0	136406	11277.841773713002	7
0	136411	11278.49343166856	7
0	136416	11279.334017342408	8
0	136419	11279.493159841291	9
0	136427	11280.48702520836	9
0	136431	11280.573975991618	10
0	136466	11284.522164448215	0
0	136473	11286.489697531573	0
0	136483	11288.436320312513	0
0	136487	11289.294706256174	1
0	136490	11289.353900541356	2
0	136502	11289.926983055244	0
0	136506	11290.207115555574	0
0	136510	11290.404078086519	1
0	136514	11290.636197929953	2
0	136517	11290.728028992519	3
0	136520	11290.893088099558	4
0	136527	11291.739777448084	4
0	136541	11292.598387955187	0
0	136548	11293.90389094555	0
0	136552	11294.403550629822	0
0	136558	11295.399977288532	1
0	136573	11297.558203992225	0
0	136577	11297.703796073143	1
0	136581	11298.313648037839	2
0	136584	11298.360355592461	3
0	136589	11298.887142179703	4
[...]
2	164063	13562.41150671363	24.02117794404
2	164107	13567.41150671363	24.720511762802
2	164112	13568.41150671363	25.115486439878
2	164120	13569.41150671363	27.058001038648
2	164129	13571.41150671363	27.554290990554
2	164143	13572.41150671363	29.088445899482
2	164178	13574.41150671363	29.503367562884
2	164188	13575.41150671363	29.658623362584
2	164194	13576.41150671363	30.638788668942
2	164204	13577.41150671363	30.64090088041
2	164215	13578.41150671363	31.141085965494
2	164227	13579.41150671363	31.767195457824
2	164242	13581.41150671363	31.118898667296
2	164243	13581.41150671363	29.288709174778
2	164245	13581.41150671363	29.121378732218
2	164247	13581.41150671363	29.098022986904
2	164249	13581.41150671363	28.694038224698
2	164251	13581.41150671363	27.529862163554
2	164253	13581.41150671363	27.526868654164
2	164255	13581.41150671363	27.136993039974
2	164257	13581.41150671363	27.117717081786
2	164259	13581.41150671363	26.284248317598
2	164261	13581.41150671363	25.781426685524
2	164263	13581.41150671363	25.503458749606
2	164265	13581.41150671363	24.946140746296
2	164267	13581.41150671363	24.886271576002
2	164269	13581.41150671363	24.29506525137
2	164271	13581.41150671363	23.936256913778
2	164273	13581.41150671363	23.602241055234
2	164275	13581.41150671363	23.23069410882
2	164277	13581.41150671363	22.775096096858
2	164279	13581.41150671363	22.489008190876
2	164281	13581.41150671363	22.411317350482
2	164283	13581.41150671363	22.346643620842
2	164285	13581.41150671363	22.14863425399
2	164287	13581.41150671363	22.130441570118
2	164289	13581.41150671363	21.78158287234
2	164291	13581.41150671363	21.762970690294
2	164293	13581.41150671363	21.69524318475
2	164295	13581.41150671363	21.635546323958
2	164297	13581.41150671363	21.426459878102
2	164299	13581.41150671363	21.41218652037
2	164301	13581.41150671363	21.348027360042
2	164303	13581.41150671363	20.765613445076
2	164305	13581.41150671363	19.685748189676
2	164307	13581.41150671363	18.301540635222
2	164309	13581.41150671363	17.40977633197
2	164311	13581.41150671363	17.291122643172
2	164313	13581.41150671363	17.179052994744
2	164315	13581.41150671363	16.12562742881
2	164317	13581.41150671363	15.004804048042
2	164319	13581.41150671363	14.633352906718
2	164321	13581.41150671363	14.244537358808
2	164323	13581.41150671363	14.205177815346
2	164325	13581.41150671363	14.152113743966
2	164327	13581.41150671363	13.11845087169
2	164329	13581.41150671363	12.313982953772
2	164331	13581.41150671363	11.994480884454
2	164333	13581.41150671363	11.523258197628
2	164335	13581.41150671363	9.919108953986
2	164337	13581.41150671363	9.51166673077
2	164339	13581.41150671363	9.508077377046
2	164341	13581.41150671363	8.591730786446
2	164343	13581.41150671363	8.385308254844
2	164345	13581.41150671363	8.351610214938
2	164347	13581.41150671363	8.23710856355
2	164349	13581.41150671363	7.437899877622
2	164351	13581.41150671363	7.429280380332
2	164353	13581.41150671363	7.353387099066
2	164355	13581.41150671363	7.147242229194
2	164357	13581.41150671363	7.04735837516
2	164359	13581.41150671363	6.704072100896
2	164361	13581.41150671363	6.318472222716
2	164363	13581.41150671363	5.947800494164
2	164365	13581.41150671363	4.897007922886
2	164367	13581.41150671363	4.140824019718
2	164369	13581.41150671363	3.97614680678
2	164371	13581.41150671363	3.782655272562
2	164373	13581.41150671363	3.009206119474
2	164375	13581.41150671363	2.984108064044
2	164377	13581.41150671363	2.715434504516
2	164379	13581.41150671363	2.208110274954
2	164381	13581.41150671363	1.95454941951
2	164383	13581.41150671363	0.758192666036
2	164385	13581.41150671363	0.705157895768
2	164387	13581.41150671363	0.262686000446
2	164393	13582.078731692459	0.999999999999
2	164407	13583.078731692459	1.864888679035
2	164415	13584.078731692459	2.467153012283
2	164423	13585.078731692459	3.312771219307
2	164444	13586.078731692459	6.086897977999
2	164461	13589.078731692459	6.864674586113
2	164468	13590.078731692459	7.770905401059
2	164477	13591.078731692459	8.747062825055
2	164497	13593.078731692459	9.387067175109
2	164509	13594.078731692459	8.506280170213
2	164510	13594.078731692459	8.406414302693
2	164512	13594.078731692459	8.362844213201
2	164514	13594.078731692459	8.249464366591
2	164516	13594.078731692459	8.171407023107
2	164518	13594.078731692459	7.790887965571
2	164520	13594.078731692459	7.205526730071
2	164522	13594.078731692459	6.212889976319
2	164524	13594.078731692459	5.654212019571
2	164526	13594.078731692459	4.789129947649
2	164528	13594.078731692459	3.728938239023
2	164530	13594.078731692459	3.240107123905
2	164532	13594.078731692459	2.930772823823
2	164534	13594.078731692459	2.732686104697
2	164536	13594.078731692459	2.315540741499
2	164538	13594.078731692459	2.169432150123
2	164540	13594.078731692459	1.133400210247
2	164542	13594.078731692459	0.710331098287
2	164544	13594.078731692459	0.542927317131
2	164546	13594.078731692459	0.055750015611
2	164554	13594.704932033412	2
2	164569	13596.704932033412	0.64382790634
2	164570	13596.704932033412	0.504423725624
2	164580	13597.555245538925	2.000000000001
2	164599	13599.555245538925	3.962696869101
2	164615	13601.555245538925	4.765895501765
2	164625	13602.555245538925	5.466618694669
2	164637	13603.555245538925	5.378719448205
2	164638	13603.555245538925	5.369335252045
2	164640	13603.555245538925	3.608340328285
2	164642	13603.555245538925	2.943054763117
2	164644	13603.555245538925	2.015956204419
2	164646	13603.555245538925	1.873477293257
2	164648	13603.555245538925	1.853157501853
2	164650	13603.555245538925	0.709350862531
2	164652	13603.555245538925	0.067912234301
2	164654	13603.555245538925	0.055310875139
2	164660	13603.596379803422	2e-012
2	164666	13603.84131134336	0
2	164672	13604.115701475801	2.000000000001
2	164683	13606.115701475801	1.734572743009
2	164684	13606.115701475801	1.303545083637
2	164691	13607.08249888249	1
2	164704	13608.08249888249	1.769472430246
2	164721	13609.08249888249	2.51682055663
2	164738	13610.08249888249	3.159092702384
2	164751	13611.08249888249	3.575369646906
2	164759	13612.08249888249	4.489524965906
2	164770	13613.08249888249	5.48257565185
2	164779	13614.08249888249	6.1714367811
2	164791	13615.08249888249	7.784619200164
2	164806	13617.08249888249	8.386993118334
2	164817	13618.08249888249	9.118051610528
2	164829	13619.08249888249	10.077623681158
2	164837	13620.08249888249	9.935343083278
2	164838	13620.08249888249	9.386650962834
2	164840	13620.08249888249	9.047003541464
2	164842	13620.08249888249	8.901903139628
2	164844	13620.08249888249	7.815840932786
2	164846	13620.08249888249	7.57310023943
2	164848	13620.08249888249	6.529599223326
2	164850	13620.08249888249	6.515930895254
2	164852	13620.08249888249	5.960927002498
2	164854	13620.08249888249	5.255337196668
2	164856	13620.08249888249	5.037891238018
2	164858	13620.08249888249	4.653109033698
2	164860	13620.08249888249	3.908465410654
2	164862	13620.08249888249	3.728813400562
2	164864	13620.08249888249	2.986063544966
2	164866	13620.08249888249	2.978681580658
2	164868	13620.08249888249	1.87125335293
2	164870	13620.08249888249	1.711389915252
2	164872	13620.08249888249	0.527397266638
2	164878	13620.423176878137	1.000000000001
2	164888	13621.423176878137	0.816979745945
2	164889	13621.423176878137	0.269615808985
2	164896	13621.545016822276	0
2	164901	13621.873226862253	1e-012
2	164907	13622.304023403549	1e-012
2	164912	13622.401497243633	1e-012
2	164917	13622.513449667742	0
2	164922	13622.587314513682	0
2	164932	13624.054147834688	0
2	164937	13624.212183436867	0.999999999999
2	164944	13625.212183436867	1.402635956225
2	164955	13626.212183436867	1.730712036407
2	164967	13627.212183436867	1.011082113735
2	164968	13627.212183436867	0.615541726463
2	164970	13627.212183436867	0.303226261223
2	164972	13627.212183436867	0.291367177753
2	164979	13627.926273013948	1
2	164985	13628.926273013948	1.673154095386
2	165000	13629.926273013948	0.66855684783
2	165001	13629.926273013948	0.615962542212
2	165003	13629.926273013948	0.580420260104
2	165005	13629.926273013948	0.33026834671
2	165012	13630.523471652354	1
2	165017	13631.523471652354	1.932497696422
2	165025	13632.523471652354	1.983262191582
2	165030	13633.523471652354	2.861172905694
2	165041	13634.523471652354	2.988572434246
2	165049	13635.523471652354	3.668067788674
2	165064	13637.523471652354	4.421758730708
2	165078	13638.523471652354	3.769678796582
2	165079	13638.523471652354	3.33294698412
2	165081	13638.523471652354	2.529007738618
2	165083	13638.523471652354	2.124546052426
2	165085	13638.523471652354	1.632718067046
2	165087	13638.523471652354	0.938660187126
2	165089	13638.523471652354	0.879397243114
2	165099	13639.665732737326	1
2	165108	13640.665732737326	1.16028216643
2	165117	13641.665732737326	2.128892001836
2	165130	13642.665732737326	3.795729554498
2	165154	13644.665732737326	4.016430412558
2	165162	13645.665732737326	3.940332361824
2	165163	13645.665732737326	3.669834921208
2	165165	13645.665732737326	3.16245380181
2	165167	13645.665732737326	2.92730797243
2	165169	13645.665732737326	2.846163907882
2	165171	13645.665732737326	2.396302761274
2	165173	13645.665732737326	1.502720382474
2	165175	13645.665732737326	1.387378104294
2	165177	13645.665732737326	1.24691397586
2	165179	13645.665732737326	0.22922919804
2	165185	13645.980762837308	1
2	165198	13646.980762837308	0.972913233114
2	165199	13646.980762837308	0.181166773
2	165201	13646.980762837308	0.126619204288
2	165207	13647.373867112607	-1e-012
2	165214	13648.214425565682	2
2	165230	13650.214425565682	1.646023847862
2	165231	13650.214425565682	1.05934447171
2	165233	13650.214425565682	0.939368939308
2	165235	13650.214425565682	0.282030731534
2	165243	13651.313957563713	1.000000000001
2	165256	13652.313957563713	3.760736080753
2	165283	13655.313957563713	3.713467921413
2	165284	13655.313957563713	3.089195496829
2	165286	13655.313957563713	2.767567203333
2	165288	13655.313957563713	2.584452222789
2	165290	13655.313957563713	2.005760232845
2	165292	13655.313957563713	1.244153338103
2	165294	13655.313957563713	1.175526374309
2	165296	13655.313957563713	1.102867927351
2	165298	13655.313957563713	0.904107012801
2	165304	13655.721009176428	0
2	165312	13656.678834690739	1.999999999999
2	165330	13658.678834690739	1.015813554129
2	165331	13658.678834690739	0.810379264325
2	165333	13658.678834690739	0.809870185545
2	165335	13658.678834690739	0.662653271733
2	165337	13658.678834690739	0.417709976699
2	165344	13659.000241994476	0
2	165349	13659.16083733361	0
2	165354	13659.283085015058	0
2	165360	13660.033681813097	1.000000000001
2	165372	13661.033681813097	2.683617315333
2	165385	13663.033681813097	4.583949198227
2	165413	13665.033681813097	4.423356755763
2	165418	13666.033681813097	6.260481014785
2	165431	13668.033681813097	5.430591513479
2	165434	13669.033681813097	5.396525435673
2	165435	13669.033681813097	4.678969275593
2	165437	13669.033681813097	4.527315998571
2	165439	13669.033681813097	4.526143391273
2	165441	13669.033681813097	4.419052253799
2	165443	13669.033681813097	4.338125831283
2	165445	13669.033681813097	3.008634068961
2	165447	13669.033681813097	2.522035414423
2	165449	13669.033681813097	1.699572291449
2	165451	13669.033681813097	1.280224904485
2	165458	13669.154180840146	0
2	165464	13669.527783106809	1.000000000003
2	165479	13670.527783106809	3.845420579521
2	165505	13673.527783106809	6.380541646705
2	165541	13676.527783106809	6.262395424483
2	165542	13676.527783106809	6.222336913385
2	165544	13676.527783106809	5.800586150527
2	165546	13676.527783106809	5.565695894225
2	165548	13676.527783106809	5.059837951819
2	165550	13676.527783106809	3.898920515605
2	165552	13676.527783106809	2.537462063695
2	165554	13676.527783106809	2.243606978661
2	165556	13676.527783106809	1.757665542743
2	165558	13676.527783106809	1.350723323437
2	165560	13676.527783106809	1.208922956993
2	165562	13676.527783106809	0.710731927487
2	165564	13676.527783106809	0.400035982901
2	165566	13676.527783106809	0.241954670361
2	165568	13676.527783106809	0.001412911513
2	165575	13676.950471746623	-1e-012
2	165580	13677.007311360461	1e-012
2	165586	13677.406317185216	0
2	165592	13677.62037614738	1.000000000002
2	165599	13679.179095441151	4.999999999999
2	165633	13684.179095441151	5.584390873781
2	165652	13685.179095441151	5.155218267039
2	165657	13686.179095441151	5.825149383041
2	165666	13687.179095441151	6.206702200689
2	165678	13688.179095441151	6.119977254057
2	165679	13688.179095441151	5.974873289785
2	165681	13688.179095441151	5.851936222445
2	165683	13688.179095441151	5.665460155253
2	165685	13688.179095441151	4.240618103559
2	165687	13688.179095441151	3.964956626309
2	165689	13688.179095441151	3.859456023883
2	165691	13688.179095441151	3.660111840025
2	165693	13688.179095441151	3.284029007231
2	165695	13688.179095441151	3.252362546761
2	165697	13688.179095441151	1.529050548265
2	165699	13688.179095441151	1.210118195361
2	165701	13688.179095441151	0.494868235691
2	165703	13688.179095441151	0.137968317707
2	165710	13688.733141900912	0
2	165715	13688.737965510475	-1e-012
2	165721	13689.391269440227	0.999999999999
2	165730	13690.391269440227	1.498107526307
2	165736	13691.446543559115	1.999999999999
2	165761	13693.446543559115	2.938392721413
2	165770	13694.446543559115	4.711875921359
2	165781	13697.446543559115	4.651067730131
2	165782	13697.446543559115	4.361376644039
2	165784	13697.446543559115	4.283185225087
2	165786	13697.446543559115	4.180536958423
2	165788	13697.446543559115	4.079608722711
2	165790	13697.446543559115	3.954715581975
2	165792	13697.446543559115	3.715733377013
2	165794	13697.446543559115	2.401294082201
2	165796	13697.446543559115	2.304832712653
2	165802	13697.521448231475	-1e-012
2	165807	13697.653105830635	-1e-012
2	165814	13699.778436336696	1
2	165834	13700.778436336696	1.90532231681
2	165840	13701.778436336696	2.729275466456
2	165850	13702.778436336696	3.683210294528
2	165864	13703.778436336696	7.656552249388
2	165906	13707.778436336696	7.477107949924
2	165907	13707.778436336696	7.031281032352
2	165909	13707.778436336696	6.95453041207
2	165911	13707.778436336696	5.891447674416
2	165913	13707.778436336696	5.435055187928
2	165915	13707.778436336696	4.792164122712
2	165917	13707.778436336696	4.544084257102
2	165919	13707.778436336696	4.153510611332
2	165921	13707.778436336696	4.103944732992
2	165923	13707.778436336696	3.950649918408
2	165925	13707.778436336696	3.774549696848
2	165927	13707.778436336696	3.769016739272
2	165929	13707.778436336696	3.744051480304
2	165931	13707.778436336696	3.21058598058
2	165933	13707.778436336696	2.495701253238
2	165935	13707.778436336696	1.87455609147
2	165937	13707.778436336696	1.330827064508
2	165939	13707.778436336696	1.211404643064
2	165941	13707.778436336696	1.060101945874
2	165943	13707.778436336696	0.321039342544
2	165949	13707.892176571537	3e-012
2	165954	13708.147279524357	1e-012
2	165959	13708.771241527114	0
2	165965	13709.877875426802	0
2	165970	13710.034673738303	0.999999999999
2	165977	13711.034673738303	0.292945928051
2	165983	13712.011084375448	0
2	165988	13712.062113627402	0
2	165994	13713.51264441122	0
2	166001	13713.918622151997	1.000000000001
2	166012	13714.918622151997	0.477307960269
2	166013	13714.918622151997	0.388339826069
2	166015	13714.918622151997	0.233730740111
2	166022	13715.102107886469	1.000000000003
2	166029	13716.102107886469	1.328819820553
2	166037	13717.102107886469	0.905300082721
2	166043	13717.366655470455	-1e-012
2	166048	13717.540219955748	0
2	166056	13718.139315416454	2
2	166074	13720.139315416454	2.54024843344
2	166083	13721.139315416454	3.048001255158
2	166096	13722.139315416454	3.980273541926
2	166106	13723.139315416454	4.558983398042
2	166113	13724.139315416454	4.7132893616
2	166130	13725.139315416454	4.557022278954
2	166131	13725.139315416454	3.746084332332
2	166133	13725.139315416454	3.588420411634
2	166135	13725.139315416454	3.03441659727
2	166137	13725.139315416454	2.71694981563
2	166139	13725.139315416454	2.644706446436
2	166141	13725.139315416454	1.403803796832
2	166143	13725.139315416454	0.864095367732
2	166145	13725.139315416454	0.82412331986
2	166147	13725.139315416454	0.588913644296
2	166149	13725.139315416454	0.330590454292
2	166155	13725.20008329212	0
2	166160	13725.204626074644	2e-012
2	166165	13725.47576668898	1
2	166172	13726.47576668898	0.648528056202
2	166177	13726.493210706008	0
2	166184	13726.957071391554	1
2	166196	13727.957071391554	0.97937386895
2	166197	13727.957071391554	0.347450107294
2	166199	13727.957071391554	0.257765161602
2	166208	13729.22989961556	2
2	166221	13731.22989961556	2.717142822544
2	166235	13732.22989961556	2.315304488728
2	166236	13732.22989961556	1.85586341854
2	166238	13732.22989961556	0.986953324172
2	166240	13732.22989961556	0.976064764046
2	166242	13732.22989961556	0.501221750736
2	166248	13732.467356148272	1
2	166254	13733.467356148272	2.081292160676
2	166276	13735.467356148272	2.96736799739
2	166281	13736.467356148272	2.90208632681
2	166286	13737.467356148272	3.863173439118
2	166296	13738.467356148272	8.763177566066
2	166347	13743.467356148272	10.167381799796
2	166365	13745.467356148272	8.442850104212
2	166380	13746.467356148272	9.3523139805
2	166387	13747.467356148272	9.401212487162
2	166394	13748.467356148272	9.365939962728
2	166395	13748.467356148272	9.290007759336
2	166397	13748.467356148272	9.258778276276
2	166399	13748.467356148272	8.22185974296
2	166401	13748.467356148272	7.81323009462
2	166403	13748.467356148272	7.734309636816
2	166405	13748.467356148272	7.370401339656
2	166407	13748.467356148272	6.420055588626
2	166409	13748.467356148272	6.053653736948
2	166411	13748.467356148272	5.965688738104
2	166413	13748.467356148272	5.52094096122
2	166415	13748.467356148272	5.064137053402
2	166417	13748.467356148272	4.45105201857
2	166419	13748.467356148272	3.65393400692
2	166421	13748.467356148272	3.392169069944
2	166423	13748.467356148272	3.053992152428
2	166425	13748.467356148272	2.794657944356
2	166427	13748.467356148272	2.659687486136
2	166429	13748.467356148272	2.364284613004
2	166431	13748.467356148272	2.01182611127
2	166433	13748.467356148272	0.96118835022
2	166439	13748.535373987835	-1e-012
2	166446	13749.293091333448	2
2	166476	13751.293091333448	3.834270797532
2	166487	13753.293091333448	4.128964428948
2	166492	13754.293091333448	3.997787426972
2	166493	13754.293091333448	3.85269613846
2	166495	13754.293091333448	3.537311683188
2	166497	13754.293091333448	3.511453132468
2	166499	13754.293091333448	3.335621625716
2	166501	13754.293091333448	3.324641879668
2	166503	13754.293091333448	2.500596656372
2	166505	13754.293091333448	1.94681358443
2	166507	13754.293091333448	0.984948380712
2	166516	13755.623319172373	1.000000000001
2	166526	13756.623319172373	0.990544210417
2	166527	13756.623319172373	0.305705753473
2	166533	13756.89260379551	0
2	166539	13757.105285349006	1
2	166557	13758.105285349006	2.588352632486
2	166584	13760.105285349006	3.553523908042
2	166591	13761.105285349006	4.553500764956
2	166598	13762.105285349006	5.23023634208
2	166601	13763.105285349006	6.009270685422
2	166610	13764.105285349006	6.497216024074
2	166616	13765.105285349006	8.47941413677
2	166622	13767.105285349006	9.172755145466
2	166633	13768.105285349006	10.083060110164
2	166641	13769.105285349006	10.250768033144
2	166653	13770.105285349006	11.17167687629
2	166662	13771.105285349006	12.066229112562
2	166674	13772.105285349006	12.146385851614
2	166694	13773.105285349006	11.054659486614
2	166695	13773.105285349006	9.787777106162
2	166697	13773.105285349006	9.213305575834
2	166699	13773.105285349006	8.817889042142
2	166701	13773.105285349006	6.937302217746
2	166703	13773.105285349006	5.56541735573
2	166705	13773.105285349006	5.382880253286
2	166707	13773.105285349006	4.692709063246
2	166709	13773.105285349006	3.928495484268
2	166711	13773.105285349006	3.741976630854
2	166713	13773.105285349006	3.541081319538
2	166715	13773.105285349006	2.742546041938
2	166717	13773.105285349006	2.372484504618
2	166719	13773.105285349006	1.46891409048
2	166721	13773.105285349006	1.299639275088
2	166723	13773.105285349006	0.94072979672

