file 1466404 1612888991                                         
version 2
run Non-monitoring-6-20210209-17:43:11-14752
attr configname Non-monitoring
attr datetime 20210209-17:43:11
attr experiment Non-monitoring
attr inifile aerocom.ini
attr iterationvars ""
attr iterationvarsf ""
attr measurement ""
attr network Aerocom
attr processid 14752
attr repetition 6
attr replication #6
attr resultdir results
attr runnumber 6
attr seedset 6
param **.t 1s
param **.k 50ms
param **.nA 1
param **.nDL 1
param **.s "70 byte"
param **.X 0s
param **.dimPoolMax 9000
param **.dimPoolMin 9000
param **.tDistribution "\"exponential\""
param **.m 1s
param **.DLMaxCapacity 0
param **.trasmitting false
param **.operationMode 1

vector 0 Aerocom.aircraft[0].packetGenerator arrivalTime:vector ETV
attr "" ""
attr source computeArrivalTime
vector 1 Aerocom.aircraft[0].dataLink[0] queueLength:vector ETV
attr "" ""
attr source computeQueueLength
vector 2 Aerocom.aircraft[0].dataLink[0] waitingTime:vector ETV
attr "" ""
attr source computeWaitingTime
vector 3 Aerocom.aircraft[0].dataLink[0] serviceTime:vector ETV
attr "" ""
attr source computeServiceTime
vector 4 Aerocom.aircraft[0].dataLink[0] responseTime:vector ETV
attr "" ""
attr source computeResponseTime
vector 5 Aerocom.aircraft[0].dataLink[0] tDistribution:vector ETV
attr "" ""
attr source computeTDistribution
0	1345 321156 993 41184 10.015338775394 399.953096474408 7966 9.788926e-006 0.416564388416 390.02779844956 37.698582319784
1	322501 218514 995 41186 10.015338775394 399.953096474408 7966 0 2 123 137
2	541015 234147 995 41186 10.015338775394 399.953096474408 7966 0 0.02301969094 5.631271728325 0.037789387395749
3	775162 353939 995 41186 10.015338775394 399.953096474408 7966 0.0077777777777778 0.0077777777777778 61.957777777771 0.48189382716053
4	1129101 321944 995 41186 10.015338775394 399.953096474408 7966 0.007777777778 0.030797468718 67.589049507881 0.60728077480471
5	1451045 15357 1043 41183 10.660451858266 399.932627346553 366 0.0013719131306854 5.6842318022927 390.48596034169 763.72388010481

