version 2
run Non-monitoring-0-20210208-19:10:38-8996
attr configname Non-monitoring
attr datetime 20210208-19:10:38
attr experiment Non-monitoring
attr inifile aerocom.ini
attr iterationvars ""
attr iterationvarsf ""
attr measurement ""
attr network Aerocom
attr processid 8996
attr repetition 0
attr replication #0
attr resultdir results
attr runnumber 0
attr seedset 0
param **.t 1s
param **.k 15ms
param **.nA 1
param **.nDL 10
param **.s "70 byte"
param **.X 5s
param **.dimPoolMax 10000
param **.dimPoolMin 8000
param **.tDistribution "\"lognormal\""
param **.m 1s
param **.DLMaxCapacity 0
param **.trasmitting false
param **.operationMode 1

vector 0 Aerocom.aircraft[0].packetGenerator arrivalTime:vector ETV
attr "" ""
attr source computeArrivalTime
vector 1 Aerocom.aircraft[0].dataLink[0] serviceTime:vector ETV
attr "" ""
attr source computeServiceTime
vector 2 Aerocom.aircraft[0].dataLink[0] tDistribution:vector ETV
attr "" ""
attr source computeTDistribution
vector 3 Aerocom.aircraft[0].dataLink[1] serviceTime:vector ETV
attr "" ""
attr source computeServiceTime
vector 4 Aerocom.aircraft[0].dataLink[1] tDistribution:vector ETV
attr "" ""
attr source computeTDistribution
vector 5 Aerocom.aircraft[0].dataLink[2] serviceTime:vector ETV
attr "" ""
attr source computeServiceTime
vector 6 Aerocom.aircraft[0].dataLink[2] tDistribution:vector ETV
attr "" ""
attr source computeTDistribution
vector 7 Aerocom.aircraft[0].dataLink[3] serviceTime:vector ETV
attr "" ""
attr source computeServiceTime
vector 8 Aerocom.aircraft[0].dataLink[3] tDistribution:vector ETV
attr "" ""
attr source computeTDistribution
vector 9 Aerocom.aircraft[0].dataLink[4] serviceTime:vector ETV
attr "" ""
attr source computeServiceTime
vector 10 Aerocom.aircraft[0].dataLink[4] tDistribution:vector ETV
attr "" ""
attr source computeTDistribution
vector 11 Aerocom.aircraft[0].dataLink[5] serviceTime:vector ETV
attr "" ""
attr source computeServiceTime
vector 12 Aerocom.aircraft[0].dataLink[5] tDistribution:vector ETV
attr "" ""
attr source computeTDistribution
vector 13 Aerocom.aircraft[0].dataLink[6] serviceTime:vector ETV
attr "" ""
attr source computeServiceTime
vector 14 Aerocom.aircraft[0].dataLink[6] tDistribution:vector ETV
attr "" ""
attr source computeTDistribution
vector 15 Aerocom.aircraft[0].dataLink[7] serviceTime:vector ETV
attr "" ""
attr source computeServiceTime
vector 16 Aerocom.aircraft[0].dataLink[7] tDistribution:vector ETV
attr "" ""
attr source computeTDistribution
vector 17 Aerocom.aircraft[0].dataLink[8] serviceTime:vector ETV
attr "" ""
attr source computeServiceTime
vector 18 Aerocom.aircraft[0].dataLink[8] tDistribution:vector ETV
attr "" ""
attr source computeTDistribution
vector 19 Aerocom.aircraft[0].dataLink[9] serviceTime:vector ETV
attr "" ""
attr source computeServiceTime
vector 20 Aerocom.aircraft[0].dataLink[9] tDistribution:vector ETV
attr "" ""
attr source computeTDistribution
vector 21 Aerocom.aircraft[0].dataLink[6] queueLength:vector ETV
attr "" ""
attr source computeQueueLength
vector 22 Aerocom.aircraft[0].dataLink[6] waitingTime:vector ETV
attr "" ""
attr source computeWaitingTime
vector 23 Aerocom.aircraft[0].dataLink[6] responseTime:vector ETV
attr "" ""
attr source computeResponseTime
0	0	0	0.011938117568
0	12	0.011938117568	0.025083168005
0	17	0.037021285573	0.0112901117
0	22	0.048311397273	0.009808238508
0	27	0.058119635781	0.012591492794
0	33	0.070711128575	0.027125538964
0	39	0.097836667539	0.001367415392
0	43	0.099204082931	0.015669187625
0	49	0.114873270556	0.000306383826
0	53	0.115179654382	0.006888722059
0	56	0.122068376441	0.026812314952
0	65	0.148880691393	0.002268462805
0	69	0.151149154198	0.030604713869
0	75	0.181753868067	0.030613383239
0	80	0.212367251306	0.057678328037
0	85	0.270045579343	0.00962563759
0	90	0.279671216933	0.024078593356
0	95	0.303749810289	0.024210031123
0	100	0.327959841412	0.009283941894
0	105	0.337243783306	0.011024466318
0	110	0.348268249624	0.02274803961
0	115	0.371016289234	0.017039084126
0	120	0.38805537336	0.001888116142
0	124	0.389943489502	0.019128415533
0	130	0.409071905035	0.015321478115
0	135	0.42439338315	0.013084817926
0	140	0.437478201076	0.002320945208
0	144	0.439799146284	0.011562519877
0	150	0.451361666161	0.011067409376
0	156	0.462429075537	0.001679192409
0	160	0.464108267946	0.008033485803
0	165	0.472141753749	0.00962542053
0	170	0.481767174279	0.004609205282
0	175	0.486376379561	0.00309304923
0	178	0.489469428791	0.022323822386
0	187	0.511793251177	0.003660727361
0	191	0.515453978538	0.012605020584
0	197	0.528058999122	0.002179170409
0	201	0.530238169531	0.000284528538
0	204	0.530522698069	0.00587656216
0	209	0.536399260229	0.014420714086
0	214	0.550819974315	0.002432047342
0	219	0.553252021657	0.014204950158
0	226	0.567456971815	0.003771628981
0	229	0.571228600796	0.014393219661
0	236	0.585621820457	0.00732835574
0	241	0.592950176197	0.043168725319
0	248	0.636118901516	0.008966191152
0	253	0.645085092668	0.006682777426
0	257	0.651767870094	0.014242418752
0	263	0.666010288846	0.008617986101
0	268	0.674628274947	0.034895265925
0	273	0.709523540872	0.017941616992
0	278	0.727465157864	0.001568418387
0	282	0.729033576251	0.000931729357
0	285	0.729965305608	0.052503205267
0	293	0.782468510875	0.016483687013
0	298	0.798952197888	0.015882511972
0	303	0.81483470986	0.016658961685
0	309	0.831493671545	0.006651060429
0	313	0.838144731974	0.002070430326
0	318	0.8402151623	0.020835640347
0	324	0.861050802647	0.005684429464
0	328	0.866735232111	0.014040923397
0	334	0.880776155508	0.006781530903
0	338	0.887557686411	0.00589668836
0	343	0.893454374771	0.012666416903
0	349	0.906120791674	0.000587747346
0	353	0.90670853902	0.008659864662
0	358	0.915368403682	0.015088065077
0	364	0.930456468759	0.066817452693
0	369	0.997273921452	0.047894199631
0	374	1.045168121083	0.001614526622
0	378	1.046782647705	0.0158673962
0	384	1.062650043905	0.003514522782
0	389	1.066164566687	0.080401505254
0	395	1.146566071941	0.015881140726
0	400	1.162447212667	0.013078737804
0	405	1.175525950471	0.004381207999
0	409	1.17990715847	0.008025970156
0	414	1.187933128626	0.009419123715
0	419	1.197352252341	0.009656715024
0	425	1.207008967365	0.004204155127
0	429	1.211213122492	0.014652961111
0	435	1.225866083603	0.002596911842
0	439	1.228462995445	0.006187518449
0	444	1.234650513894	0.001754331147
0	447	1.236404845041	0.016847524523
0	454	1.253252369564	0.016021082957
0	460	1.269273452521	0.005723337651
0	464	1.274996790172	0.002230684039
0	469	1.277227474211	0.022599529999
0	475	1.29982700421	0.003283208948
0	479	1.303110213158	0.044807848378
0	485	1.347918061536	0.006900209366
0	489	1.354818270902	0.016294040713
0	495	1.371112311615	0.025804974866
0	500	1.396917286481	0.000204968676
0	504	1.397122255157	0.001532173223
0	507	1.39865442838	0.014626529012
0	514	1.413280957392	0.027297283789
0	520	1.440578241181	0.016797215486
0	525	1.457375456667	0.00151552163
0	529	1.458890978297	0.053603825585
0	535	1.512494803882	0.056235471894
0	542	1.568730275776	0.000859903896
0	546	1.569590179672	0.013927177454
0	551	1.583517357126	0.0089992033
0	557	1.592516560426	0.020163679082
0	562	1.612680239508	0.000302851922
0	566	1.61298309143	0.000599644486
0	569	1.613582735916	0.008743175833
0	574	1.622325911749	0.004986153614
0	577	1.627312065363	0.058373551843
0	587	1.685685617206	0.00192085148
0	591	1.687606468686	0.006681291929
0	596	1.694287760615	0.005267641341
0	599	1.699555401956	0.009834694265
0	606	1.709390096221	0.001895829546
0	609	1.711285925767	0.017503102898
0	616	1.728789028665	0.005740514233
0	621	1.734529542898	0.031863557955
0	627	1.766393100853	0.008023265636
0	632	1.774416366489	0.037558676746
0	637	1.811975043235	0.000994461022
0	641	1.812969504257	0.003665931721
0	644	1.816635435978	0.017687842906
0	651	1.834323278884	0.012492652741
0	657	1.846815931625	0.01254146298
0	662	1.859357394605	0.030048607838
0	667	1.889406002443	0.004626222601
0	671	1.894032225044	0.010668719058
0	677	1.904700944102	0.011111384257
0	683	1.915812328359	0.038104567619
0	688	1.953916895978	0.012868434616
0	693	1.966785330594	0.001301557235
0	697	1.968086887829	0.03973883893
0	703	2.007825726759	0.004880106233
0	707	2.012705832992	0.005753403211
0	712	2.018459236203	0.00014101126
0	715	2.018600247463	0.016512688651
0	722	2.035112936114	0.027709914765
0	728	2.062822850879	0.002119960703
0	732	2.064942811582	0.015626709813
0	738	2.080569521395	0.018899007152
0	743	2.099468528547	0.027619237072
0	748	2.127087765619	0.005124812505
0	752	2.132212578124	0.004612765856
0	757	2.13682534398	0.003035256579
0	760	2.139860600559	0.007608001849
0	765	2.147468602408	0.013246935629
0	772	2.160715538037	0.012071960997
0	778	2.172787499034	0.000304686882
0	782	2.173092185916	0.00270378378
0	785	2.175795969696	0.026486116086
0	793	2.202282085782	0.006925963441
0	797	2.209208049223	7.0598107e-005
0	800	2.20927864733	0.002375122593
0	805	2.211653769923	0.01698951213
0	812	2.228643282053	0.012646245482
0	818	2.241289527535	0.004720824913
0	822	2.246010352448	0.018247629802
0	828	2.26425798225	0.019931368106
0	833	2.284189350356	0.005105201074
0	837	2.28929455143	0.049127147666
0	843	2.338421699096	0.008518562302
0	848	2.346940261398	0.004290314588
0	852	2.351230575986	0.021165366139
0	858	2.372395942125	0.012875894517
0	863	2.385271836642	0.007565157099
0	867	2.392836993741	0.013448863062
0	873	2.406285856803	0.033956003638
0	878	2.440241860441	0.012738312173
0	883	2.452980172614	0.01527988095
0	888	2.468260053564	0.003786299893
0	892	2.472046353457	0.033322603477
0	898	2.505368956934	0.045784224853
0	903	2.551153181787	0.017094119453
0	908	2.56824730124	0.008889360412
0	913	2.577136661652	0.008945690915
0	918	2.586082352567	0.028101898198
0	923	2.614184250765	0.057645098749
0	928	2.671829349514	0.018033578509
0	933	2.689862928023	0.00185289971
0	937	2.691715827733	0.005295301999
0	940	2.697011129732	0.021852278378
0	948	2.71886340811	0.025213833068
0	953	2.744077241178	0.007960837449
0	958	2.752038078627	0.007575281216
0	963	2.759613359843	0.016879230253
0	968	2.776492590096	0.031942490941
0	973	2.808435081037	0.004311157141
0	977	2.812746238178	0.013058037395
0	983	2.825804275573	0.005636082636
0	987	2.831440358209	0.03202245675
0	993	2.863462814959	0.050465556796
0	998	2.913928371755	0.017690744005
0	1003	2.93161911576	0.013317921157
0	1008	2.944937036917	0.019378639032
0	1013	2.964315675949	0.016167523262
0	1018	2.980483199211	0.010436991914
0	1023	2.990920191125	0.011428016569
0	1028	3.002348207694	0.046882025365
0	1033	3.049230233059	0.003930858625
0	1037	3.053161091684	0.01549195516
0	1043	3.068653046844	0.007534661974
0	1047	3.076187708818	0.008270939852
0	1053	3.08445864867	0.014466803482
0	1058	3.098925452152	0.013986043206
0	1063	3.112911495358	0.009661570625
0	1068	3.122573065983	0.00029069672
0	1072	3.122863762703	0.009526915734
0	1077	3.132390678437	0.005383908238
0	1082	3.137774586675	0.018885652759
0	1088	3.156660239434	0.01618980298
0	1093	3.172850042414	0.005094970989
0	1097	3.177945013403	0.00513899437
0	1102	3.183084007773	0.007254535299
0	1107	3.190338543072	0.014435625837
0	1113	3.204774168909	0.020744688098
0	1118	3.225518857007	0.008399416051
0	1123	3.233918273058	0.031611714074
0	1128	3.265529987132	0.002183609677
0	1132	3.267713596809	0.001628206477
0	1135	3.269341803286	0.005313361984
0	1140	3.27465516527	0.001453841319
0	1143	3.276109006589	0.012658327089
0	1150	3.288767333678	0.006555420207
0	1153	3.295322753885	0.013405936175
0	1160	3.30872869006	0.012038279786
0	1167	3.320766969846	0.012811196035
0	1173	3.333578165881	0.000513051275
0	1177	3.334091217156	0.015885140781
0	1183	3.349976357937	0.052088032189
0	1188	3.402064390126	0.01583774413
0	1193	3.417902134256	0.005806951382
0	1197	3.423709085638	0.008469157517
0	1202	3.432178243155	0.003751222425
0	1207	3.43592946558	0.03402950989
0	1213	3.46995897547	0.002284404379
0	1217	3.472243379849	0.006872593259
0	1222	3.479115973108	0.001534809223
0	1225	3.480650782331	0.008586923271
0	1230	3.489237705602	0.062067146408
0	1238	3.55130485201	0.033373719858
0	1243	3.584678571868	0.004523488698
0	1247	3.589202060566	0.024613463669
0	1253	3.613815524235	0.011551152893
0	1258	3.625366677128	0.01825529243
0	1263	3.643621969558	0.008911102475
0	1268	3.652533072033	0.001584189654
0	1272	3.654117261687	0.001573227534
0	1275	3.655690489221	0.037789231951
0	1283	3.693479721172	0.006515184839
0	1287	3.699994906011	0.018789112874
0	1293	3.718784018885	0.009501939266
0	1298	3.728285958151	0.101480857799
0	1303	3.82976681595	0.027595991776
0	1308	3.857362807726	0.002428051301
0	1312	3.859790859027	0.035252659346
0	1318	3.895043518373	0.030388632257
0	1323	3.92543215063	0.000574243693
0	1327	3.926006394323	0.002659883627
0	1330	3.92866627795	0.010648768908
0	1335	3.939315046858	0.014339496359
0	1342	3.953654543217	0.002738079028
0	1347	3.956392622245	0.001982755644
0	1350	3.958375377889	0.022647351834
0	1359	3.981022729723	0.02470078652
0	1364	4.005723516243	0.007950043172
0	1369	4.013673559415	0.012628214426
0	1374	4.026301773841	0.002261865153
0	1378	4.028563638994	0.007843050451
0	1383	4.036406689445	0.000506801783
0	1386	4.036913491228	0.001075130765
0	1389	4.037988621993	0.060747702582
0	1399	4.098736324575	0.017931578494
0	1404	4.116667903069	0.007009088496
0	1408	4.123676991565	0.009064486078
0	1414	4.132741477643	0.008172856922
0	1419	4.140914334565	0.019205013057
0	1424	4.160119347622	0.000778688283
0	1428	4.160898035905	0.030191591043
0	1434	4.191089626948	0.006823677672
0	1438	4.19791330462	0.055649408879
0	1444	4.253562713499	0.00025151649
0	1448	4.253814229989	0.029048658562
0	1454	4.282862888551	0.003934939637
0	1458	4.286797828188	0.000176748479
0	1461	4.286974576667	0.02171691123
0	1469	4.308691487897	0.006693792308
0	1473	4.315385280205	0.043269176282
0	1479	4.358654456487	0.01963947546
0	1484	4.378293931947	0.02079437028
0	1489	4.399088302227	0.002824424628
0	1493	4.401912726855	0.00621918814
0	1498	4.408131914995	0.0110419665
0	1503	4.419173881495	0.010086907753
0	1509	4.429260789248	0.000838050793
0	1513	4.430098840041	0.00620968384
0	1516	4.436308523881	0.003347088122
0	1521	4.439655612003	0.002967442612
0	1524	4.442623054615	0.000280432056
0	1527	4.442903486671	0.002812784268
0	1532	4.445716270939	0.023676190832
0	1541	4.469392461771	0.00933896016
0	1546	4.478731421931	0.003802585577
0	1551	4.482534007508	0.031140465907
0	1560	4.513674473415	0.039483282938
0	1565	4.553157756353	0.014057080766
0	1570	4.567214837119	0.01828195205
0	1575	4.585496789169	0.01361946041
0	1580	4.599116249579	0.00048535207
0	1584	4.599601601649	0.022962468394
0	1590	4.622564070043	0.002699360123
0	1594	4.625263430166	0.010397996543
0	1599	4.635661426709	0.014572232371
0	1605	4.65023365908	0.000775243587
0	1609	4.651008902667	0.01291385455
0	1614	4.663922757217	0.018014563598
0	1620	4.681937320815	0.004075021055
0	1624	4.68601234187	0.07318699332
0	1630	4.75919933519	0.040820223839
0	1635	4.800019559029	0.004664517075
0	1639	4.804684076104	0.014277445613
0	1645	4.818961521717	0.017048947429
0	1650	4.836010469146	0.011506194819
0	1655	4.847516663965	0.029957579512
0	1660	4.877474243477	0.013370678654
0	1665	4.890844922131	0.020845155957
0	1671	4.911690078088	0.005608297439
0	1675	4.917298375527	0.012119700801
0	1681	4.929418076328	0.00761797684
0	1686	4.937036053168	0.003581293093
0	1690	4.940617346261	0.003532868601
0	1693	4.944150214862	0.003773979197
0	1698	4.947924194059	0.003090480727
0	1701	4.951014674786	0.003702889032
0	1706	4.954717563818	0.043336133878
0	1716	4.998053697696	0.012644681631
0	1731	5.010698379327	0.020180211499
0	1736	5.030878590826	0.009025184798
0	1741	5.039903775624	0.010113668545
0	1746	5.050017444169	0.052717180208
0	1751	5.102734624377	0.003870191459
0	1755	5.106604815836	0.017117068543
0	1761	5.123721884379	0.004402614779
0	1765	5.128124499158	0.00133731435
0	1768	5.129461813508	0.000896714444
0	1771	5.130358527952	0.000871085432
0	1776	5.131229613384	0.00854846348
0	1781	5.139778076864	0.010036705855
0	1786	5.149814782719	0.005605046916
0	1791	5.155419829635	0.031930051418
0	1801	5.187349881053	0.017877871555
0	1806	5.205227752608	0.056200419207
0	1811	5.261428171815	0.007116244355
0	1815	5.26854441617	0.014421593574
0	1821	5.282966009744	0.00296951603
0	1825	5.285935525774	0.011729635813
0	1831	5.297665161587	0.001044265066
0	1836	5.298709426653	0.020428975865
0	1842	5.319138402518	0.017063077583
0	1847	5.336201480101	0.009768460979
0	1852	5.34596994108	0.009068718275
0	1857	5.355038659355	0.016955333189
0	1862	5.371993992544	0.011536797016
0	1867	5.38353078956	0.014010904989
0	1872	5.397541694549	0.034047600237
0	1877	5.431589294786	0.018813049051
0	1882	5.450402343837	0.069594787896
0	1887	5.519997131733	0.009508950291
0	1892	5.529506082024	0.003667365331
0	1896	5.533173447355	0.009132493706
0	1901	5.542305941061	0.016318566504
0	1907	5.558624507565	0.035533772563
0	1912	5.594158280128	0.004584073527
0	1916	5.598742353655	0.002213940493
0	1919	5.600956294148	0.000313008279
0	1922	5.601269302427	0.003905271173
0	1927	5.6051745736	0.021305751834
0	1936	5.626480325434	0.032003449312
0	1942	5.658483774746	0.005785315411
0	1946	5.664269090157	0.035217656421
0	1952	5.699486746578	0.007254575812
0	1956	5.70674132239	0.015567751132
0	1962	5.722309073522	0.013312528927
0	1967	5.735621602449	0.005888595423
0	1971	5.741510197872	0.026672150053
0	1977	5.768182347925	0.011000515098
0	1982	5.779182863023	0.014872564393
0	1987	5.794055427416	8.30278e-007
0	1991	5.794056257694	0.030912318613
0	1997	5.824968576307	0.005606449407
0	2001	5.830575025714	0.004793619823
0	2006	5.835368645537	0.008312562436
0	2011	5.843681207973	0.023995791628
0	2017	5.867676999601	0.032486455213
0	2022	5.900163454814	0.003080216531
0	2026	5.903243671345	0.01708586476
0	2032	5.920329536105	0.045797770044
0	2037	5.966127306149	0.009135669191
0	2042	5.97526297534	0.017446699251
0	2047	5.992709674591	0.009907546196
0	2052	6.002617220787	0.003640777405
0	2056	6.006257998192	0.023319944067
0	2062	6.029577942259	0.044167204161
0	2067	6.07374514642	0.003909601941
0	2071	6.077654748361	0.019687619894
0	2077	6.097342368255	0.031841199809
0	2082	6.129183568064	0.004394271877
0	2086	6.133577839941	0.005646440273
0	2091	6.139224280214	0.003598852792
0	2094	6.142823133006	0.047356433121
0	2102	6.190179566127	0.010953414979
0	2107	6.201132981106	0.009572829084
0	2112	6.21070581019	0.000389966178
0	2116	6.211095776368	0.018650261669
0	2122	6.229746038037	0.003487875276
0	2126	6.233233913313	0.002503119618
0	2129	6.235737032931	0.00829257556
0	2134	6.244029608491	0.019664585522
0	2142	6.263694194013	0.00703014714
0	2146	6.270724341153	0.015588084549
0	2152	6.286312425702	0.009342439646
0	2157	6.295654865348	0.003628794672
0	2161	6.29928366002	0.00487824027
0	2166	6.30416190029	0.003095369904
0	2169	6.307257270194	0.01325678484
0	2176	6.320514055034	0.024721142597
0	2182	6.345235197631	0.029910588019
0	2187	6.37514578565	0.020620199307
0	2192	6.395765984957	0.001875488849
0	2196	6.397641473806	0.016851907493
0	2202	6.414493381299	0.010927857641
0	2207	6.42542123894	0.004862986702
0	2211	6.430284225642	0.002124630522
0	2214	6.432408856164	0.002883921613
0	2219	6.435292777777	0.018927190102
0	2226	6.454219967879	0.018284990178
0	2232	6.472504958057	0.007564198999
0	2237	6.480069157056	0.009330553786
0	2242	6.489399710842	0.01250067361
0	2247	6.501900384452	0.027528951044
0	2252	6.529429335496	0.003036881455
0	2256	6.532466216951	0.003438664878
0	2259	6.535904881829	0.002347136556
0	2264	6.538252018385	0.002704114494
0	2267	6.540956132879	0.010043108863
0	2272	6.550999241742	0.002000109349
0	2277	6.552999351091	0.006591830857
0	2282	6.559591181948	0.01920636531
0	2289	6.578797547258	0.042309539226
0	2297	6.621107086484	0.000463894373
0	2301	6.621570980857	0.021743321646
0	2307	6.643314302503	0.020615145216
0	2312	6.663929447719	0.020714446435
0	2317	6.684643894154	0.001457515176
0	2321	6.68610140933	0.03510737941
0	2328	6.72120878874	0.020749746992
0	2333	6.741958535732	0.01205087644
0	2338	6.754009412172	0.019734393874
0	2343	6.773743806046	0.013173226181
0	2348	6.786917032227	0.000700316155
0	2352	6.787617348382	0.049027446012
0	2358	6.836644794394	0.003519837739
0	2362	6.840164632133	0.005182793756
0	2367	6.845347425889	0.005072320723
0	2370	6.850419746612	0.004132919056
0	2375	6.854552665668	0.016963777188
0	2382	6.871516442856	0.001585307612
0	2385	6.873101750468	0.000976692972
0	2390	6.87407844344	0.000248491416
0	2393	6.874326934856	0.012167115333
0	2398	6.886494050189	0.039788377733
0	2408	6.926282427922	0.000139245366
0	2412	6.926421673288	0.016626146313
0	2418	6.943047819601	0.026849844067
0	2423	6.969897663668	0.023067430717
0	2428	6.992965094385	0.062339566433
0	2433	7.055304660818	0.004963648218
0	2437	7.060268309036	0.0182353571
0	2443	7.078503666136	0.013243208174
0	2448	7.09174687431	0.003006632926
0	2452	7.094753507236	0.00099138016
0	2455	7.095744887396	0.010773697202
0	2462	7.106518584598	0.009972116243
0	2467	7.116490700841	0.013028485972
0	2473	7.129519186813	0.056910356746
0	2478	7.186429543559	0.023235175187
0	2483	7.209664718746	0.031373348589
0	2488	7.241038067335	0.013989177829
0	2493	7.255027245164	0.006190948001
0	2497	7.261218193165	0.003696237333
0	2502	7.264914430498	0.048883814658
0	2508	7.313798245156	0.009109189329
0	2513	7.322907434485	0.003953656693
0	2517	7.326861091178	0.031663331616
0	2523	7.358524422794	0.044733010132
0	2528	7.403257432926	0.010167030031
0	2533	7.413424462957	0.042549602901
0	2538	7.455974065858	0.018858554934
0	2543	7.474832620792	0.024081881446
0	2548	7.498914502238	0.0099876373
0	2553	7.508902139538	0.014931954651
0	2558	7.523834094189	0.018493206945
0	2563	7.542327301134	0.031106421947
0	2568	7.573433723081	0.010341518068
0	2573	7.583775241149	0.005201299557
0	2577	7.588976540706	0.027921474645
0	2583	7.616898015351	0.028351525471
0	2588	7.645249540822	0.003241443249
0	2592	7.648490984071	0.014430178899
0	2598	7.66292116297	0.02226363724
0	2603	7.68518480021	0.000199878672
0	2607	7.685384678882	0.054894859961
0	2613	7.740279538843	0.006398037181
0	2617	7.746677576024	0.029741233569
0	2623	7.776418809593	0.002405011417
0	2627	7.77882382101	0.022741033947
0	2633	7.801564854957	0.060119244823
0	2638	7.86168409978	0.063027891394
0	2643	7.924711991174	0.009761960135
0	2648	7.934473951309	0.021010135454
0	2653	7.955484086763	0.010319152177
0	2658	7.96580323894	6.084482e-005
0	2662	7.96586408376	0.015302806319
0	2668	7.981166890079	0.004709968471
0	2672	7.98587685855	0.006896869767
0	2677	7.992773728317	0.007927008425
0	2682	8.000700736742	0.00220837556
0	2685	8.002909112302	0.00838511505
0	2692	8.011294227352	0.025899500696
0	2698	8.037193728048	0.005303948629
0	2702	8.042497676677	0.003157999323
0	2707	8.045655676	0.007690719639
0	2712	8.053346395639	0.01074067977
0	2717	8.064087075409	0.001928703559
0	2720	8.066015778968	0.003810170675
0	2725	8.069825949643	0.059214499013
0	2733	8.129040448656	0.001544525456
0	2737	8.130584974112	0.007816182316
0	2742	8.138401156428	0.029728355117
0	2748	8.168129511545	0.012632044543
0	2753	8.180761556088	0.054134115075
0	2758	8.234895671163	0.006314899471
0	2762	8.241210570634	0.048599444504
0	2768	8.289810015138	0.023329415405
0	2773	8.313139430543	0.035555813709
0	2778	8.348695244252	0.007949423689
0	2783	8.356644667941	0.022311446315
0	2788	8.378956114256	0.006677240091
0	2792	8.385633354347	0.006077743235
0	2797	8.391711097582	0.007649862508
0	2802	8.39936096009	0.001268692376
0	2805	8.400629652466	0.005389408577
0	2810	8.406019061043	0.007844514805
0	2815	8.413863575848	0.022389482463
0	2823	8.436253058311	0.003964056962
0	2827	8.440217115273	0.039098577035
0	2833	8.479315692308	0.002131882671
0	2837	8.481447574979	0.005902536167
0	2842	8.487350111146	0.000823610588
0	2845	8.488173721734	0.045822896685
0	2853	8.533996618419	0.019397217882
0	2858	8.553393836301	0.000210698869
0	2862	8.55360453517	0.000172398753
0	2865	8.553776933923	0.011436355263
0	2870	8.565213289186	0.02208306237
0	2878	8.587296351556	0.005448633284
0	2882	8.59274498484	0.002383997695
0	2887	8.595128982535	0.032165781968
0	2893	8.627294764503	0.001242934094
0	2897	8.628537698597	0.004327690655
0	2900	8.632865389252	0.001408118209
0	2903	8.634273507461	0.016970681514
0	2912	8.651244188975	0.016723311329
0	2918	8.667967500304	0.02494448671
0	2923	8.692911987014	0.004222860337
0	2927	8.697134847351	0.008488418125
0	2932	8.705623265476	0.008184865722
0	2937	8.713808131198	0.020923036369
0	2943	8.734731167567	0.012225274963
0	2948	8.74695644253	0.026544297348
0	2953	8.773500739878	0.029550863484
0	2958	8.803051603362	0.007147178739
0	2962	8.810198782101	0.019476684534
0	2968	8.829675466635	0.001523011259
0	2972	8.831198477894	0.004727400431
0	2975	8.835925878325	0.004438528099
0	2980	8.840364406424	0.002114518266
0	2983	8.84247892469	0.013444938075
0	2990	8.855923862765	0.000854497987
0	2993	8.856778360752	0.009707620561
0	3001	8.866485981313	0.004559573388
0	3004	8.871045554701	0.009201586344
0	3009	8.880247141045	0.00913596683
0	3016	8.889383107875	0.011153747877
0	3021	8.900536855752	0.017246120816
0	3029	8.917782976568	0.008751356566
0	3034	8.926534333134	0.01784244377
0	3039	8.944376776904	0.028722633865
0	3044	8.973099410769	0.005001050076
0	3048	8.978100460845	0.008522557256
0	3053	8.986623018101	0.007168769813
0	3058	8.993791787914	0.026305719675
0	3064	9.020097507589	0.002997833069
0	3068	9.023095340658	0.010680120984
0	3073	9.033775461642	0.02330618253
0	3079	9.057081644172	0.001355058661
0	3083	9.058436702833	0.000877918484
0	3086	9.059314621317	0.016183903627
0	3093	9.075498524944	0.017910200559
0	3099	9.093408725503	0.003471314579
0	3103	9.096880040082	0.022623228474
0	3109	9.119503268556	0.028186776513
0	3114	9.147690045069	0.022536191906
0	3119	9.170226236975	0.017155359309
0	3124	9.187381596284	0.004504876204
0	3128	9.191886472488	0.002946928288
0	3133	9.194833400776	0.007021596799
0	3136	9.201854997575	0.001086286652
0	3141	9.202941284227	0.01328640969
0	3146	9.216227693917	0.00014603114
0	3149	9.216373725057	0.004778757718
0	3154	9.221152482775	0.033391259842
0	3164	9.254543742617	0.006950850413
0	3168	9.26149459303	0.002148795321
0	3173	9.263643388351	0.003292022413
0	3176	9.266935410764	0.022656924018
0	3184	9.289592334782	0.009238789257
0	3189	9.298831124039	0.038886729132
0	3194	9.337717853171	0.000684570742
0	3198	9.338402423913	0.018838402265
0	3204	9.357240826178	0.024126267736
0	3210	9.381367093914	0.009508981897
0	3215	9.390876075811	0.010973180087
0	3220	9.401849255898	0.032146495506
0	3225	9.433995751404	0.005496769377
0	3229	9.439492520781	0.010053478149
0	3235	9.44954599893	0.012925012377
0	3240	9.462471011307	0.008031065266
0	3245	9.470502076573	0.048072132444
0	3250	9.518574209017	0.002869440688
0	3254	9.521443649705	0.015558676412
0	3260	9.537002326117	0.009673627367
0	3265	9.546675953484	0.000540042446
0	3269	9.54721599593	0.022962726284
0	3275	9.570178722214	0.008442378027
0	3280	9.578621100241	0.012193475418
0	3285	9.590814575659	0.010700764242
0	3290	9.601515339901	0.002612927406
0	3294	9.604128267307	0.011523800128
0	3299	9.615652067435	0.002329283783
0	3304	9.617981351218	0.017156930687
0	3310	9.635138281905	0.015724336574
0	3315	9.650862618479	0.004877563057
0	3319	9.655740181536	0.011622635693
0	3325	9.667362817229	0.002069298479
0	3329	9.669432115708	0.005910863579
0	3334	9.675342979287	0.007480384993
0	3339	9.68282336428	0.002385180252
0	3342	9.685208544532	0.046992442343
0	3350	9.732200986875	0.002612980749
0	3354	9.734813967624	0.003107777734
0	3357	9.737921745358	0.002078802321
0	3362	9.740000547679	0.035148598951
0	3370	9.77514914663	0.012974071641
0	3375	9.788123218271	0.011772555294
0	3380	9.799895773565	0.001451962085
0	3384	9.80134773565	0.009157242675
0	3389	9.810504978325	0.036210246458
0	3395	9.846715224783	0.032061325356
0	3400	9.878776550139	0.001299254917
0	3404	9.880075805056	0.009204063146
0	3409	9.889279868202	0.024169979987
0	3415	9.913449848189	0.019319429626
0	3420	9.932769277815	0.031449544103
0	3425	9.964218821918	0.007638037303
0	3430	9.971856859221	0.001471792839
0	3434	9.97332865206	0.035158044612
0	3440	10.008486696672	0.008334883697
0	3445	10.016821580369	0.017568955424
0	3450	10.034390535793	0.009614603179
0	3455	10.044005138972	0.018040706757
0	3461	10.062045845729	0.018894617559
0	3466	10.080940463288	0.021206749943
0	3471	10.102147213231	0.000411631506
0	3475	10.102558844737	0.015161537446
0	3481	10.117720382183	0.019717831471
0	3486	10.137438213654	0.00411695283
0	3490	10.141555166484	0.021848403174
0	3496	10.163403569658	0.002624925723
0	3500	10.166028495381	0.000147216546
0	3503	10.166175711927	0.023873341842
0	3511	10.190049053769	0.005528744094
0	3515	10.195577797863	0.047973824652
0	3521	10.243551622515	0.003976396521
0	3525	10.247528019036	0.009191181673
0	3530	10.256719200709	0.010500384542
0	3536	10.267219585251	0.01341002104
0	3541	10.280629606291	0.046096128342
0	3546	10.326725734633	0.029249653678
0	3551	10.355975388311	0.012240278459
0	3556	10.36821566677	0.009165863419
0	3561	10.377381530189	0.001538278395
0	3565	10.378919808584	0.045509138586
0	3571	10.42442894717	0.014580163366
0	3576	10.439009110536	0.012861526539
0	3581	10.451870637075	0.029819091823
0	3586	10.481689728898	0.025786039677
0	3591	10.507475768575	0.002573079411
0	3595	10.510048847986	0.035927696841
0	3601	10.545976544827	0.073252484855
0	3606	10.619229029682	0.025353524321
0	3611	10.644582554003	0.00133248574
0	3615	10.645915039743	0.002604848448
0	3618	10.648519888191	0.001488322897
0	3621	10.650008211088	0.014869192586
0	3628	10.664877403674	0.015060767608
0	3635	10.679938171282	0.007623291811
0	3640	10.687561463093	0.04472669486
0	3646	10.732288157953	0.000971485392
0	3650	10.733259643345	0.041409066835
0	3656	10.77466871018	0.008275554189
0	3661	10.782944264369	0.00889622396
0	3666	10.791840488329	0.004489925736
0	3670	10.796330414065	0.019512561412
0	3676	10.815842975477	0.028360937316
0	3682	10.844203912793	0.005500577307
0	3686	10.8497044901	0.04790642809
0	3692	10.89761091819	0.001913603607
0	3696	10.899524521797	0.006586154784
0	3701	10.906110676581	0.0088015321
0	3706	10.914912208681	0.006617322161
0	3711	10.921529530842	0.007458139295
0	3716	10.928987670137	0.00024694926
0	3719	10.929234619397	0.011384471614
0	3724	10.940619091011	0.003072784007
0	3729	10.943691875018	0.027999607053
0	3737	10.971691482071	0.007693904877
0	3742	10.979385386948	0.011526938661
0	3747	10.990912325609	0.039737823933
0	3752	11.030650149542	0.017104183154
0	3757	11.047754332696	0.00157399121
0	3761	11.049328323906	0.014092529788
0	3767	11.063420853694	0.043588794055
0	3772	11.107009647749	0.00155506255
0	3776	11.108564710299	0.030544412809
0	3782	11.139109123108	0.001448119185
0	3786	11.140557242293	0.009081506725
0	3791	11.149638749018	0.000863893752
0	3794	11.15050264277	0.005933484006
0	3799	11.156436126776	0.001357612052
0	3802	11.157793738828	0.003974024065
0	3807	11.161767762893	0.004060865861
0	3810	11.165828628754	0.014296838074
0	3817	11.180125466828	0.027443132338
0	3827	11.207568599166	0.000504508814
0	3831	11.20807310798	0.011083800299
0	3836	11.219156908279	0.000235936857
0	3839	11.219392845136	0.010794673465
0	3846	11.230187518601	0.0084001256
0	3851	11.238587644201	0.015740132489
0	3857	11.25432777669	0.001057529225
0	3861	11.255385305915	0.011798386378
0	3866	11.267183692293	0.004354101227
0	3871	11.27153779352	0.000495059776
0	3874	11.272032853296	0.00374926225
0	3877	11.275782115546	0.013017928048
0	3884	11.288800043594	0.004379191076
0	3889	11.29317923467	0.022116333372
0	3897	11.315295568042	0.002107135754
0	3901	11.317402703796	0.007079521317
0	3906	11.324482225113	0.000181638676
0	3909	11.324663863789	0.010130338053
0	3914	11.334794201842	0.00184072511
0	3917	11.336634926952	0.059963452151
0	3927	11.396598379103	0.014453890444
0	3932	11.411052269547	0.004208638893
0	3936	11.41526090844	0.054893431777
0	3942	11.470154340217	0.007033819909
0	3946	11.477188160126	0.069604199939
0	3952	11.546792360065	0.000701023526
0	3956	11.547493383591	0.007890461936
0	3961	11.555383845527	0.005567425812
0	3964	11.560951271339	0.002668151368
0	3969	11.563619422707	0.026714020123
0	3977	11.59033344283	0.015273263682
0	3982	11.605606706512	0.024677751406
0	3987	11.630284457918	0.010109151663
0	3992	11.640393609581	0.015325775211
0	3997	11.655719384792	0.068217357778
0	4002	11.72393674257	0.006885418912
0	4006	11.730822161482	0.001013012353
0	4011	11.731835173835	0.005625929147
0	4014	11.737461102982	0.022934083061
0	4022	11.760395186043	0.024279915996
0	4027	11.784675102039	0.005103558294
0	4031	11.789778660333	0.001095774857
0	4034	11.79087443519	0.004144577894
0	4039	11.795019013084	0.017259938894
0	4046	11.812278951978	0.016293049667
0	4052	11.828572001645	0.007188190417
0	4057	11.835760192062	0.004236700679
0	4061	11.839996892741	0.015073999636
0	4067	11.855070892377	0.016442888415
0	4072	11.871513780792	0.039234613986
0	4077	11.910748394778	0.010925663595
0	4082	11.921674058373	0.02885607856
0	4087	11.950530136933	0.008277031825
0	4092	11.958807168758	0.010327708321
0	4097	11.969134877079	0.012134695427
0	4102	11.981269572506	0.008374901839
0	4107	11.989644474345	0.00507519178
0	4111	11.994719666125	0.025936794565
0	4117	12.02065646069	0.018391983184
0	4122	12.039048443874	0.02010413943
0	4127	12.059152583304	0.00803848193
0	4132	12.067191065234	0.008889861269
0	4137	12.076080926503	0.006707098539
0	4141	12.082788025042	0.052059676208
0	4147	12.13484770125	0.026461310883
0	4152	12.161309012133	0.006768581977
0	4156	12.16807759411	0.038847392182
0	4162	12.206924986292	0.007600848208
0	4167	12.2145258345	0.000706489066
0	4171	12.215232323566	0.020130296118
0	4177	12.235362619684	0.0039717341
0	4181	12.239334353784	0.008942578371
0	4186	12.248276932155	0.006427614063
0	4191	12.254704546218	0.041537167243
0	4197	12.296241713461	0.025308274331
0	4202	12.321549987792	0.004460602919
0	4206	12.326010590711	0.063495236945
0	4212	12.389505827656	0.007213173365
0	4217	12.396719001021	0.052092835589
0	4222	12.44881183661	0.017917349153
0	4227	12.466729185763	0.035300021521
0	4232	12.502029207284	0.0341056075
0	4237	12.536134814784	0.005276510781
0	4241	12.541411325565	0.001935577548
0	4246	12.543346903113	0.07244580372
0	4252	12.615792706833	0.004147090748
0	4256	12.619939797581	0.004303636431
0	4261	12.624243434012	0.003886683838
0	4264	12.62813011785	0.001679168117
0	4267	12.629809285967	0.010085743531
0	4274	12.639895029498	0.045224524083
0	4282	12.685119553581	0.033318212748
0	4287	12.718437766329	0.003987248235
0	4291	12.722425014564	0.00665001594
0	4296	12.729075030504	0.01755653595
0	4302	12.746631566454	0.007297787096
0	4307	12.75392935355	0.000901925537
0	4311	12.754831279087	0.037284466265
0	4317	12.792115745352	0.019679446216
0	4322	12.811795191568	0.001812470944
0	4326	12.813607662512	0.032020535918
0	4332	12.84562819843	0.014959483863
0	4337	12.860587682293	0.004770818178
0	4341	12.865358500471	0.002137544185
0	4344	12.867496044656	0.007147737315
0	4349	12.874643781971	0.007031935375
0	4354	12.881675717346	0.007033172334
0	4359	12.88870888968	0.005882419344
0	4364	12.894591309024	0.020721886198
0	4372	12.915313195222	0.0170969311
0	4377	12.932410126322	0.004073336875
0	4381	12.936483463197	0.023810358445
0	4387	12.960293821642	0.002828470864
0	4391	12.963122292506	0.01051568264
0	4396	12.973637975146	0.008948248753
0	4402	12.982586223899	0.005269819223
0	4406	12.987856043122	0.005446182603
0	4411	12.993302225725	0.03256838822
0	4417	13.025870613945	0.027412894017
0	4422	13.053283507962	0.006504972831
0	4426	13.059788480793	0.004072049496
0	4431	13.063860530289	0.020113525869
0	4437	13.083974056158	0.010469063232
0	4442	13.09444311939	0.012157397208
0	4447	13.106600516598	0.042861380217
0	4452	13.149461896815	0.003375637408
0	4456	13.152837534223	0.015076734729
0	4462	13.167914268952	0.01192833302
0	4467	13.179842601972	0.030293767548
0	4472	13.21013636952	0.01099838008
0	4477	13.2211347496	0.042253675949
0	4482	13.263388425549	0.006433677537
0	4486	13.269822103086	0.020840377604
0	4493	13.29066248069	0.002417138682
0	4497	13.293079619372	0.051614160714
0	4503	13.344693780086	0.002120896691
0	4507	13.346814676777	0.077776941345
0	4513	13.424591618122	0.018460782765
0	4518	13.443052400887	0.009017319696
0	4523	13.452069720583	0.018520198141
0	4528	13.470589918724	0.001102595661
0	4532	13.471692514385	0.014191526119
0	4538	13.485884040504	0.005196499912
0	4542	13.491080540416	0.016716873476
0	4548	13.507797413892	0.002479395185
0	4552	13.510276809077	0.008899958524
0	4557	13.519176767601	0.008106040464
0	4562	13.527282808065	0.017864721801
0	4568	13.545147529866	0.002111177331
0	4572	13.547258707197	0.007130095045
0	4577	13.554388802242	0.013899579004
0	4583	13.568288381246	0.001580941949
0	4587	13.569869323195	0.007238628227
0	4592	13.577107951422	0.048379741256
0	4598	13.625487692678	0.033862151861
0	4603	13.659349844539	0.001127877137
0	4607	13.660477721676	0.051534350887
0	4613	13.712012072563	0.000292339394
0	4617	13.712304411957	0.011874136419
0	4622	13.724178548376	0.058363651356
0	4628	13.782542199732	0.004820104543
0	4632	13.787362304275	0.002410950609
0	4637	13.789773254884	0.013455795212
0	4642	13.803229050096	0.004490295044
0	4647	13.80771934514	0.034060651611
0	4653	13.841779996751	0.00364118156
0	4657	13.845421178311	0.007831669566
0	4662	13.853252847877	0.013009380282
0	4668	13.866262228159	0.012047051579
0	4673	13.878309279738	0.055791124663
0	4678	13.934100404401	0.004754660698
0	4682	13.938855065099	0.004782615726
0	4687	13.943637680825	0.009116771462
0	4692	13.952754452287	0.052635953265
0	4698	14.005390405552	0.007705284199
0	4703	14.013095689751	0.000387420666
0	4707	14.013483110417	0.004283533808
0	4710	14.017766644225	0.032844700718
0	4718	14.050611344943	0.010574239821
0	4723	14.061185584764	0.018496330908
0	4728	14.079681915672	0.005574236322
0	4732	14.085256151994	0.004881250757
0	4737	14.090137402751	0.007002965153
0	4742	14.097140367904	0.033787393051
0	4748	14.130927760955	0.011165673921
0	4753	14.142093434876	0.000403209293
0	4757	14.142496644169	0.020830159108
0	4763	14.163326803277	0.014737925141
0	4768	14.178064728418	0.006085895158
0	4772	14.184150623576	0.005996929087
0	4777	14.190147552663	0.038686696962
0	4783	14.228834249625	0.051223873536
0	4788	14.280058123161	0.029742188704
0	4793	14.309800311865	0.002769238094
0	4797	14.312569549959	0.000748734036
0	4800	14.313318283995	0.034762890938
0	4808	14.348081174933	0.004388259018
0	4812	14.352469433951	0.006005722972
0	4817	14.358475156923	0.008862528306
0	4822	14.367337685229	0.033004939807
0	4828	14.400342625036	0.001657738149
0	4832	14.402000363185	0.010775487528
0	4837	14.412775850713	0.006426615432
0	4842	14.419202466145	0.010719512811
0	4848	14.429921978956	0.020211732355
0	4853	14.450133711311	0.007336626159
0	4858	14.45747033747	0.017115650014
0	4863	14.474585987484	0.011328177266
0	4868	14.48591416475	0.014608178872
0	4873	14.500522343622	0.043426764255
0	4878	14.543949107877	0.018595471209
0	4883	14.562544579086	0.033504597766
0	4888	14.596049176852	0.003439757575
0	4892	14.599488934427	0.016956857975
0	4898	14.616445792402	0.006271374884
0	4902	14.622717167286	0.015284297716
0	4908	14.638001465002	0.016916406504
0	4913	14.654917871506	0.011923092541
0	4918	14.666840964047	0.03170860222
0	4923	14.698549566267	0.004775895241
0	4927	14.703325461508	0.011768350454
0	4933	14.715093811962	0.00240726161
0	4937	14.717501073572	0.004983909354
0	4942	14.722484982926	0.029100723148
0	4948	14.751585706074	0.000460526595
0	4952	14.752046232669	0.015120203107
0	4958	14.767166435776	0.018585547611
0	4963	14.785751983387	0.005342486723
0	4967	14.79109447011	0.000118730198
0	4970	14.791213200308	0.009248896328
0	4977	14.800462096636	0.006994455397
0	4982	14.807456552033	0.000372498116
0	4985	14.807829050149	0.011342493717
0	4990	14.819171543866	0.012248890333
0	4997	14.831420434199	0.038287147403
0	5003	14.869707581602	0.006721319526
0	5007	14.876428901128	0.001406330814
0	5012	14.877835231942	0.010478715091
0	5017	14.888313947033	0.007811682973
0	5022	14.896125630006	0.002501936372
0	5027	14.898627566378	0.000369204661
0	5030	14.898996771039	0.008314027101
0	5035	14.90731079814	0.006292189852
0	5040	14.913602987992	0.035494353958
0	5048	14.94909734195	0.014602088155
0	5053	14.963699430105	0.00012822028
0	5057	14.963827650385	0.00490815572
0	5060	14.968735806105	0.052040907582
0	5068	15.020776713687	0.003531087998
0	5072	15.024307801685	0.017611052052
0	5078	15.041918853737	0.001844438503
0	5082	15.04376329224	0.001570684101
0	5085	15.045333976341	0.012910720613
0	5092	15.058244696954	0.005132620374
0	5095	15.063377317328	0.017824937404
0	5103	15.081202254732	0.011617751819
0	5108	15.092820006551	0.016719165045
0	5113	15.109539171596	0.019318353587
0	5118	15.128857525183	0.044598125092
0	5123	15.173455650275	0.007386620646
0	5128	15.180842270921	4.0603119e-005
0	5132	15.18088287404	0.003863772995
0	5135	15.184746647035	0.015627666972
0	5142	15.200374314007	0.009100686139
0	5147	15.209475000146	0.013759076954
0	5153	15.2232340771	0.053677525888
0	5158	15.276911602988	0.013327930685
0	5163	15.290239533673	0.02692009671
0	5168	15.317159630383	0.049359732454
0	5173	15.366519362837	0.036939664041
0	5178	15.403459026878	0.000255234356
0	5182	15.403714261234	0.016507027957
0	5188	15.420221289191	0.017884736613
0	5193	15.438106025804	0.008715129832
0	5198	15.446821155636	0.025204236001
0	5203	15.472025391637	0.017332120931
0	5208	15.489357512568	0.010694347187
0	5213	15.500051859755	0.015687379392
0	5218	15.515739239147	0.006096193001
0	5222	15.521835432148	0.000442977167
0	5225	15.522278409315	0.02346984826
0	5233	15.545748257575	0.037798330408
0	5238	15.583546587983	0.001534526715
0	5242	15.585081114698	0.011728266347
0	5247	15.596809381045	0.008751902585
0	5253	15.60556128363	0.070895927953
0	5259	15.676457211583	0.017760416045
0	5264	15.694217627628	0.024650298528
0	5269	15.718867926156	0.001429267243
0	5273	15.720297193399	0.009270785657
0	5278	15.729567979056	0.003876888731
0	5283	15.733444867787	0.026301721774
0	5289	15.759746589561	0.007922159861
0	5294	15.767668749422	0.011619206045
0	5299	15.779287955467	0.014644380345
0	5304	15.793932335812	0.032740708339
0	5309	15.826673044151	0.032700306707
0	5315	15.859373350858	0.00596922592
0	5319	15.865342576778	0.002148730557
0	5324	15.867491307335	0.007773417722
0	5329	15.875264725057	0.059121880269
0	5335	15.934386605326	0.011800246732
0	5340	15.946186852058	0.030810787258
0	5346	15.976997639316	0.007154966264
0	5350	15.98415260558	0.03833276575
0	5356	16.02248537133	0.01171753185
0	5361	16.03420290318	0.011693025432
0	5366	16.045895928612	0.001933179691
0	5370	16.047829108303	0.038518989431
0	5377	16.086348097734	0.005076616992
0	5381	16.091424714726	0.05176515194
0	5388	16.143189866666	0.001851142073
0	5392	16.145041008739	0.000550486054
0	5395	16.145591494793	0.001687949196
0	5398	16.147279443989	0.002881433642
0	5401	16.150160877631	0.005707664228
0	5406	16.155868541859	0.007393181526
0	5411	16.163261723385	0.004246086538
0	5416	16.167507809923	0.045592973852
0	5428	16.213100783775	0.012409888854
0	5433	16.225510672629	0.00535074379
0	5437	16.230861416419	0.035523540795
0	5444	16.266384957214	0.032613493607
0	5449	16.298998450821	0.013667187121
0	5454	16.312665637942	0.008869541784
0	5459	16.321535179726	0.004077987579
0	5463	16.325613167305	0.035769230148
0	5469	16.361382397453	0.013044230413
0	5474	16.374426627866	0.002619416947
0	5478	16.377046044813	0.002365080792
0	5481	16.379411125605	0.016231528267
0	5488	16.395642653872	0.006133762939
0	5493	16.401776416811	0.00870434382
0	5499	16.410480760631	0.014733572766
0	5504	16.425214333397	0.001193552326
0	5508	16.426407885723	0.006724939599
0	5513	16.433132825322	0.017883783631
0	5519	16.451016608953	0.036285770912
0	5524	16.487302379865	0.004263296153
0	5528	16.491565676018	0.031616705376
0	5534	16.523182381394	0.000606323665
0	5538	16.523788705059	0.008541541708
0	5543	16.532330246767	0.00092724223
0	5546	16.533257488997	0.010935100821
0	5551	16.544192589818	0.000945351664
0	5556	16.545137941482	0.009655872088
0	5561	16.55479381357	0.035746024098
0	5569	16.590539837668	0.003056780733
0	5573	16.593596618401	0.020199409328
0	5579	16.613796027729	0.008557589821
0	5584	16.62235361755	0.034250910516
0	5589	16.656604528066	0.003115549293
0	5593	16.659720077359	0.016747778603
0	5599	16.676467855962	0.018839933982
0	5604	16.695307789944	0.011291544781
0	5609	16.706599334725	0.011103782871
0	5614	16.717703117596	0.005445707316
0	5618	16.723148824912	0.005797412731
0	5623	16.728946237643	0.092938651781
0	5629	16.821884889424	4.6565352e-005
0	5633	16.821931454776	0.006745700519
0	5636	16.828677155295	0.013643560573
0	5643	16.842320715868	0.009541551815
0	5649	16.851862267683	0.015707883832
0	5654	16.867570151515	0.007128141582
0	5658	16.874698293097	7.8046992e-005
0	5663	16.874776340089	0.058329670842
0	5669	16.933106010931	0.052709682344
0	5674	16.985815693275	0.002879368529
0	5678	16.988695061804	0.016353683797
0	5684	17.005048745601	0.005962186199
0	5688	17.0110109318	0.005203933247
0	5693	17.016214865047	0.017107867124
0	5699	17.033322732171	0.003353985875
0	5703	17.036676718046	0.000979403935
0	5706	17.037656121981	0.03899509868
0	5714	17.076651220661	0.014018706245
0	5719	17.090669926906	0.005549687696
0	5723	17.096219614602	0.009741160902
0	5729	17.105960775504	0.007743051824
0	5734	17.113703827328	0.005011126246
0	5738	17.118714953574	0.015038436125
0	5744	17.133753389699	0.004085268395
0	5748	17.137838658094	0.033198408473
0	5754	17.171037066567	0.010839033563
0	5759	17.18187610013	0.008500529398
0	5764	17.190376629528	0.00688126954
0	5768	17.197257899068	0.039511970939
0	5775	17.236769870007	0.006175508668
0	5779	17.242945378675	0.00847882922
0	5785	17.251424207895	0.052847270118
0	5790	17.304271478013	0.013476035497
0	5795	17.31774751351	0.002148349072
0	5799	17.319895862582	0.006566091842
0	5804	17.326461954424	0.00152723463
0	5807	17.327989189054	0.016051237344
0	5814	17.344040426398	0.006310015086
0	5819	17.350350441484	0.015846614913
0	5825	17.366197056397	0.013411588322
0	5830	17.379608644719	0.025865878282
0	5835	17.405474523001	0.016145856891
0	5840	17.421620379892	0.00773171325
0	5845	17.429352093142	0.007593959506
0	5850	17.436946052648	0.000574331967
0	5854	17.437520384615	0.108502026792
0	5860	17.546022411407	0.062631654063
0	5865	17.60865406547	0.006505492056
0	5869	17.615159557526	0.00891699025
0	5875	17.624076547776	0.019170031937
0	5881	17.643246579713	0.016723002811
0	5886	17.659969582524	0.025154020995
0	5891	17.685123603519	0.004652941849
0	5895	17.689776545368	0.056087227171
0	5901	17.745863772539	0.012453909701
0	5907	17.75831768224	0.021694613582
0	5912	17.780012295822	0.001806874017
0	5916	17.781819169839	0.017972270818
0	5922	17.799791440657	0.004766540121
0	5926	17.804557980778	0.006130764814
0	5931	17.810688745592	0.001284311912
0	5934	17.811973057504	0.002396996707
0	5939	17.814370054211	0.021739828042
0	5947	17.836109882253	0.000970254077
0	5951	17.83708013633	0.00032891071
0	5954	17.83740904704	0.00415413338
0	5957	17.84156318042	0.002214478248
0	5962	17.843777658668	0.008491943275
0	5967	17.852269601943	0.004529325052
0	5970	17.856798926995	0.011072051138
0	5977	17.867870978133	0.030728747349
0	5987	17.898599725482	0.022247601121
0	5992	17.920847326603	0.002965976519
0	5996	17.923813303122	0.047818262584
0	6002	17.971631565706	0.008518315397
0	6007	17.980149881103	0.001871896384
0	6011	17.982021777487	0.005898259305
0	6016	17.987920036792	0.001697599986
0	6019	17.989617636778	0.013134581971
0	6026	18.002752218749	0.013362807028
0	6032	18.016115025777	0.041343196162
0	6037	18.057458221939	0.020520810321
0	6042	18.07797903226	0.042397859558
0	6047	18.120376891818	0.028272969213
0	6052	18.148649861031	0.000809054346
0	6056	18.149458915377	0.041193778053
0	6062	18.19065269343	0.01360294661
0	6067	18.20425564004	0.06149901439
0	6072	18.26575465443	0.033356742236
0	6077	18.299111396666	0.007657427441
0	6082	18.306768824107	0.022775537226
0	6087	18.329544361333	0.007178648566
0	6091	18.336723009899	0.003564988067
0	6096	18.340287997966	0.0023991632
0	6099	18.342687161166	0.021722191859
0	6107	18.364409353025	0.017324618004
0	6112	18.381733971029	0.003143467286
0	6116	18.384877438315	0.016039965876
0	6122	18.400917404191	0.034353858299
0	6127	18.43527126249	0.029714329442
0	6132	18.464985591932	0.00013457081
0	6136	18.465120162742	0.001534777194
0	6139	18.466654939936	0.001418501048
0	6142	18.468073440984	0.010330662659
0	6147	18.478404103643	0.014481536995
0	6154	18.492885640638	0.013051198656
0	6161	18.505936839294	0.007229688143
0	6166	18.513166527437	0.004147315262
0	6171	18.517313842699	0.001523231559
0	6174	18.518837074258	0.002777340802
0	6177	18.52161441506	0.062929029302
0	6187	18.584543444362	0.029446849343
0	6192	18.613990293705	0.034034536299
0	6197	18.648024830004	0.000904770357
0	6201	18.648929600361	0.004743556588
0	6204	18.653673156949	0.009540757067
0	6211	18.663213914016	0.009613731348
0	6216	18.672827645364	0.001846656824
0	6219	18.674674302188	0.009801798896
0	6226	18.684476101084	0.009161312623
0	6231	18.693637413707	0.010651055185
0	6236	18.704288468892	0.058652111545
0	6242	18.762940580437	0.05128704754
0	6247	18.814227627977	0.008267069225
0	6252	18.822494697202	0.001579716288
0	6256	18.82407441349	0.029186768759
0	6262	18.853261182249	0.000606869335
0	6266	18.853868051584	0.001871812835
0	6269	18.855739864419	0.009916197012
0	6274	18.865656061431	0.004746410868
0	6279	18.870402472299	0.00919450903
0	6284	18.879596981329	0.007757503906
0	6289	18.887354485235	0.004023346399
0	6294	18.891377831634	0.007657688639
0	6299	18.899035520273	0.000910114503
0	6302	18.899945634776	0.016692957174
0	6309	18.91663859195	0.001983173997
0	6314	18.918621765947	0.006340346821
0	6317	18.924962112768	0.029148008345
0	6327	18.954110121113	0.01876422991
0	6332	18.972874351023	0.007654070966
0	6337	18.980528421989	0.015290927821
0	6342	18.99581934981	0.007204377207
0	6347	19.003023727017	0.007641427653
0	6352	19.01066515467	0.00033327978
0	6356	19.01099843445	0.008478174523
0	6361	19.019476608973	0.007044120482
0	6366	19.026520729455	0.014299288968
0	6372	19.040820018423	0.016253222824
0	6377	19.057073241247	0.001089240872
0	6381	19.058162482119	0.014726773584
0	6387	19.072889255703	0.025923890595
0	6392	19.098813146298	0.036799587623
0	6397	19.135612733921	0.015894674148
0	6402	19.151507408069	0.016711721047
0	6407	19.168219129116	0.019438167247
0	6412	19.187657296363	0.005875268098
0	6416	19.193532564461	0.011547929037
0	6422	19.205080493498	0.00570178547
0	6426	19.210782278968	0.00175605059
0	6431	19.212538329558	0.026874815038
0	6437	19.239413144596	0.007788805873
0	6442	19.247201950469	0.022428466772
0	6447	19.269630417241	0.007797329173
0	6452	19.277427746414	0.004951600411
0	6456	19.282379346825	0.005807962009
0	6461	19.288187308834	0.018772634354
0	6467	19.306959943188	0.000456119906
0	6471	19.307416063094	0.012368575848
0	6476	19.319784638942	0.02004852626
0	6482	19.339833165202	0.007653887255
0	6487	19.347487052457	0.001744375002
0	6491	19.349231427459	0.011352814758
0	6496	19.360584242217	0.013982801108
0	6502	19.374567043325	0.001336289362
0	6506	19.375903332687	0.018221335629
0	6512	19.394124668316	0.016434748054
0	6517	19.41055941637	0.015109090326
0	6522	19.425668506696	0.000451241933
0	6526	19.426119748629	0.047964881361
0	6532	19.47408462999	0.033012253115
0	6537	19.507096883105	0.001635477954
0	6541	19.508732361059	0.017191170526
0	6547	19.525923531585	0.030279956399
0	6552	19.556203487984	0.033289432827
0	6557	19.589492920811	0.000444371284
0	6561	19.589937292095	1.8124528e-005
0	6564	19.589955416623	0.011483086234
0	6569	19.601438502857	0.041521500865
0	6577	19.642960003722	0.007768851676
0	6582	19.650728855398	0.047661459322
0	6587	19.69839031472	0.011140856245
0	6592	19.709531170965	0.02386803395
0	6597	19.733399204915	0.006814313656
0	6601	19.740213518571	0.072563811736
0	6607	19.812777330307	0.003171317625
0	6611	19.815948647932	0.006582812656
0	6617	19.822531460588	0.010951830304
0	6622	19.833483290892	0.022089192938
0	6628	19.85557248383	0.027751338298
0	6633	19.883323822128	0.019122771788
0	6638	19.902446593916	0.007007298397
0	6642	19.909453892313	0.015052865818
0	6648	19.924506758131	0.003782095146
0	6652	19.928288853277	0.005509022512
0	6657	19.933797875789	0.0012594006
0	6660	19.935057276389	0.011559465912
0	6667	19.946616742301	0.001337566234
0	6670	19.947954308535	0.004814964868
0	6673	19.952769273403	0.003753799206
0	6678	19.956523072609	0.000130918445
0	6681	19.956653991054	0.001580642109
0	6684	19.958234633163	0.000378916827
0	6687	19.95861354999	0.004619081934
0	6692	19.963232631924	0.002337287792
0	6695	19.965569919716	0.001026583131
0	6698	19.966596502847	0.010815786066
0	6705	19.977412288913	0.001017838171
0	6708	19.978430127084	0.00377812177
0	6713	19.982208248854	0.029097926394
0	6724	20.011306175248	0.006918386664
0	6729	20.018224561912	0.002653210592
0	6732	20.020877772504	0.000850258217
0	6735	20.021728030721	0.012303884889
0	6742	20.03403191561	0.036320049697
0	6755	20.070351965307	0.022272211111
0	6763	20.092624176418	0.032436074141
0	6768	20.125060250559	0.009143387713
0	6773	20.134203638272	0.034135799746
0	6778	20.168339438018	0.002497352909
0	6782	20.170836790927	0.006056293607
0	6787	20.176893084534	0.003339582781
0	6790	20.180232667315	0.018720273469
0	6798	20.198952940784	0.008510521795
0	6803	20.207463462579	0.008351562172
0	6808	20.215815024751	0.011269085605
0	6813	20.227084110356	0.005386435242
0	6817	20.232470545598	0.006448833041
0	6822	20.238919378639	0.001095188158
0	6825	20.240014566797	0.022813138615
0	6833	20.262827705412	0.008218686566
0	6838	20.271046391978	0.020855839908
0	6843	20.291902231886	0.007373180381
0	6848	20.299275412267	0.039303023653
0	6853	20.33857843592	0.002622330001
0	6857	20.341200765921	0.000440699209
0	6860	20.34164146513	0.006466527408
0	6865	20.348107992538	0.033906006711
0	6873	20.382013999249	0.001507582856
0	6877	20.383521582105	0.007477744979
0	6882	20.390999327084	0.030731069904
0	6888	20.421730396988	0.031601881888
0	6893	20.453332278876	0.016520941175
0	6898	20.469853220051	0.017605765918
0	6903	20.487458985969	0.00321123292
0	6907	20.490670218889	0.065549996271
0	6913	20.55622021516	0.037532369738
0	6918	20.593752584898	0.021361965235
0	6923	20.615114550133	0.01300111606
0	6928	20.628115666193	0.006801201275
0	6932	20.634916867468	0.009129290311
0	6938	20.644046157779	0.010429136715
0	6943	20.654475294494	0.015423079774
0	6948	20.669898374268	0.00708343123
0	6952	20.676981805498	0.004395952467
0	6957	20.681377757965	0.006809871701
0	6962	20.688187629666	0.012013630243
0	6968	20.700201259909	0.004534922071
0	6972	20.70473618198	0.002121781575
0	6975	20.706857963555	0.010276801169
0	6983	20.717134764724	0.010824881215
0	6988	20.727959645939	0.00487225207
0	6993	20.732831898009	0.001538688898
0	6996	20.734370586907	0.011147034815
0	7003	20.745517621722	0.028643325278
0	7009	20.774160947	0.001872912868
0	7013	20.776033859868	0.007551391732
0	7018	20.7835852516	0.002612538317
0	7021	20.786197789917	0.003980549367
0	7026	20.790178339284	0.000719057994
0	7029	20.790897397278	0.013207776575
0	7036	20.804105173853	0.052968621007
0	7044	20.85707379486	0.02060578897
0	7049	20.87767958383	5.8017348e-005
0	7053	20.877737601178	0.014085279053
0	7058	20.891822880231	0.002950810329
0	7063	20.89477369056	0.012977235884
0	7069	20.907750926444	0.014234795202
0	7074	20.921985721646	0.002796744513
0	7078	20.924782466159	0.001273071166
0	7081	20.926055537325	0.01739273949
0	7088	20.943448276815	0.032042908895
0	7094	20.97549118571	0.056455211903
0	7099	21.031946397613	0.019074150035
0	7104	21.051020547648	0.014070121734
0	7109	21.065090669382	0.05089396072
0	7114	21.115984630102	0.005970915075
0	7118	21.121955545177	0.010628041132
0	7124	21.132583586309	0.024344850256
0	7129	21.156928436565	0.005358776929
0	7133	21.162287213494	0.027151665172
0	7139	21.189438878666	0.011960977138
0	7144	21.201399855804	0.008049331245
0	7149	21.209449187049	0.040065374603
0	7154	21.249514561652	0.008057756056
0	7159	21.257572317708	0.011033351324
0	7164	21.268605669032	0.041378419844
0	7169	21.309984088876	0.004663380947
0	7173	21.314647469823	0.019211944846
0	7179	21.333859414669	0.031482276429
0	7184	21.365341691098	0.000501821387
0	7188	21.365843512485	0.006976286156
0	7193	21.372819798641	0.00832547588
0	7198	21.381145274521	2.0764689e-005
0	7201	21.38116603921	0.001478992503
0	7204	21.382645031713	0.00426900276
0	7209	21.386914034473	0.057628744552
0	7219	21.444542779025	0.005746021006
0	7223	21.450288800031	0.012842492361
0	7229	21.463131292392	0.029361275884
0	7234	21.492492568276	0.015478810544
0	7239	21.50797137882	0.009201270992
0	7244	21.517172649812	0.006799267062
0	7248	21.523971916874	0.008820657175
0	7254	21.532792574049	0.01652642876
0	7259	21.549319002809	0.006144407401
0	7263	21.55546341021	0.012724002148
0	7269	21.568187412358	0.031888958549
0	7274	21.600076370907	0.0223537363
0	7279	21.622430107207	0.043513635618
0	7284	21.665943742825	0.034554103149
0	7289	21.700497845974	0.072220469996
0	7294	21.77271831597	0.007770435857
0	7299	21.780488751827	0.007091903171
0	7303	21.787580654998	0.033856307124
0	7309	21.821436962122	0.050786113544
0	7314	21.872223075666	0.001009454508
0	7318	21.873232530174	0.023544575319
0	7324	21.896777105493	0.017350489345
0	7329	21.914127594838	0.016890791965
0	7334	21.931018386803	0.003941331149
0	7338	21.934959717952	0.004213367332
0	7343	21.939173085284	0.01161108064
0	7348	21.950784165924	0.003658945048
0	7353	21.954443110972	0.022244390466
0	7359	21.976687501438	0.002723688265
0	7363	21.979411189703	0.020590860087
0	7369	22.00000204979	0.038411908722
0	7374	22.038413958512	0.019171294408
0	7379	22.05758525292	0.005223729513
0	7383	22.062808982433	0.009892542001
0	7389	22.072701524434	0.009052181886
0	7394	22.08175370632	0.003235497619
0	7398	22.084989203939	0.010217029171
0	7403	22.09520623311	0.003451886522
0	7408	22.098658119632	0.022587767146
0	7414	22.121245886778	0.011500880732
0	7419	22.13274676751	0.027891098586
0	7424	22.160637866096	0.008638844593
0	7429	22.169276710689	0.002246178124
0	7433	22.171522888813	0.055327079632
0	7439	22.226849968445	0.008350539961
0	7444	22.235200508406	0.005367790085
0	7448	22.240568298491	0.027758784699
0	7455	22.26832708319	0.019467548537
0	7460	22.287794631727	0.001620691003
0	7464	22.28941532273	0.05558985956
0	7470	22.34500518229	0.002550856332
0	7474	22.347556038622	0.022855054205
0	7480	22.370411092827	0.005440367043
0	7484	22.37585145987	0.004256251538
0	7489	22.380107711408	0.001175247016
0	7492	22.381282958424	0.000558691385
0	7495	22.381841649809	0.008291990003
0	7500	22.390133639812	0.00783643865
0	7505	22.397970078462	0.00170790986
0	7510	22.399677988322	0.031525403761
0	7520	22.431203392083	0.012597502521
0	7525	22.443800894604	0.008484343815
0	7530	22.452285238419	0.004246527435
0	7534	22.456531765854	0.005012931224
0	7539	22.461544697078	0.013611193799
0	7545	22.475155890877	0.041070349429
0	7550	22.516226240306	0.001875383233
0	7554	22.518101623539	0.02219362712
0	7560	22.540295250659	0.055873115611
0	7565	22.59616836627	0.014162118781
0	7570	22.610330485051	0.040448022809
0	7575	22.65077850786	4.0209875e-005
0	7579	22.650818717735	0.007458697048
0	7584	22.658277414783	0.040214926346
0	7590	22.698492341129	0.004159612934
0	7594	22.702651954063	0.016805386241
0	7600	22.719457340304	0.004323197519
0	7604	22.723780537823	0.003813069941
0	7609	22.727593607764	0.009907108414
0	7614	22.737500716178	0.000375968813
0	7617	22.737876684991	0.000612217505
0	7620	22.738488902496	0.000112445167
0	7623	22.738601347663	0.015312486286
0	7630	22.753913833949	0.039342382828
0	7640	22.793256216777	0.007871406661
0	7645	22.801127623438	0.017721080979
0	7650	22.818848704417	0.007107923685
0	7654	22.825956628102	0.018319202654
0	7660	22.844275830756	0.02486091781
0	7665	22.869136748566	0.013597519158
0	7670	22.882734267724	0.018518308047
0	7675	22.901252575771	0.011558059811
0	7680	22.912810635582	0.046295957083
0	7685	22.959106592665	0.009120474386
0	7690	22.968227067051	0.006506492843
0	7694	22.974733559894	0.013751608075
0	7700	22.988485167969	0.034174646142
0	7705	23.022659814111	0.015923299744
0	7710	23.038583113855	0.022042999738
0	7715	23.060626113593	0.007003082662
0	7719	23.067629196255	0.006634067835
0	7724	23.07426326409	0.016549879541
0	7730	23.090813143631	0.014579645896
0	7735	23.105392789527	0.009156503146
0	7740	23.114549292673	0.005107172873
0	7744	23.119656465546	0.001333563373
0	7747	23.120990028919	0.031119785736
0	7755	23.152109814655	0.00398242564
0	7759	23.156092240295	0.00178897305
0	7762	23.157881213345	0.001273105857
0	7765	23.159154319202	0.003582128392
0	7770	23.162736447594	0.005829503493
0	7775	23.168565951087	0.003032354044
0	7778	23.171598305131	0.014175269859
0	7785	23.18577357499	0.007738225838
0	7790	23.193511800828	0.006874118446
0	7795	23.200385919274	0.020511085785
0	7804	23.220897005059	0.019431849959
0	7811	23.240328855018	0.010031980263
0	7816	23.250360835281	0.002344389638
0	7820	23.252705224919	8.191799e-006
0	7823	23.252713416718	0.002759609154
0	7826	23.255473025872	0.008311262173
0	7831	23.263784288045	0.000999077059
0	7836	23.264783365104	0.000984947778
0	7839	23.265768312882	0.004604660738
0	7842	23.27037297362	0.003502705591
0	7847	23.273875679211	0.006423870432
0	7852	23.280299549643	0.040410865275
0	7865	23.320710414918	0.001385812781
0	7868	23.322096227699	0.003638684383
0	7873	23.325734912082	0.013828188874
0	7880	23.339563100956	0.029314631575
0	7886	23.368877732531	0.01879617141
0	7891	23.387673903941	0.024360156657
0	7896	23.412034060598	0.002565777286
0	7900	23.414599837884	0.002600062818
0	7903	23.417199900702	0.006281390284
0	7908	23.423481290986	0.013960103349
0	7915	23.437441394335	0.019487989986
0	7921	23.456929384321	0.001843736822
0	7925	23.458773121143	0.016329242596
0	7931	23.475102363739	0.019523131627
0	7936	23.494625495366	0.028909567459
0	7941	23.523535062825	0.015219401314
0	7946	23.538754464139	0.012131851894
0	7951	23.550886316033	0.025064798628
0	7956	23.575951114661	0.000391409474
0	7960	23.576342524135	0.009791154308
0	7965	23.586133678443	0.000885435793
0	7968	23.587019114236	0.036952419438
0	7976	23.623971533674	0.001251720263
0	7980	23.625223253937	0.00075912314
0	7983	23.625982377077	0.010920343245
0	7988	23.636902720322	0.005198505137
0	7993	23.642101225459	0.021103958179
0	8001	23.663205183638	0.018831760072
0	8006	23.68203694371	0.000492083321
0	8010	23.682529027031	0.008122087405
0	8015	23.690651114436	0.009151061869
0	8020	23.699802176305	0.002848376362
0	8023	23.702650552667	0.026127210322
0	8031	23.728777762989	0.001701070833
0	8035	23.730478833822	0.016566702075
0	8041	23.747045535897	0.025501858939
0	8046	23.772547394836	0.011842148923
0	8051	23.784389543759	0.009612391072
0	8056	23.794001934831	0.013330560414
0	8061	23.807332495245	0.032092162845
0	8066	23.83942465809	0.034019855863
0	8071	23.873444513953	0.019823851593
0	8076	23.893268365546	0.012837738322
0	8081	23.906106103868	0.007907531845
0	8086	23.914013635713	0.00821803041
0	8091	23.922231666123	0.007014361159
0	8095	23.929246027282	0.018207908446
0	8101	23.947453935728	0.010873851545
0	8106	23.958327787273	0.006628997833
0	8110	23.964956785106	0.032981479345
0	8116	23.997938264451	0.054129825254
0	8121	24.052068089705	0.020049915581
0	8126	24.072118005286	0.030871367665
0	8131	24.102989372951	7.7494292e-005
0	8135	24.103066867243	0.00255566038
0	8138	24.105622527623	0.01777029226
0	8145	24.123392819883	0.017286165291
0	8151	24.140678985174	0.037793852384
0	8157	24.178472837558	0.032469407635
0	8162	24.210942245193	0.002922091448
0	8166	24.213864336641	0.027950789757
0	8172	24.241815126398	0.009910726401
0	8177	24.251725852799	0.010704167299
0	8182	24.262430020098	0.002267856397
0	8186	24.264697876495	0.002049132895
0	8189	24.26674700939	0.006670776824
0	8194	24.273417786214	0.014572019304
0	8201	24.287989805518	0.041497202521
0	8207	24.329487008039	0.004103472934
0	8211	24.333590480973	0.038518840796
0	8217	24.372109321769	0.014949139187
0	8222	24.387058460956	0.004986778824
0	8226	24.39204523978	0.01775009285
0	8232	24.40979533263	0.006224348741
0	8236	24.416019681371	0.00168502021
0	8241	24.417704701581	0.013752345559
0	8247	24.43145704714	0.009721055395
0	8252	24.441178102535	0.049532759287
0	8257	24.490710861822	0.013213614259
0	8262	24.503924476081	0.002399034058
0	8266	24.506323510139	0.004387921094
0	8269	24.510711431233	0.004454205882
0	8274	24.515165637115	0.003366108053
0	8279	24.518531745168	0.031019434727
0	8287	24.549551179895	0.015235690096
0	8292	24.564786869991	0.010155925685
0	8297	24.574942795676	0.021453290224
0	8302	24.5963960859	0.034383744388
0	8307	24.630779830288	0.006673477035
0	8311	24.637453307323	0.003078042275
0	8316	24.640531349598	0.018511200401
0	8322	24.659042549999	0.011410749028
0	8327	24.670453299027	0.01327825267
0	8332	24.683731551697	0.005923879381
0	8336	24.689655431078	0.024878900804
0	8342	24.714534331882	0.00570886349
0	8346	24.720243195372	0.003423699348
0	8351	24.72366689472	0.00888262206
0	8356	24.73254951678	0.023873731696
0	8362	24.756423248476	0.008512988757
0	8367	24.764936237233	0.004647032018
0	8371	24.769583269251	0.006632252579
0	8376	24.77621552183	0.005312979211
0	8381	24.781528501041	0.036971402046
0	8387	24.818499903087	0.057368544847
0	8392	24.875868447934	0.019737213477
0	8397	24.895605661411	0.000706587562
0	8401	24.896312248973	0.01950433713
0	8407	24.915816586103	0.003156253549
0	8411	24.918972839652	0.005135526193
0	8416	24.924108365845	0.011036899905
0	8421	24.93514526575	0.012930924409
0	8427	24.948076190159	0.007073935807
0	8431	24.955150125966	0.02265607228
0	8437	24.977806198246	0.004158051578
0	8441	24.981964249824	0.023814439314
0	8447	25.005778689138	0.01730645645
0	8452	25.023085145588	0.006336051741
0	8456	25.029421197329	0.016595295974
0	8462	25.046016493303	0.02210216665
0	8467	25.068118659953	0.049756010666
0	8472	25.117874670619	0.019971065257
0	8477	25.137845735876	0.031630012228
0	8482	25.169475748104	0.002288642222
0	8486	25.171764390326	0.089493535496
0	8492	25.261257925822	0.030142629251
0	8497	25.291400555073	0.006762147159
0	8501	25.298162702232	0.008732715797
0	8507	25.306895418029	0.000694342589
0	8511	25.307589760618	0.00999496314
0	8516	25.317584723758	0.005902235955
0	8521	25.323486959713	0.008923143838
0	8526	25.332410103551	0.010304934539
0	8531	25.34271503809	0.012584599244
0	8537	25.355299637334	0.002834677751
0	8541	25.358134315085	0.014559986218
0	8547	25.372694301303	0.001333715435
0	8551	25.374028016738	0.010342693829
0	8556	25.384370710567	0.00904216362
0	8561	25.393412874187	0.030237261965
0	8567	25.423650136152	0.040471245644
0	8572	25.464121381796	0.014822229797
0	8577	25.478943611593	0.021605874075
0	8582	25.500549485668	0.007698125719
0	8587	25.508247611387	0.005598295925
0	8591	25.513845907312	0.008085592628
0	8596	25.52193149994	0.032921505732
0	8602	25.554853005672	0.024977320911
0	8607	25.579830326583	0.017923922001
0	8612	25.597754248584	0.006420077257
0	8616	25.604174325841	0.009335970365
0	8622	25.613510296206	0.003563483144
0	8626	25.61707377935	0.004610509091
0	8631	25.621684288441	0.000918291482
0	8634	25.622602579923	0.012853846522
0	8641	25.635456426445	0.031315353947
0	8647	25.666771780392	0.003251850386
0	8651	25.670023630778	0.037615835029
0	8657	25.707639465807	0.020277331291
0	8662	25.727916797098	0.001919549173
0	8666	25.729836346271	0.041452146609
0	8672	25.77128849288	0.006107657708
0	8676	25.777396150588	0.016149879733
0	8682	25.793546030321	0.002892344832
0	8686	25.796438375153	0.019364440584
0	8692	25.815802815737	0.001847750584
0	8696	25.817650566321	0.002695665889
0	8699	25.82034623221	0.03451880049
0	8707	25.8548650327	0.020688230261
0	8712	25.875553262961	0.000878382725
0	8716	25.876431645686	0.010318121572
0	8721	25.886749767258	0.059049091947
0	8727	25.945798859205	0.001371579721
0	8731	25.947170438926	0.001521371751
0	8734	25.948691810677	0.007327339296
0	8739	25.956019149973	0.029868234607
0	8747	25.98588738458	0.019609370775
0	8752	26.005496755355	0.012538163513
0	8757	26.018034918868	0.012948728164
0	8762	26.030983647032	0.00688103012
0	8766	26.037864677152	0.005487522587
0	8771	26.043352199739	0.006286062054
0	8776	26.049638261793	0.067309476168
0	8783	26.116947737961	0.005665705583
0	8787	26.122613443544	0.043492479805
0	8793	26.166105923349	0.016064325696
0	8798	26.182170249045	0.012307013519
0	8803	26.194477262564	0.010926209631
0	8809	26.205403472195	0.000787891355
0	8813	26.20619136355	0.034714123479
0	8819	26.240905487029	0.001648541628
0	8823	26.242554028657	0.012133255329
0	8828	26.254687283986	0.014295801393
0	8834	26.268983085379	0.02630496026
0	8839	26.295288045639	0.019731037388
0	8844	26.315019083027	0.019396079068
0	8849	26.334415162095	0.004196352036
0	8853	26.338611514131	0.000589803749
0	8856	26.33920131788	0.049853431896
0	8864	26.389054749776	0.022249352975
0	8869	26.411304102751	0.020277702853
0	8875	26.431581805604	0.035018823331
0	8880	26.466600628935	0.015510087341
0	8885	26.482110716276	0.000658090169
0	8889	26.482768806445	0.006227195917
0	8892	26.488996002362	0.006076098438
0	8897	26.4950721008	0.019500690138
0	8905	26.514572790938	0.001575957494
0	8909	26.516148748432	0.013177432357
0	8915	26.529326180789	0.009682196565
0	8920	26.539008377354	0.021199047229
0	8926	26.560207424583	0.005311332001
0	8930	26.565518756584	0.040388998015
0	8936	26.605907754599	0.002454291203
0	8940	26.608362045802	0.074430491173
0	8946	26.682792536975	0.006013143205
0	8950	26.68880568018	0.002696461323
0	8955	26.691502141503	0.025220465929
0	8961	26.716722607432	0.010789451584
0	8966	26.727512059016	0.002269041676
0	8970	26.729781100692	0.02986884737
0	8976	26.759649948062	0.003869178439
0	8980	26.763519126501	0.006408714245
0	8985	26.769927840746	0.001070055096
0	8988	26.770997895842	0.004168695702
0	8993	26.775166591544	0.018347846108
0	9000	26.793514437652	0.01969929533
0	9006	26.813213732982	0.00754368625
0	9011	26.820757419232	0.056925485006
0	9016	26.877682904238	0.005584226747
0	9020	26.883267130985	0.010510065632
0	9026	26.893777196617	0.019021078858
0	9031	26.912798275475	0.007474332258
0	9036	26.920272607733	0.00614158969
0	9040	26.926414197423	0.007462049661
0	9045	26.933876247084	0.019516689568
0	9051	26.953392936652	0.023735109754
0	9056	26.977128046406	0.02532716742
0	9061	27.002455213826	0.01836574554
0	9066	27.020820959366	0.003682042232
0	9070	27.024503001598	0.005761073575
0	9075	27.030264075173	0.05464064532
0	9081	27.084904720493	0.055088393779
0	9086	27.139993114272	0.002657466164
0	9090	27.142650580436	0.033326208037
0	9096	27.175976788473	0.005155130775
0	9100	27.181131919248	0.018106067414
0	9106	27.199237986662	0.002973019808
0	9110	27.20221100647	0.008718109547
0	9115	27.210929116017	0.006358385105
0	9120	27.217287501122	0.003484580462
0	9123	27.220772081584	0.009810653438
0	9130	27.230582735022	0.016402790657
0	9136	27.246985525679	0.011077688055
0	9141	27.258063213734	0.021029654205
0	9146	27.279092867939	0.02882180904
0	9151	27.307914676979	0.013898053658
0	9156	27.321812730637	0.033034026682
0	9161	27.354846757319	0.010266284123
0	9166	27.365113041442	0.003728917864
0	9170	27.368841959306	0.00188415524
0	9173	27.370726114546	0.014628435637
0	9180	27.385354550183	0.023037972987
0	9186	27.40839252317	0.001773242926
0	9190	27.410165766096	0.010147048198
0	9195	27.420312814294	0.009214204179
0	9200	27.429527018473	0.028874037565
0	9206	27.458401056038	0.005836500876
0	9210	27.464237556914	0.002172242017
0	9215	27.466409798931	0.005707945651
0	9218	27.472117744582	0.05032446569
0	9226	27.522442210272	0.009883628203
0	9231	27.532325838475	0.010135534736
0	9236	27.542461373211	0.019630427396
0	9241	27.562091800607	0.001126517563
0	9245	27.56321831817	0.001075383271
0	9248	27.564293701441	0.004929930865
0	9251	27.569223632306	0.031700974264
0	9261	27.60092460657	0.034930888308
0	9266	27.635855494878	0.019909844587
0	9271	27.655765339465	0.006097388513
0	9275	27.661862727978	0.002912864682
0	9280	27.66477559266	0.052637469137
0	9286	27.717413061797	0.041992841527
0	9292	27.759405903324	0.006860368672
0	9296	27.766266271996	0.12841527389
0	9302	27.894681545886	0.023393269226
0	9307	27.918074815112	0.003295856183
0	9311	27.921370671295	0.00944186852
0	9316	27.930812539815	0.011482807108
0	9322	27.942295346923	0.001178613404
0	9326	27.943473960327	0.005142595888
0	9329	27.948616556215	0.026477426694
0	9337	27.975093982909	0.005439825196
0	9341	27.980533808105	0.023442773316
0	9347	28.003976581421	0.013412999853
0	9352	28.017389581274	0.010853876521
0	9357	28.028243457795	0.038211768763
0	9363	28.066455226558	0.002198936888
0	9367	28.068654163446	0.019307131587
0	9373	28.087961295033	0.018671431182
0	9378	28.106632726215	0.012286568151
0	9383	28.118919294366	0.013405378376
0	9388	28.132324672742	0.038323211846
0	9393	28.170647884588	0.018061817402
0	9398	28.18870970199	0.010169782826
0	9403	28.198879484816	0.006716224121
0	9407	28.205595708937	0.031052135072
0	9413	28.236647844009	0.014888536768
0	9418	28.251536380777	0.026934854083
0	9423	28.27847123486	0.00855934137
0	9428	28.28703057623	0.003608835416
0	9432	28.290639411646	0.008011439819
0	9437	28.298650851465	0.022125274719
0	9443	28.320776126184	0.008042987852
0	9448	28.328819114036	0.000183687583
0	9452	28.329002801619	0.000488709804
0	9455	28.329491511423	0.005847483698
0	9458	28.335338995121	0.000944017228
0	9463	28.336283012349	0.003912047343
0	9466	28.340195059692	0.028388869936
0	9477	28.368583929628	0.010604522461
0	9483	28.379188452089	0.017837521118
0	9488	28.397025973207	0.020025646265
0	9493	28.417051619472	0.003928493859
0	9497	28.420980113331	0.00154173048
0	9500	28.422521843811	0.001885603331
0	9505	28.424407447142	0.010851690001
0	9510	28.435259137143	0.000623431782
0	9513	28.435882568925	0.04180932949
0	9523	28.477691898415	0.009800452008
0	9528	28.487492350423	0.003894128695
0	9532	28.491386479118	0.013299782019
0	9538	28.504686261137	0.016958100452
0	9543	28.521644361589	0.034235258475
0	9548	28.555879620064	0.01347971932
0	9553	28.569359339384	0.0379369716
0	9558	28.607296310984	0.000151720134
0	9562	28.607448031118	0.006841376486
0	9565	28.614289407604	0.009688979304
0	9572	28.623978386908	0.040069870056
0	9578	28.664048256964	0.018504649164
0	9583	28.682552906128	0.011837582486
0	9588	28.694390488614	0.000674575019
0	9592	28.695065063633	0.012802975055
0	9597	28.707868038688	0.031744257721
0	9603	28.739612296409	0.002951826992
0	9607	28.742564123401	0.011012082245
0	9612	28.753576205646	0.001847122604
0	9617	28.75542332825	0.000467114002
0	9620	28.755890442252	0.004203172172
0	9623	28.760093614424	0.003812038693
0	9628	28.763905653117	0.001990785448
0	9631	28.765896438565	0.046081329603
0	9643	28.811977768168	0.003790355654
0	9647	28.815768123822	0.013095585776
0	9653	28.828863709598	0.011641847664
0	9658	28.840505557262	0.001705470426
0	9662	28.842211027688	0.030403304356
0	9668	28.872614332044	0.005085567415
0	9672	28.877699899459	0.023770285602
0	9678	28.901470185061	0.009151504533
0	9683	28.910621689594	0.000493369047
0	9687	28.911115058641	0.000317589478
0	9690	28.911432648119	0.017987635441
0	9697	28.92942028356	0.007955619973
0	9702	28.937375903533	0.000718828756
0	9705	28.938094732289	0.010084254175
0	9712	28.948178986464	0.09341148252
0	9718	29.041590468984	0.00418931853
0	9722	29.045779787514	0.022995096087
0	9728	29.068774883601	0.013324261532
0	9733	29.082099145133	0.003947413449
0	9737	29.086046558582	0.020990093436
0	9743	29.107036652018	0.010103411857
0	9748	29.117140063875	0.004034557925
0	9752	29.1211746218	0.020444599975
0	9758	29.141619221775	0.014533506043
0	9763	29.156152727818	0.027470594702
0	9769	29.18362332252	0.044504344906
0	9774	29.228127667426	0.002157170322
0	9778	29.230284837748	0.022594839934
0	9784	29.252879677682	0.040121390908
0	9789	29.29300106859	0.028292232403
0	9794	29.321293300993	0.016664600195
0	9799	29.337957901188	0.010112523442
0	9804	29.34807042463	0.031346608315
0	9809	29.379417032945	0.003074924611
0	9813	29.382491957556	0.003966968429
0	9816	29.386458925985	0.082144782771
0	9825	29.468603708756	0.006469249982
0	9829	29.475072958738	0.009564475789
0	9835	29.484637434527	0.004369327251
0	9839	29.489006761778	0.001057835469
0	9842	29.490064597247	0.001133046914
0	9845	29.491197644161	0.04319615672
0	9855	29.534393800881	0.015512568582
0	9860	29.549906369463	0.050253976586
0	9865	29.600160346049	0.004339489923
0	9869	29.604499835972	0.019061791791
0	9875	29.623561627763	0.00897367823
0	9880	29.632535305993	0.006461578696
0	9884	29.638996884689	0.005101493747
0	9889	29.644098378436	0.00440313605
0	9894	29.648501514486	0.038111151558
0	9900	29.686612666044	0.004624463269
0	9904	29.691237129313	0.008973260622
0	9909	29.700210389935	0.002042348601
0	9914	29.702252738536	0.031786049292
0	9920	29.734038787828	0.011192174955
0	9925	29.745230962783	0.000675217212
0	9929	29.745906179995	0.002294073551
0	9932	29.748200253546	0.011511658846
0	9939	29.759711912392	0.005712992315
0	9942	29.765424904707	0.009042208566
0	9949	29.774467113273	0.014780853668
0	9955	29.789247966941	0.005920496988
0	9959	29.795168463929	0.019504150942
0	9965	29.814672614871	0.005354184544
0	9969	29.820026799415	0.000368582187
0	9972	29.820395381602	0.004654809221
0	9977	29.825050190823	0.008434836375
0	9982	29.833485027198	0.003338334555
0	9987	29.836823361753	0.01583866349
0	9994	29.852662025243	0.010177793227
0	9999	29.86283981847	0.02878496137
0	10005	29.89162477984	0.006349956091
0	10009	29.897974735931	0.009674637565
0	10015	29.907649373496	0.006020614128
0	10019	29.913669987624	0.052206471305
0	10025	29.965876458929	0.001027510227
0	10029	29.966903969156	0.004631186519
0	10032	29.971535155675	0.000209431024
0	10035	29.971744586699	0.00020401164
0	10038	29.971948598339	0.036397883387
0	10050	30.008346481726	0.009917545262
0	10055	30.018264026988	0.008010350111
0	10060	30.026274377099	0.004438008108
0	10064	30.030712385207	0.016953612584
0	10070	30.047665997791	0.026035026743
0	10075	30.073701024534	0.009033124411
0	10080	30.082734148945	0.003974582036
0	10084	30.086708730981	0.003359114407
0	10089	30.090067845388	0.005579640126
0	10092	30.095647485514	0.039776859381
0	10100	30.135424344895	0.023497647078
0	10105	30.158921991973	0.001962944037
0	10109	30.16088493601	0.018836532927
0	10115	30.179721468937	0.009848619637
0	10120	30.189570088574	0.012248419966
0	10125	30.20181850854	0.001443172413
0	10129	30.203261680953	0.018309058078
0	10135	30.221570739031	0.003906376042
0	10139	30.225477115073	0.008135695406
0	10144	30.233612810479	0.017347511492
0	10150	30.250960321971	7.9862976e-005
0	10154	30.251040184947	0.011211280133
0	10159	30.26225146508	0.000171301298
0	10162	30.262422766378	0.011979432457
0	10169	30.274402198835	0.01073769671
0	10174	30.285139895545	0.026778211764
0	10180	30.311918107309	0.001304477665
0	10184	30.313222584974	0.000940553584
0	10187	30.314163138558	0.000786390283
0	10190	30.314949528841	0.035280838276
0	10200	30.350230367117	0.050509174683
0	10205	30.4007395418	0.015800034203
0	10210	30.416539576003	0.029385211807
0	10216	30.44592478781	0.000460108135
0	10220	30.446384895945	9.966543e-006
0	10223	30.446394862488	0.03613129111
0	10231	30.482526153598	0.042624014338
0	10236	30.525150167936	0.000425714232
0	10240	30.525575882168	0.004892711963
0	10243	30.530468594131	0.003076754633
0	10248	30.533545348764	0.003085036799
0	10251	30.536630385563	0.033937662057
0	10261	30.57056804762	0.017640895908
0	10266	30.588208943528	0.002032617415
0	10270	30.590241560943	0.001729542358
0	10273	30.591971103301	0.00761217246
0	10278	30.599583275761	0.004611122252
0	10283	30.604194398013	0.02140982047
0	10291	30.625604218483	0.055390105818
0	10297	30.680994324301	0.019666581955
0	10302	30.700660906256	0.011030733636
0	10307	30.711691639892	0.003213613827
0	10311	30.714905253719	0.007610439841
0	10316	30.72251569356	0.007966762787
0	10321	30.730482456347	0.022341590552
[...]
23	17212	52.32989930444	0.00718833436
23	17217	52.365204688349	0.00718833436
23	17222	52.390432794981	0.00718833436
23	17227	52.411150743742	0.00718833436
23	17232	52.44164910953	0.00718833436
23	17237	52.454002080144	0.00718833436
23	17242	52.461190414504	0.014182255366
23	17247	52.481364956515	0.00718833436
23	17252	52.525573193125	0.00718833436
23	17257	52.532761527485	0.00948967288
23	17262	52.539949861845	0.012269514559
23	17267	52.547138196205	0.007581555085
23	17272	52.561668363497	0.00718833436
23	17277	52.568856697857	0.009162707114
23	17282	52.576045032217	0.007202421841
23	17287	52.627757351252	0.00718833436
23	17292	52.641950543214	0.00718833436
23	17297	52.649138877574	0.010530112911
23	17302	52.658846029658	0.00718833436
23	17307	52.666034364018	0.014138717747
23	17312	52.68121341889	0.00718833436
23	17317	52.68840175325	0.008462021431
23	17322	52.699157387609	0.00718833436
23	17327	52.709630066753	0.00718833436
23	17332	52.721942636962	0.00718833436
23	17337	52.729130971322	0.013945074755
23	17342	52.736319305682	0.007694390148
23	17347	52.748102353921	0.00718833436
23	17352	52.755290688281	0.010680229232
23	17357	52.782904595454	0.00718833436
23	17362	52.800160575583	0.00718833436
23	17367	52.818458663018	0.00718833436
23	17372	52.879629610802	0.00718833436
23	17377	52.894261001604	0.00718833436
23	17382	52.933340333798	0.00718833436
23	17387	52.980180785121	0.00718833436
23	17392	52.987369119481	0.010359185208
23	17397	53.03184964875	0.00718833436
23	17402	53.088857522787	0.00718833436
23	17407	53.114939319472	0.00718833436
23	17412	53.141531752551	0.00718833436
23	17417	53.155569278951	0.00718833436
23	17422	53.206580493293	0.00718833436
23	17427	53.216615056961	0.00718833436
23	17432	53.27177111232	0.00718833436
23	17437	53.27895944668	0.014175585155
23	17442	53.28614778104	0.01196106656
23	17447	53.295356088661	0.00718833436
23	17452	53.310135695534	0.00718833436
23	17457	53.377904184824	0.00718833436
23	17462	53.385092519184	0.009732053471
23	17467	53.40811335955	0.00718833436
23	17472	53.41530169391	0.010866643403
23	17477	53.42249002827	0.011808497916
23	17485	53.42967836263	0.010072664934
23	17490	53.43686669699	0.014787047808
23	17492	53.44405503135	0.017647717346
23	17497	53.456586872252	0.00718833436
23	17502	53.485306903749	0.00718833436
23	17507	53.505741928593	0.00718833436
23	17512	53.512930262953	0.013473030276
23	17517	53.557835569173	0.00718833436
23	17522	53.565023903533	0.009257189943
23	17527	53.594127766295	0.00718833436
23	17532	53.601316100655	0.011442799235
23	17537	53.609229203186	0.00718833436
23	17545	53.616417537546	0.012819943778
23	17550	53.623605871906	0.018406451053
23	17552	53.630794206266	0.014900701487
23	17557	53.637982540626	0.012178816994
23	17562	53.661936630606	0.00718833436
23	17567	53.669124964966	0.008730170349
23	17572	53.676313299326	0.00733562959
23	17577	53.686940163362	0.00718833436
23	17582	53.694128497722	0.009752215358
23	17587	53.701316832082	0.011553918873
23	17592	53.729027237584	0.00718833436
23	17597	53.758715533199	0.00718833436
23	17602	53.796814219853	0.00718833436
23	17607	53.8247141854	0.00718833436
23	17612	53.835286368753	0.00718833436
23	17617	53.842474703113	0.008691432757
23	17622	53.857071263559	0.00718833436
23	17627	53.870799933402	0.00718833436
23	17632	53.877988267762	0.013424604081
23	17637	53.885176602122	0.01217639455
23	17642	53.892364936482	0.013100024676
23	17647	53.92242198023	0.00718833436
23	17652	53.929827324113	0.00718833436
23	17657	53.937015658473	0.011264645969
23	17662	53.944203992833	0.007890676931
23	17667	53.961448089992	0.00718833436
23	17672	53.9897703336	0.00718833436
23	17677	54.042557547323	0.00718833436
23	17682	54.067434320721	0.00718833436
23	17693	54.074622655081	0.011486079917
23	17698	54.081810989441	0.018527029733
23	17700	54.088999323801	0.022331294844
23	17705	54.096187658161	0.026986758921
23	17710	54.103375992521	0.016426096432
23	17712	54.110564326881	0.016512423102
23	17717	54.12389457769	0.00718833436
23	17722	54.134656711613	0.00718833436
23	17727	54.144773037361	0.00718833436
23	17732	54.158781809075	0.00718833436
23	17737	54.172893883096	0.00718833436
23	17745	54.180082217456	0.012037422414
23	17747	54.187270551816	0.015638903357
23	17752	54.196695254317	0.00718907261
23	17757	54.206406801306	0.00718907261
23	17762	54.239622558503	0.00718907261
23	17770	54.246811631113	0.012595177916
23	17775	54.254000703723	0.015985663731
23	17777	54.261189776333	0.01735840024
23	17785	54.268378848943	0.012903274072
23	17787	54.275567921553	0.01506487658
23	17792	54.336421052029	0.00718907261
23	17797	54.345242737404	0.00718907261
23	17802	54.360740528251	0.00718907261
23	17807	54.400656531249	0.00718907261
23	17815	54.407845603859	0.012909751634
23	17817	54.415034676469	0.017098853307
23	17822	54.427390452359	0.00718907261
23	17827	54.435087583116	0.00718907261
23	17832	54.445722880416	0.00718907261
23	17837	54.460063846124	0.00718907261
23	17842	54.467252918734	0.012596143892
23	17847	54.505782965522	0.00718907261
23	17852	54.516641792503	0.00718907261
23	17857	54.523830865113	0.012234836573
23	17862	54.539897236002	0.00718907261
23	17867	54.577390224027	0.00718907261
23	17875	54.584579296637	0.012509283502
23	17880	54.591768369247	0.01843044072
23	17888	54.598957441857	0.019012701949
23	17890	54.606146514467	0.01637147564
23	17898	54.613335587077	0.022270702217
23	17906	54.620524659687	0.020366516342
23	17914	54.627713732297	0.025091362963
23	17919	54.634902804907	0.028752141685
23	17921	54.642091877517	0.035132333717
23	17926	54.649280950127	0.035918171351
23	17928	54.656470022737	0.03926171934
23	17930	54.663659095347	0.037369206353
23	17932	54.670848167957	0.035474850857
23	17937	54.678037240567	0.012603201978
23	17942	54.696134667593	0.00718907261
23	17947	54.742672455702	0.00718907261
23	17952	54.760062271464	0.00718907261
23	17957	54.771038274085	0.00718907261
23	17962	54.784322458533	0.00718907261
23	17967	54.814937289471	0.00718907261
23	17972	54.879617815479	0.00718907261
23	17977	54.893671784302	0.00718907261
23	17982	54.903017559329	0.00718907261
23	17987	54.910206631939	0.007937448122
23	17992	54.946460392355	0.00718907261
23	17997	54.953649464965	0.011139457425
23	18002	54.960838537575	0.012171965259
23	18008	54.968027610185	0.011366636713
23	18016	54.975216682795	0.010961468803
23	18018	54.982405755405	0.017468622371
23	18026	54.989594828015	0.011032130383
23	18028	54.996783900625	0.015856631384
23	18033	55.028452574016	0.00718907261
23	18038	55.042203852396	0.00718907261
23	18043	55.064104748243	0.00718907261
23	18048	55.071293820853	0.010554730623
23	18053	55.094859760476	0.00718907261
23	18058	55.122099901273	0.00718907261
23	18063	55.145660754389	0.00718907261
23	18068	55.152849826999	0.00843928311
23	18073	55.197116831883	0.00718907261
23	18084	55.204305904493	0.012716950165
23	18086	55.211494977103	0.018086850448
23	18088	55.218684049713	0.023967524228
23	18093	55.227167814307	0.00718907261
23	18098	55.268666440917	0.00718907261
23	18103	55.285400048173	0.00718907261
23	18114	55.292589120783	0.012494351399
23	18120	55.299778193393	0.01918413752
23	18122	55.306967266003	0.024094990408
23	18124	55.314156338613	0.023650463017
23	18129	55.327475044861	0.00718907261
23	18134	55.334664117471	0.012744424072
23	18139	55.34555579838	0.00718907261
23	18144	55.35274487099	0.008815396012
23	18149	55.376570116596	0.00718907261
23	18154	55.383759189206	0.01258978453
23	18159	55.392374558591	0.00718907261
23	18164	55.399563631201	0.014320132805
23	18169	55.439802295089	0.00718907261
23	18174	55.472587616338	0.00718907261
23	18179	55.491098061872	0.00718907261
23	18187	55.498287134482	0.011819113464
23	18189	55.505476207092	0.017213733254
23	18194	55.512665279702	0.014366075985
23	18202	55.519854352312	0.009294546198
23	18204	55.527043424922	0.015628590834
23	18209	55.537601554615	0.00718907261
23	18214	55.562663516573	0.00718907261
23	18219	55.586952600961	0.00718907261
23	18224	55.608115937718	0.00718907261
23	18229	55.615305010328	0.013978036165
23	18234	55.634217787768	0.00718907261
23	18239	55.653252334547	0.00718907261
23	18244	55.672072649963	0.00718907261
23	18249	55.698275659031	0.00718907261
23	18254	55.726773030215	0.00718907261
23	18259	55.747378667176	0.00718907261
23	18264	55.754567739786	0.009085230878
23	18269	55.763443915544	0.00718907261
23	18274	55.770632988154	0.009603232797
23	18279	55.777822060764	0.007604386056
23	18284	55.785011133374	0.014147481709
23	18289	55.792200205984	0.009378306955
23	18294	55.843368234069	0.00718907261
23	18299	55.861661827035	0.00718907261
23	18304	55.868850899645	0.008898402508
23	18309	55.905584131334	0.00718907261
23	18314	55.912773203944	0.010507773958
23	18319	55.923851686276	0.00718907261
23	18324	55.931040758886	0.013317732107
23	18329	55.957728770694	0.00718907261
23	18334	55.966155908552	0.00718907261
23	18339	55.984278474729	0.00718907261
23	18344	56.00907995886	0.00718907261
23	18352	56.01626903147	0.013316393498
23	18354	56.02345810408	0.014729513124
23	18359	56.03064717669	0.011496511852
23	18364	56.049076901935	0.00718907261
23	18369	56.056265974545	0.009314839611
23	18374	56.07644111023	0.00718907261
23	18379	56.08363018284	0.009342383994
23	18384	56.122831653154	0.00718907261
23	18389	56.130020725764	0.007778984251
23	18394	56.137209798374	0.010515942286
23	18399	56.144398870984	0.012035818871
23	18404	56.152745934776	0.00718907261
23	18409	56.165708881621	0.00718907261
23	18414	56.205478763729	0.00718907261
23	18419	56.222740055554	0.00718907261
23	18424	56.229929128164	0.010362980015
23	18435	56.237118200774	0.012857066931
23	18443	56.244307273384	0.017873665905
23	18445	56.251496345994	0.022977899586
23	18447	56.258685418604	0.022985551916
23	18449	56.265874491214	0.029265491207
23	18454	56.279985671319	0.00718907261
23	18459	56.292847257343	0.00718907261
23	18464	56.313613907727	0.00718907261
23	18475	56.320802980337	0.011288822696
23	18477	56.327992052947	0.017904924993
23	18479	56.335181125557	0.024954632308
23	18484	56.342370198167	0.009884299544
23	18489	56.3790899551	0.00718907261
23	18494	56.388107539444	0.00718907261
23	18499	56.399662512697	0.00718907261
23	18504	56.416126123212	0.00718907261
23	18509	56.423315195822	0.012923076065
23	18514	56.436174319866	0.00718907261
23	18519	56.463939426546	0.00718907261
23	18524	56.476016851095	0.00718907261
23	18529	56.537314938489	0.00718907261
23	18534	56.555209356278	0.00718907261
23	18539	56.564138795915	0.00718907261
23	18544	56.579269570526	0.00718907261
23	18549	56.586458643136	0.013726864616
23	18554	56.597075106199	0.00718907261
23	18562	56.604264178809	0.012502416899
23	18567	56.611453251419	0.018045916155
23	18569	56.618642324029	0.018024388343
23	18574	56.62905444886	0.00718907261
23	18579	56.66156512182	0.00718907261
23	18584	56.671693434387	0.00718907261
23	18592	56.678882506997	0.0119749329
23	18594	56.686071579607	0.016025730282
23	18599	56.703293146918	0.00718907261
23	18607	56.710482219528	0.008778494988
23	18609	56.717671292138	0.015741224538
23	18614	56.724860364748	0.008395459807
23	18619	56.732824408254	0.00718907261
23	18624	56.782649638412	0.00718907261
23	18629	56.798158749559	0.00718907261
23	18637	56.805347822169	0.011252824508
23	18639	56.812536894779	0.017507709326
23	18644	56.836067011015	0.00718907261
23	18649	56.850375449625	0.00718907261
23	18654	56.865985218991	0.00718907261
23	18659	56.909329911357	0.00718907261
23	18664	56.919651704524	0.00718907261
23	18669	56.926840777134	0.011758202313
23	18674	56.934029849744	0.012012093726
23	18679	56.948825254391	0.00718907261
23	18684	56.956014327001	0.01187062061
23	18689	56.965422097541	0.00718907261
23	18700	56.972611170151	0.01244962448
23	18711	56.979800242761	0.016568047214
23	18713	56.986989315371	0.021652062951
23	18715	56.994178387981	0.028747794465
23	18717	57.001367460591	0.032052723803
23	18722	57.008556533201	0.039101879186
23	18724	57.015745605811	0.017568413463
23	18732	57.022934678421	0.013365219201
23	18734	57.030123751031	0.016336423223
23	18739	57.063889023521	0.00718907261
23	18744	57.071078096131	0.007765998744
23	18749	57.086006125913	0.00718907261
23	18754	57.126319453005	0.00718907261
23	18759	57.145111639562	0.00718907261
23	18764	57.154929062887	0.00718907261
23	18769	57.165143355048	0.00718907261
23	18774	57.178593920014	0.00718907261
23	18779	57.191674042965	0.00718907261
23	18784	57.218142130432	0.00718907261
23	18792	57.225331203042	0.012351712711
23	18794	57.232520275652	0.017228544215
23	18799	57.253892508104	0.00718907261
23	18804	57.265337143026	0.00718907261
23	18809	57.286793509883	0.00718907261
23	18814	57.293982582493	0.012818365641
23	18819	57.383144850053	0.007189811011
23	18824	57.394883795887	0.007189811011
23	18829	57.402073606898	0.009078212748
23	18834	57.413720233311	0.007189811011
23	18839	57.420910044322	0.010517133736
23	18844	57.429430545941	0.007189811011
23	18849	57.436620356952	0.012373879624
23	18854	57.443810167963	0.012768626878
23	18859	57.488182550512	0.007189811011
23	18864	57.516484008851	0.007189811011
23	18869	57.539256400084	0.007189811011
23	18874	57.546446211095	0.008821624273
23	18879	57.553636022106	0.013282767695
23	18884	57.56919731288	0.007189811011
23	18889	57.581264745626	0.007189811011
23	18894	57.59019096087	0.007189811011
23	18899	57.598201561109	0.007189811011
23	18904	57.622755329436	0.007189811011
23	18909	57.629945140447	0.011915591555
23	18914	57.64873929971	0.007189811011
23	18919	57.655929110721	0.011727257974
23	18924	57.677188827014	0.007189811011
23	18929	57.726833147183	0.007189811011
23	18934	57.744443085531	0.007189811011
23	18939	57.751632896542	0.008922743567
23	18944	57.771179860222	0.007189811011
23	18949	57.813745229276	0.007189811011
23	18954	57.836439984616	0.007189811011
23	18959	57.843629795627	0.013200292801
23	18964	57.858494733414	0.007189811011
23	18969	57.86775984888	0.007189811011
23	18974	57.875225527423	0.007189811011
23	18985	57.882415338434	0.012297257713
23	18987	57.889605149445	0.016187814313
23	18990	57.896794960456	0.023305642179
23	18995	57.933343076065	0.007189811011
23	19000	57.940532887076	0.012565839874
23	19005	57.994121180601	0.007189811011
23	19010	58.013324517048	0.007189811011
23	19015	58.020514328059	0.012762766554
23	19020	58.032907077637	0.007189811011
23	19025	58.059221817884	0.007189811011
23	19033	58.066411628895	0.011469789339
23	19035	58.073601439906	0.015094915187
23	19040	58.108339479716	0.007189811011
23	19045	58.135002726297	0.007189811011
23	19050	58.154153212695	0.007189811011
23	19058	58.161343023706	0.013304204217
23	19060	58.168532834717	0.01518732251
23	19065	58.190762953928	0.007189811011
23	19070	58.209291488823	0.007189811011
23	19075	58.217420130798	0.007189811011
23	19080	58.237167753094	0.007189811011
23	19085	58.275986776792	0.007189811011
23	19090	58.283176587803	0.008096206342
23	19095	58.297690235246	0.007189811011
23	19100	58.304880046257	0.007315435466
23	19105	58.315650736186	0.007189811011
23	19110	58.322840547197	0.007706242079
23	19115	58.334887715026	0.007189811011
23	19120	58.349268583291	0.007189811011
23	19125	58.360801380955	0.007189811011
23	19130	58.395401806004	0.007189811011
23	19138	58.402591617015	0.012173511369
23	19140	58.409781428026	0.016510558362
23	19145	58.417162077214	0.007189811011
23	19150	58.448377672701	0.007189811011
23	19158	58.455567483712	0.011426307046
23	19160	58.462757294723	0.018195477525
23	19165	58.479070270574	0.007189811011
23	19170	58.495267361211	0.007189811011
23	19175	58.502457172222	0.013405031364
23	19180	58.509646983233	0.012567071903
23	19185	58.550587724728	0.007189811011
23	19190	58.574089261226	0.007189811011
23	19195	58.581279072237	0.011960203626
23	19200	58.595667487347	0.007189811011
23	19205	58.602857298358	0.011844939504
23	19213	58.610047109369	0.009222743274
23	19215	58.61723692038	0.015322562181
23	19220	58.624590809924	0.007189811011
23	19225	58.631780620935	0.011945093592
23	19230	58.638970431946	0.008684408545
23	19235	58.650275351593	0.007189811011
23	19240	58.675306680846	0.007189811011
23	19245	58.682496491857	0.007757704887
23	19250	58.691624956173	0.007189811011
23	19255	58.732360142449	0.007189811011
23	19260	58.743468630486	0.007189811011
23	19265	58.750658441497	0.007536284777
23	19270	58.757848252508	0.010400449417
23	19275	58.79372165257	0.007189811011
23	19280	58.807656329009	0.007189811011
23	19288	58.81484614002	0.013474334082
23	19293	58.822035951031	0.015251645479
23	19295	58.829225762042	0.01871569048
23	19300	58.836415573053	0.012989680353
23	19305	58.858357614431	0.007189811011
23	19313	58.865547425442	0.011590494314
23	19321	58.872737236453	0.016099269975
23	19326	58.879927047464	0.020683257704
23	19331	58.887116858475	0.023351372381
23	19333	58.894306669486	0.02244689673
23	19338	58.901496480497	0.022677162334
23	19343	58.908686291508	0.021518653925
23	19348	58.915876102519	0.015545256452
23	19356	58.92306591353	0.018053206817
23	19364	58.930255724541	0.017771634447
23	19369	58.937445535552	0.022844957246
23	19374	58.944635346563	0.025351599146
23	19379	58.951825157574	0.031941410497
23	19384	58.959014968585	0.029120662185
23	19386	58.966204779596	0.035927139104
23	19388	58.973394590607	0.031732161003
23	19390	58.980584401618	0.034169421712
23	19395	59.002820158932	0.007189811011
23	19400	59.012114523958	0.007189811011
23	19405	59.029017599406	0.007189811011
23	19410	59.048450331522	0.007189811011
23	19415	59.055640142533	0.011178507112
23	19420	59.062829953544	0.008706628099
23	19425	59.082803255143	0.007189811011
23	19430	59.117962303462	0.007189811011
23	19435	59.177524390946	0.007189811011
23	19446	59.184714201957	0.013841797244
23	19451	59.191904012968	0.018581198818
23	19459	59.199093823979	0.022782156351
23	19461	59.20628363499	0.027316401696
23	19469	59.213473446001	0.028307204599
23	19471	59.220663257012	0.033669907117
23	19473	59.227853068023	0.027936365949
23	19475	59.235042879034	0.029972726424
23	19480	59.242232690045	0.008429595543
23	19485	59.258852547343	0.007189811011
23	19490	59.266042358354	0.007913217023
23	19495	59.273232169365	0.009033567162
23	19506	59.280421980376	0.011543988488
23	19508	59.287611791387	0.01722892425
23	19513	59.294801602398	0.023460427542
23	19515	59.301991413409	0.015740432228
23	19520	59.319271786498	0.007189811011
23	19525	59.341655826716	0.007189811011
23	19530	59.348845637727	0.007217152788
23	19535	59.356607250107	0.007189811011
23	19540	59.369320975511	0.007189811011
23	19545	59.385806923847	0.007189811011
23	19550	59.447423309753	0.007189811011
23	19555	59.460761876634	0.007189811011
23	19560	59.467951687645	0.014355684413
23	19565	59.476263190634	0.007189811011
23	19570	59.483453001645	0.012021915589
23	19575	59.490642812656	0.010992064038
23	19580	59.509491983868	0.007189811011
23	19585	59.519217444494	0.007189811011
23	19590	59.543748589989	0.007189811011
23	19595	59.569055496021	0.007189811011
23	19600	59.59105161471	0.007189811011
23	19605	59.604320661836	0.007189811011
23	19610	59.615871049282	0.007189811011
23	19615	59.623060860293	0.012894111855
23	19620	59.675203246086	0.007189811011
23	19625	59.682393057097	0.013924996032
23	19630	59.689582868108	0.01354750668
23	19635	59.696772679119	0.009998705456
23	19640	59.707781211934	0.007189811011
23	19645	59.719581869527	0.007189811011
23	19650	59.726771680538	0.013397633707
23	19655	59.745969859599	0.007189811011
23	19660	59.753880727017	0.007189811011
23	19665	59.773545014471	0.007189811011
23	19670	59.792774034323	0.007189811011
23	19675	59.799963845334	0.01054882503
23	19680	59.807153656345	0.013646954065
23	19685	59.824365386806	0.007189811011
23	19690	59.867555328887	0.007189811011
23	19695	59.882433302474	0.007189811011
23	19700	59.899846205577	0.007189811011
23	19705	59.907036016588	0.010395294407
23	19710	59.914225827599	0.012498887885
23	19715	59.92141563861	0.008807566525
23	19720	59.941777876613	0.007189811011
23	19728	59.948967687624	0.010262523308
23	19730	59.956157498635	0.016149921721
23	19735	59.96638445484	0.007189811011

