version 2
run Non-monitoring-8-20210208-19:10:41-9144
attr configname Non-monitoring
attr datetime 20210208-19:10:41
attr experiment Non-monitoring
attr inifile aerocom.ini
attr iterationvars ""
attr iterationvarsf ""
attr measurement ""
attr network Aerocom
attr processid 9144
attr repetition 8
attr replication #8
attr resultdir results
attr runnumber 8
attr seedset 8
param **.t 1s
param **.k 15ms
param **.nA 1
param **.nDL 10
param **.s "70 byte"
param **.X 5s
param **.dimPoolMax 10000
param **.dimPoolMin 8000
param **.tDistribution "\"lognormal\""
param **.m 1s
param **.DLMaxCapacity 0
param **.trasmitting false
param **.operationMode 1

vector 0 Aerocom.aircraft[0].packetGenerator arrivalTime:vector ETV
attr "" ""
attr source computeArrivalTime
vector 1 Aerocom.aircraft[0].dataLink[0] serviceTime:vector ETV
attr "" ""
attr source computeServiceTime
vector 2 Aerocom.aircraft[0].dataLink[0] tDistribution:vector ETV
attr "" ""
attr source computeTDistribution
vector 3 Aerocom.aircraft[0].dataLink[1] serviceTime:vector ETV
attr "" ""
attr source computeServiceTime
vector 4 Aerocom.aircraft[0].dataLink[1] tDistribution:vector ETV
attr "" ""
attr source computeTDistribution
vector 5 Aerocom.aircraft[0].dataLink[2] serviceTime:vector ETV
attr "" ""
attr source computeServiceTime
vector 6 Aerocom.aircraft[0].dataLink[2] tDistribution:vector ETV
attr "" ""
attr source computeTDistribution
vector 7 Aerocom.aircraft[0].dataLink[3] serviceTime:vector ETV
attr "" ""
attr source computeServiceTime
vector 8 Aerocom.aircraft[0].dataLink[3] tDistribution:vector ETV
attr "" ""
attr source computeTDistribution
vector 9 Aerocom.aircraft[0].dataLink[4] serviceTime:vector ETV
attr "" ""
attr source computeServiceTime
vector 10 Aerocom.aircraft[0].dataLink[4] tDistribution:vector ETV
attr "" ""
attr source computeTDistribution
vector 11 Aerocom.aircraft[0].dataLink[5] serviceTime:vector ETV
attr "" ""
attr source computeServiceTime
vector 12 Aerocom.aircraft[0].dataLink[5] tDistribution:vector ETV
attr "" ""
attr source computeTDistribution
vector 13 Aerocom.aircraft[0].dataLink[6] serviceTime:vector ETV
attr "" ""
attr source computeServiceTime
vector 14 Aerocom.aircraft[0].dataLink[6] tDistribution:vector ETV
attr "" ""
attr source computeTDistribution
vector 15 Aerocom.aircraft[0].dataLink[7] serviceTime:vector ETV
attr "" ""
attr source computeServiceTime
vector 16 Aerocom.aircraft[0].dataLink[7] tDistribution:vector ETV
attr "" ""
attr source computeTDistribution
vector 17 Aerocom.aircraft[0].dataLink[8] serviceTime:vector ETV
attr "" ""
attr source computeServiceTime
vector 18 Aerocom.aircraft[0].dataLink[8] tDistribution:vector ETV
attr "" ""
attr source computeTDistribution
vector 19 Aerocom.aircraft[0].dataLink[9] serviceTime:vector ETV
attr "" ""
attr source computeServiceTime
vector 20 Aerocom.aircraft[0].dataLink[9] tDistribution:vector ETV
attr "" ""
attr source computeTDistribution
vector 21 Aerocom.aircraft[0].dataLink[0] queueLength:vector ETV
attr "" ""
attr source computeQueueLength
vector 22 Aerocom.aircraft[0].dataLink[0] waitingTime:vector ETV
attr "" ""
attr source computeWaitingTime
vector 23 Aerocom.aircraft[0].dataLink[0] responseTime:vector ETV
attr "" ""
attr source computeResponseTime
0	0	0	0.04828962688
0	12	0.04828962688	0.000307755059
0	16	0.048597381939	0.006845410859
0	19	0.055442792798	0.016384253158
0	28	0.071827045956	0.034560155649
0	33	0.106387201605	0.034726706233
0	38	0.141113907838	0.01145726102
0	43	0.152571168858	0.02013934155
0	48	0.172710510408	0.004261203899
0	52	0.176971714307	0.004819181919
0	57	0.181790896226	0.016712281608
0	63	0.198503177834	0.009941739544
0	68	0.208444917378	0.012373771121
0	73	0.220818688499	0.011486978844
0	78	0.232305667343	0.011731639155
0	83	0.244037306498	0.046823011161
0	89	0.290860317659	0.027751594621
0	94	0.31861191228	0.006403782029
0	99	0.325015694309	0.014961282622
0	105	0.339976976931	0.010770882907
0	110	0.350747859838	0.017102715
0	115	0.367850574838	0.006378712752
0	119	0.37422928759	0.052813685384
0	125	0.427042972974	0.006343199492
0	129	0.433386172466	0.0336036153
0	135	0.466989787766	0.043847103412
0	140	0.510836891178	0.042820225185
0	145	0.553657116363	0.037939830294
0	150	0.591596946657	0.015417784644
0	155	0.607014731301	0.046002023124
0	160	0.653016754425	0.014303956717
0	165	0.667320711142	0.040968354828
0	170	0.70828906597	0.003875407838
0	174	0.712164473808	0.001730192146
0	177	0.713894665954	0.009983910307
0	184	0.723878576261	0.003128632591
0	187	0.727007208852	0.024693029917
0	195	0.751700238769	0.006733372296
0	199	0.758433611065	0.027889672388
0	205	0.786323283453	0.041608708998
0	211	0.827931992451	0.021269750695
0	216	0.849201743146	0.011463000781
0	221	0.860664743927	0.010387517524
0	226	0.871052261451	0.007340172562
0	231	0.878392434013	0.02848962512
0	238	0.906882059133	0.011156867704
0	243	0.918038926837	0.003953570288
0	247	0.921992497125	0.005745240784
0	252	0.927737737909	0.007717947372
0	257	0.935455685281	0.021709350685
0	263	0.957165035966	0.014687462288
0	268	0.971852498254	0.004576668343
0	272	0.976429166597	0.002315402819
0	275	0.978744569416	0.017296416896
0	283	0.996040986312	0.00196527807
0	287	0.998006264382	0.009515682206
0	292	1.007521946588	0.008089145758
0	297	1.015611092346	0.013191637391
0	303	1.028802729737	0.012208820833
0	308	1.04101155057	0.014235263588
0	313	1.055246814158	0.042560216716
0	319	1.097807030874	0.002684827559
0	323	1.100491858433	0.020019849368
0	329	1.120511707801	0.015195545395
0	334	1.135707253196	0.080891630081
0	340	1.216598883277	0.005130905454
0	344	1.221729788731	3.0379862e-005
0	347	1.221760168593	0.000780442844
0	350	1.222540611437	0.053279442736
0	360	1.275820054173	0.118459466982
0	365	1.394279521155	0.0329798884
0	370	1.427259409555	0.006671946574
0	374	1.433931356129	0.018034043986
0	380	1.451965400115	0.010130854923
0	385	1.462096255038	0.001539208825
0	389	1.463635463863	0.008602640849
0	394	1.472238104712	0.012779648166
0	400	1.485017752878	0.022232263925
0	405	1.507250016803	0.02572506959
0	410	1.532975086393	0.014893412335
0	415	1.547868498728	0.012345115934
0	420	1.560213614662	0.009613576664
0	425	1.569827191326	0.006479349336
0	429	1.576306540662	0.011831229521
0	435	1.588137770183	0.011762490656
0	440	1.599900260839	0.008470553726
0	446	1.608370814565	0.001817209794
0	450	1.610188024359	0.018555164146
0	457	1.628743188505	0.045803618393
0	463	1.674546806898	0.001637768811
0	467	1.676184575709	0.008749578315
0	472	1.684934154024	0.01403484713
0	478	1.698969001154	0.004496755631
0	482	1.703465756785	0.012424474778
0	488	1.715890231563	0.013628240717
0	493	1.72951847228	0.008689041912
0	498	1.738207514192	0.01597560491
0	503	1.754183119102	0.004952123662
0	507	1.759135242764	0.004838150175
0	512	1.763973392939	0.00641078186
0	517	1.770384174799	0.029276013573
0	523	1.799660188372	0.070934133095
0	528	1.870594321467	0.032936144646
0	533	1.903530466113	0.020578746731
0	538	1.924109212844	0.005033362205
0	542	1.929142575049	0.031206518231
0	548	1.96034909328	0.016162764071
0	553	1.976511857351	0.040225128496
0	558	2.016736985847	0.053697825473
0	563	2.07043481132	0.012144736938
0	568	2.082579548258	0.023908940346
0	573	2.106488488604	0.033017935239
0	578	2.139506423843	0.0029669698
0	582	2.142473393643	0.003028574601
0	585	2.145501968244	0.023033960567
0	593	2.168535928811	0.005676687283
0	597	2.174212616094	0.052662452312
0	603	2.226875068406	0.001154345526
0	607	2.228029413932	0.006760352617
0	612	2.234789766549	0.005893957847
0	615	2.240683724396	0.001379855405
0	620	2.242063579801	0.040991485835
0	628	2.283055065636	0.006320108871
0	632	2.289375174507	0.043079437003
0	638	2.33245461151	0.012698309651
0	644	2.345152921161	0.003253872391
0	648	2.348406793552	0.014979438581
0	654	2.363386232133	0.004957832267
0	658	2.3683440644	0.001017206821
0	661	2.369361271221	0.003030181166
0	666	2.372391452387	0.036606031638
0	674	2.408997484025	0.033575914793
0	679	2.442573398818	0.001392489416
0	683	2.443965888234	0.016628766843
0	689	2.460594655077	0.003335676693
0	693	2.46393033177	0.002846831282
0	696	2.466777163052	0.009578541023
0	703	2.476355704075	0.027719013856
0	709	2.504074717931	0.008724011337
0	714	2.512798729268	0.013032055948
0	719	2.525830785216	0.021757785638
0	724	2.547588570854	0.002567290402
0	728	2.550155861256	0.00019238148
0	731	2.550348242736	0.002183339259
0	734	2.552531581995	0.017122622943
0	741	2.569654204938	0.013183749529
0	748	2.582837954467	0.004836228079
0	753	2.587674182546	0.002639237659
0	756	2.590313420205	0.013894351762
0	763	2.604207771967	0.006861016907
0	768	2.611068788874	0.011843973997
0	774	2.622912762871	0.050265392068
0	779	2.673178154939	0.003531844589
0	783	2.676709999528	0.019622038359
0	789	2.696332037887	0.002194868874
0	793	2.698526906761	0.019531732844
0	799	2.718058639605	0.021990626604
0	804	2.740049266209	0.010621164187
0	809	2.750670430396	0.009653481628
0	814	2.760323912024	0.002030512294
0	818	2.762354424318	0.010981849874
0	823	2.773336274192	0.001319551251
0	826	2.774655825443	0.043287852364
0	834	2.817943677807	0.007676993236
0	839	2.825620671043	0.015472382486
0	844	2.841093053529	0.063798624231
0	849	2.90489167776	0.008650485445
0	854	2.913542163205	0.005871258371
0	858	2.919413421576	0.009348377028
0	864	2.928761798604	0.007394070502
0	868	2.936155869106	0.004291878303
0	873	2.940447747409	0.007361834124
0	878	2.947809581533	0.004451031439
0	883	2.952260612972	0.003700283266
0	886	2.955960896238	0.000348938362
0	889	2.9563098346	0.001973479691
0	892	2.958283314291	0.040413339272
0	904	2.998696653563	0.006584385993
0	908	3.005281039556	0.007470097202
0	913	3.012751136758	0.014425716132
0	919	3.02717685289	0.015674112537
0	924	3.042850965427	0.005761504825
0	928	3.048612470252	0.006618083065
0	933	3.055230553317	0.015129442161
0	939	3.070359995478	0.001755431588
0	943	3.072115427066	0.005989999587
0	948	3.078105426653	0.008928284686
0	953	3.087033711339	0.012517239255
0	958	3.099550950594	0.009492747469
0	964	3.109043698063	0.040992702194
0	969	3.150036400257	0.000898573031
0	973	3.150934973288	0.025571590475
0	980	3.176506563763	0.005123443877
0	984	3.18163000764	0.02111387991
0	990	3.20274388755	0.015794177064
0	995	3.218538064614	0.011372029578
0	1000	3.229910094192	0.002503320071
0	1004	3.232413414263	0.019367738773
0	1010	3.251781153036	0.011270261654
0	1015	3.26305141469	0.005067243896
0	1019	3.268118658586	0.017192564834
0	1025	3.28531122342	0.017956101676
0	1030	3.303267325096	0.018661488496
0	1035	3.321928813592	0.034264535486
0	1040	3.356193349078	0.02035783164
0	1045	3.376551180718	0.063955109262
0	1051	3.44050628998	0.007182632219
0	1055	3.447688922199	0.013176889432
0	1061	3.460865811631	0.021725713763
0	1066	3.482591525394	0.035211894998
0	1071	3.517803420392	0.000788931603
0	1075	3.518592351995	0.000293752816
0	1078	3.518886104811	0.036513712579
0	1086	3.55539981739	0.01099175037
0	1091	3.56639156776	0.008618280561
0	1096	3.575009848321	0.004565628381
0	1100	3.579575476702	0.015157021638
0	1106	3.59473249834	0.016095257879
0	1111	3.610827756219	0.025840845452
0	1116	3.636668601671	0.015820133005
0	1121	3.652488734676	0.002907598387
0	1125	3.655396333063	0.010903462121
0	1130	3.666299795184	0.012037451204
0	1136	3.678337246388	0.006164130796
0	1140	3.684501377184	0.011924596094
0	1146	3.696425973278	0.014307296851
0	1151	3.710733270129	0.0379475707
0	1156	3.748680840829	0.02670150991
0	1162	3.775382350739	0.016182984271
0	1167	3.79156533501	0.004977700262
0	1171	3.796543035272	0.01755317282
0	1177	3.814096208092	0.003003382171
0	1181	3.817099590263	0.005058248718
0	1186	3.822157838981	0.019982668581
0	1192	3.842140507562	0.034821759861
0	1197	3.876962267423	0.022170613569
0	1202	3.899132880992	0.000852108799
0	1206	3.899984989791	0.017800175372
0	1212	3.917785165163	0.008199282849
0	1217	3.925984448012	0.006516776332
0	1221	3.932501224344	0.023189595054
0	1227	3.955690819398	0.024171989469
0	1232	3.979862808867	0.039317876078
0	1237	4.019180684945	0.005556569208
0	1241	4.024737254153	0.002569669175
0	1246	4.027306923328	0.001057714825
0	1249	4.028364638153	0.012266522881
0	1254	4.040631161034	0.014681892977
0	1261	4.055313054011	0.00899954609
0	1266	4.064312600101	0.002524487862
0	1271	4.066837087963	0.020733660092
0	1277	4.087570748055	0.006305213602
0	1281	4.093875961657	0.027418914772
0	1287	4.121294876429	0.013848599908
0	1292	4.135143476337	0.000699687296
0	1296	4.135843163633	0.030352741707
0	1302	4.16619590534	0.010567462038
0	1307	4.176763367378	0.039353514634
0	1312	4.216116882012	0.013330673634
0	1317	4.229447555646	0.018465267742
0	1322	4.247912823388	0.000956375398
0	1326	4.248869198786	0.038353746503
0	1332	4.287222945289	0.000378571964
0	1336	4.287601517253	0.046178547487
0	1342	4.33378006474	0.013469011437
0	1347	4.347249076177	0.029299699958
0	1352	4.376548776135	0.020170250492
0	1357	4.396719026627	0.048983894859
0	1362	4.445702921486	0.000145967083
0	1366	4.445848888569	0.019147222085
0	1372	4.464996110654	0.060506926768
0	1377	4.525503037422	0.003712541193
0	1381	4.529215578615	0.000704701305
0	1384	4.52992027992	0.001231539357
0	1387	4.531151819277	0.012548512586
0	1394	4.543700331863	0.00780897901
0	1399	4.551509310873	0.001571282116
0	1402	4.553080592989	0.023141354311
0	1411	4.5762219473	0.006469522011
0	1416	4.582691469311	0.014258395353
0	1422	4.596949864664	0.007524605587
0	1426	4.604474470251	0.019178299634
0	1432	4.623652769885	0.007347778516
0	1436	4.631000548401	0.002095280154
0	1441	4.633095828555	0.007730015814
0	1446	4.640825844369	0.065273164161
0	1452	4.70609900853	0.039870943436
0	1457	4.745969951966	0.005278501988
0	1461	4.751248453954	0.042745335429
0	1467	4.793993789383	0.003977717995
0	1471	4.797971507378	0.0029811622
0	1474	4.800952669578	0.002629566751
0	1479	4.803582236329	0.019668533061
0	1486	4.82325076939	0.017319012802
0	1492	4.840569782192	0.017100012649
0	1497	4.857669794841	0.074941469793
0	1502	4.932611264634	0.032299342453
0	1507	4.964910607087	0.000880765658
0	1511	4.965791372745	0.013043793454
0	1516	4.978835166199	0.010479762584
0	1522	4.989314928783	0.017998441372
0	1537	5.007313370155	0.005737473411
0	1541	5.013050843566	0.004340947466
0	1546	5.017391791032	0.022164634903
0	1552	5.039556425935	0.025143167231
0	1557	5.064699593166	0.002369080304
0	1561	5.06706867347	0.012414182216
0	1566	5.079482855686	0.022500057813
0	1572	5.101982913499	0.005571859942
0	1576	5.107554773441	0.006635994271
0	1581	5.114190767712	0.007041285704
0	1586	5.121232053416	0.000467506478
0	1589	5.121699559894	0.025874103795
0	1597	5.147573663689	0.030581206773
0	1602	5.178154870462	0.035366645426
0	1607	5.213521515888	0.02283828636
0	1612	5.236359802248	0.037559268726
0	1618	5.273919070974	0.04464126353
0	1623	5.318560334504	0.002432136279
0	1627	5.320992470783	0.045779532559
0	1633	5.366772003342	0.021702134599
0	1638	5.388474137941	0.000886587363
0	1642	5.389360725304	0.006005911084
0	1645	5.395366636388	0.005285225286
0	1650	5.400651861674	0.03824518608
0	1658	5.438897047754	0.015841941661
0	1663	5.454738989415	0.007656333811
0	1667	5.462395323226	0.037971822435
0	1673	5.500367145661	0.002940487134
0	1677	5.503307632795	0.000473008619
0	1680	5.503780641414	0.001547751311
0	1683	5.505328392725	0.014598336759
0	1690	5.519926729484	0.001980509235
0	1693	5.521907238719	0.000898839499
0	1696	5.522806078218	0.014859437194
0	1703	5.537665515412	0.021617550307
0	1712	5.559283065719	0.009684178766
0	1717	5.568967244485	0.005070496591
0	1722	5.574037741076	0.018174484101
0	1728	5.592212225177	0.009199881849
0	1733	5.601412107026	0.001618168372
0	1737	5.603030275398	0.037010182228
0	1743	5.640040457626	0.001458854253
0	1747	5.641499311879	0.000196962307
0	1750	5.641696274186	0.019366785478
0	1757	5.661063059664	0.010505638232
0	1762	5.671568697896	0.006957857706
0	1767	5.678526555602	0.001175549418
0	1770	5.67970210502	0.005061373136
0	1775	5.684763478156	0.005954711213
0	1780	5.690718189369	0.031732464146
0	1788	5.722450653515	0.000520606787
0	1792	5.722971260302	0.000528137562
0	1795	5.723499397864	0.001467591172
0	1798	5.724966989036	0.00027559408
0	1801	5.725242583116	0.016728470969
0	1808	5.741971054085	0.005734631418
0	1813	5.747705685503	0.079766492476
0	1823	5.827472177979	0.007053134238
0	1827	5.834525312217	0.023564273029
0	1833	5.858089585246	0.086704925828
0	1838	5.944794511074	0.0013895903
0	1842	5.946184101374	0.025315221939
0	1848	5.971499323313	0.010875095548
0	1853	5.982374418861	0.015387546598
0	1858	5.997761965459	0.034362778967
0	1863	6.032124744426	0.00250128353
0	1867	6.034626027956	0.005422102865
0	1870	6.040048130821	0.019810922432
0	1879	6.059859053253	0.007286161572
0	1883	6.067145214825	0.006909899896
0	1888	6.074055114721	0.005758627801
0	1893	6.079813742522	0.000253099604
0	1896	6.080066842126	0.006994649985
0	1901	6.087061492111	0.028758432335
0	1909	6.115819924446	0.013922788482
0	1914	6.129742712928	0.005554893175
0	1918	6.135297606103	0.005542612347
0	1923	6.14084021845	0.012414828967
0	1928	6.153255047417	0.045288905578
0	1934	6.198543952995	0.001430040978
0	1938	6.199973993973	0.007094848679
0	1943	6.207068842652	0.02359670414
0	1949	6.230665546792	0.008699942916
0	1954	6.239365489708	0.000444668669
0	1958	6.239810158377	0.005185454537
0	1961	6.244995612914	0.000860094368
0	1964	6.245855707282	0.012979949146
0	1971	6.258835656428	0.019113237965
0	1978	6.277948894393	0.004558041967
0	1983	6.28250693636	0.000474984986
0	1986	6.282981921346	0.017565318468
0	1993	6.300547239814	0.009884112881
0	1998	6.310431352695	0.015691502104
0	2004	6.326122854799	0.018647444571
0	2009	6.34477029937	0.031241396413
0	2014	6.376011695783	0.009823464442
0	2019	6.385835160225	0.013686842917
0	2024	6.399522003142	0.024217968499
0	2029	6.423739971641	0.030799967538
0	2034	6.454539939179	0.011940133475
0	2039	6.466480072654	0.0399671725
0	2045	6.506447245154	0.021361761028
0	2050	6.527809006182	0.006837907124
0	2054	6.534646913306	0.00017444084
0	2057	6.534821354146	0.004270623032
0	2062	6.539091977178	0.039633524513
0	2070	6.578725501691	0.005442179469
0	2074	6.58416768116	0.014455043069
0	2080	6.598622724229	0.002994419305
0	2084	6.601617143534	0.024211633757
0	2090	6.625828777291	0.029081904304
0	2095	6.654910681595	0.000180370924
0	2099	6.655091052519	1.8900259e-005
0	2102	6.655109952778	0.012430228432
0	2107	6.66754018121	0.056500908705
0	2115	6.724041089915	0.003455762654
0	2119	6.727496852569	0.012215655344
0	2125	6.739712507913	0.004735901361
0	2129	6.744448409274	0.004983319143
0	2134	6.749431728417	0.007197750227
0	2139	6.756629478644	0.004073920071
0	2142	6.760703398715	0.106077675739
0	2150	6.866781074454	0.010703249803
0	2155	6.877484324257	0.069267401332
0	2160	6.946751725589	0.013744725599
0	2165	6.960496451188	0.021649589945
0	2170	6.982146041133	0.002732000891
0	2174	6.984878042024	0.001118163227
0	2177	6.985996205251	0.00806030027
0	2182	6.994056505521	0.05476099601
0	2190	7.048817501531	0.003247498495
0	2194	7.052065000026	0.063536919352
0	2200	7.115601919378	0.015201659072
0	2205	7.13080357845	0.004120387349
0	2209	7.134923965799	0.008979396327
0	2214	7.143903362126	0.010427739899
0	2220	7.154331102025	0.006128472848
0	2224	7.160459574873	0.017843038674
0	2230	7.178302613547	0.005051645751
0	2234	7.183354259298	0.004622098222
0	2239	7.18797635752	0.001472316794
0	2242	7.189448674314	0.050475739992
0	2251	7.239924414306	0.005335204276
0	2255	7.245259618582	0.011181909545
0	2261	7.256441528127	0.002957239492
0	2265	7.259398767619	0.010624523339
0	2270	7.270023290958	0.007094319116
0	2275	7.277117610074	0.008660713504
0	2281	7.285778323578	0.017844017427
0	2286	7.303622341005	0.000151726347
0	2290	7.303774067352	0.007460772001
0	2295	7.311234839353	0.028673714797
0	2301	7.33990855415	0.008061312233
0	2306	7.347969866383	0.017149177815
0	2311	7.365119044198	0.015870901012
0	2316	7.38098994521	0.0465639252
0	2321	7.42755387041	0.046170389536
0	2326	7.473724259946	0.004243834664
0	2330	7.47796809461	0.054685173425
0	2336	7.532653268035	0.002238516527
0	2340	7.534891784562	0.008372706946
0	2345	7.543264491508	0.016969422752
0	2351	7.56023391426	0.001800083058
0	2355	7.562033997318	0.015138569303
0	2361	7.577172566621	0.040551512488
0	2366	7.617724079109	0.014259866945
0	2371	7.631983946054	0.003458053905
0	2375	7.635441999959	0.038802635843
0	2381	7.674244635802	0.006100725716
0	2385	7.680345361518	0.000924895564
0	2388	7.681270257082	0.052725202499
0	2396	7.733995459581	0.019191431538
0	2401	7.753186891119	0.009390317418
0	2406	7.762577208537	0.05459740217
0	2411	7.817174610707	0.006501563857
0	2415	7.823676174564	0.001007208726
0	2420	7.82468338329	0.038440160687
0	2426	7.863123543977	0.013519663748
0	2431	7.876643207725	0.003272272379
0	2435	7.879915480104	0.002585247563
0	2438	7.882500727667	0.009029533105
0	2445	7.891530260772	0.078520978177
0	2452	7.970051238949	0.015226482365
0	2457	7.985277721314	0.006812501059
0	2461	7.992090222373	0.028708155348
0	2467	8.020798377721	0.079656999116
0	2472	8.100455376837	0.025905970697
0	2477	8.126361347534	0.005863881662
0	2481	8.132225229196	0.008608911602
0	2487	8.140834140798	0.008177575416
0	2492	8.149011716214	0.018784485593
0	2497	8.167796201807	0.000742377248
0	2501	8.168538579055	0.002090828485
0	2504	8.17062940754	0.006867880739
0	2509	8.177497288279	0.015805334485
0	2516	8.193302622764	0.002727623095
0	2519	8.196030245859	0.040575376877
0	2527	8.236605622736	0.002616103677
0	2531	8.239221726413	0.010209794556
0	2536	8.249431520969	0.007079503059
0	2541	8.256511024028	0.025353959569
0	2547	8.281864983597	0.003847828754
0	2551	8.285712812351	0.000773037582
0	2554	8.286485849933	0.005191398948
0	2559	8.291677248881	0.000794721152
0	2562	8.292471970033	0.008134894405
0	2567	8.300606864438	0.001503107983
0	2570	8.302109972421	0.024587024655
0	2581	8.326696997076	0.001077277819
0	2584	8.327774274895	0.000165834469
0	2587	8.327940109364	0.010749485395
0	2592	8.338689594759	0.002430910913
0	2597	8.341120505672	0.001116037137
0	2600	8.342236542809	0.05743692622
0	2612	8.399673469029	0.007572991467
0	2617	8.407246460496	0.000627190657
0	2621	8.407873651153	0.000710555453
0	2624	8.408584206606	3.280948e-006
0	2627	8.408587487554	0.003195577558
0	2630	8.411783065112	0.03040919027
0	2642	8.442192255382	0.014954991495
0	2648	8.457147246877	0.032449463331
0	2653	8.489596710208	0.027775707851
0	2658	8.517372418059	0.015862482018
0	2663	8.533234900077	0.001695633464
0	2667	8.534930533541	0.002805995793
0	2670	8.537736529334	0.035104222173
0	2678	8.572840751507	0.000245380317
0	2682	8.573086131824	0.006025042848
0	2685	8.579111174672	0.002336423507
0	2690	8.581447598179	0.039278119149
0	2698	8.620725717328	0.002805974794
0	2702	8.623531692122	0.017709447146
0	2708	8.641241139268	0.033504234598
0	2713	8.674745373866	0.002104944648
0	2717	8.676850318514	0.003347592085
0	2720	8.680197910599	0.010268599297
0	2727	8.690466509896	0.009443024978
0	2732	8.699909534874	0.001495978937
0	2735	8.701405513811	0.002524895568
0	2740	8.703930409379	0.021757965499
0	2748	8.725688374878	0.003181726631
0	2752	8.728870101509	0.002861642865
0	2755	8.731731744374	0.006533533839
0	2760	8.738265278213	0.003693786163
0	2765	8.741959064376	0.00205651494
0	2768	8.744015579316	0.010344382548
0	2773	8.754359961864	0.007731414522
0	2780	8.762091376386	0.000755671526
0	2783	8.762847047912	0.028542649129
0	2793	8.791389697041	0.013577959868
0	2798	8.804967656909	0.004898685366
0	2802	8.809866342275	0.026342218862
0	2808	8.836208561137	0.008298259501
0	2813	8.844506820638	0.013474631776
0	2818	8.857981452414	0.019227194759
0	2823	8.877208647173	0.071971100419
0	2828	8.949179747592	0.016020135552
0	2833	8.965199883144	0.017387045077
0	2838	8.982586928221	0.005769032646
0	2842	8.988355960867	0.003571064866
0	2847	8.991927025733	0.001476694122
0	2850	8.993403719855	0.004634766125
0	2855	8.99803848598	0.000503912346
0	2858	8.998542398326	0.000516982464
0	2861	8.99905938079	0.013421774284
0	2868	9.012481155074	0.001424660573
0	2871	9.013905815647	0.002408895456
0	2874	9.016314711103	0.039782949076
0	2888	9.056097660179	0.004747677517
0	2892	9.060845337696	0.015768865814
0	2898	9.07661420351	0.060662847301
0	2903	9.137277050811	0.005384974823
0	2907	9.142662025634	0.026454183269
0	2913	9.169116208903	0.001275599678
0	2917	9.170391808581	0.067775096124
0	2923	9.238166904705	0.001422278787
0	2927	9.239589183492	0.074565655109
0	2933	9.314154838601	0.025961366788
0	2938	9.340116205389	0.012412085801
0	2943	9.35252829119	0.008671657518
0	2948	9.361199948708	0.003366096404
0	2952	9.364566045112	0.00559246948
0	2957	9.370158514592	0.008333848032
0	2962	9.378492362624	0.070807273809
0	2968	9.449299636433	0.006203403054
0	2972	9.455503039487	0.007038186767
0	2977	9.462541226254	0.036044197019
0	2983	9.498585423273	0.010311095646
0	2988	9.508896518919	0.007879234661
0	2993	9.51677575358	0.001789841487
0	2997	9.518565595067	0.000107908021
0	3000	9.518673503088	0.000507702028
0	3003	9.519181205116	0.011896375932
0	3008	9.531077581048	0.014792013066
0	3017	9.545869594114	0.001878881687
0	3020	9.547748475801	0.006237643096
0	3025	9.553986118897	0.01807833413
0	3032	9.572064453027	0.004702825546
0	3037	9.576767278573	9.9239043e-005
0	3040	9.576866517616	0.003242871434
0	3043	9.58010938905	0.014432802161
0	3050	9.594542191211	0.010380759826
0	3057	9.604922951037	0.009175032439
0	3062	9.614097983476	0.071993193131
0	3068	9.686091176607	0.002810606051
0	3072	9.688901782658	0.016285908089
0	3078	9.705187690747	0.017057001025
0	3083	9.722244691772	0.034639924856
0	3088	9.756884616628	0.00117295512
0	3092	9.758057571748	0.054175004941
0	3098	9.812232576689	0.007369689763
0	3103	9.819602266452	0.003238611528
0	3107	9.82284087798	0.004833829843
0	3112	9.827674707823	0.000232236457
0	3115	9.82790694428	0.004714735573
0	3118	9.832621679853	0.009004888263
0	3125	9.841626568116	0.041872888521
0	3133	9.883499456637	0.036689767145
0	3138	9.920189223782	0.022612226662
0	3143	9.942801450444	0.029689688852
0	3148	9.972491139296	0.02267697019
0	3153	9.995168109486	0.040319834866
0	3158	10.035487944352	0.001787505543
0	3162	10.037275449895	0.000505957221
0	3165	10.037781407116	0.000421328195
0	3168	10.038202735311	0.037200125538
0	3178	10.075402860849	0.007939489149
0	3183	10.083342349998	0.00168982382
0	3187	10.085032173818	0.030010294892
0	3193	10.11504246871	0.002786543284
0	3197	10.117829011994	0.014403992482
0	3203	10.132233004476	0.045221316461
0	3208	10.177454320937	0.022403967782
0	3213	10.199858288719	0.026412069629
0	3218	10.226270358348	0.007324788318
0	3222	10.233595146666	0.030445433701
0	3228	10.264040580367	0.006917534071
0	3232	10.270958114438	0.037366556261
0	3238	10.308324670699	0.017673123326
0	3243	10.325997794025	0.009557111527
0	3248	10.335554905552	0.000670339139
0	3252	10.336225244691	0.00990807848
0	3257	10.346133323171	0.0173734649
0	3263	10.363506788071	0.000361410761
0	3267	10.363868198832	0.06478311763
0	3273	10.428651316462	0.020475039829
0	3278	10.449126356291	0.001180895457
0	3282	10.450307251748	0.008715210592
0	3287	10.45902246234	0.020405492628
0	3293	10.479427954968	0.014522202955
0	3298	10.493950157923	0.012938741965
0	3303	10.506888899888	0.008849096261
0	3308	10.515737996149	0.004893199805
0	3312	10.520631195954	0.018091234782
0	3318	10.538722430736	0.021990684445
0	3323	10.560713115181	0.100293898081
0	3328	10.661007013262	0.014292597866
0	3333	10.675299611128	0.025693561155
0	3338	10.700993172283	0.043143516359
0	3343	10.744136688642	0.016861021388
0	3348	10.76099771003	0.010795325307
0	3353	10.771793035337	0.006204476267
0	3357	10.777997511604	0.018291467616
0	3363	10.79628897922	0.017155414089
0	3368	10.813444393309	0.019648036743
0	3373	10.833092430052	0.009571185779
0	3378	10.842663615831	0.001187661223
0	3382	10.843851277054	0.001262589505
0	3385	10.845113866559	0.002239651533
0	3388	10.847353518092	0.020791613078
0	3397	10.86814513117	0.010173692714
0	3402	10.878318823884	0.016616177472
0	3408	10.894935001356	0.002921276461
0	3412	10.897856277817	0.000345442759
0	3415	10.898201720576	0.004728745501
0	3420	10.902930466077	0.000997865832
0	3423	10.903928331909	0.005293975718
0	3426	10.909222307627	0.024571861662
0	3437	10.933794169289	0.005731239201
0	3440	10.93952540849	0.014351200314
0	3447	10.953876608804	0.018252372241
0	3453	10.972128981045	0.010459643642
0	3458	10.982588624687	0.000112376101
0	3462	10.982701000788	0.010174613247
0	3467	10.992875614035	0.019148814482
0	3473	11.012024428517	0.004031908296
0	3477	11.016056336813	0.042904757019
0	3483	11.058961093832	0.018089793841
0	3488	11.077050887673	0.00658915406
0	3492	11.083640041733	0.030387739901
0	3498	11.114027781634	0.018736250225
0	3503	11.132764031859	0.016241017852
0	3508	11.149005049711	0.006271398031
0	3512	11.155276447742	0.013404402763
0	3518	11.168680850505	0.063623990708
0	3523	11.232304841213	0.002082122313
0	3527	11.234386963526	0.003789540107
0	3530	11.238176503633	0.020780390907
0	3538	11.25895689454	0.002769731128
0	3542	11.261726625668	0.014916782172
0	3548	11.27664340784	0.00942226346
0	3553	11.2860656713	0.023904323104
0	3558	11.309969994404	0.020794896741
0	3563	11.330764891145	0.00667941072
0	3567	11.337444301865	0.009266588818
0	3573	11.346710890683	0.003922228503
0	3577	11.350633119186	0.010983225055
0	3582	11.361616344241	0.010966250783
0	3588	11.372582595024	0.01404252321
0	3593	11.386625118234	0.000315859996
0	3597	11.38694097823	0.009135636133
0	3602	11.396076614363	0.041964120055
0	3608	11.438040734418	0.025283254487
0	3613	11.463323988905	0.004275224543
0	3617	11.467599213448	0.005484384292
0	3622	11.47308359774	0.001915179019
0	3625	11.474998776759	0.004852750785
0	3630	11.479851527544	0.005424544415
0	3633	11.485276071959	0.006738463043
0	3638	11.492014535002	0.001023838075
0	3641	11.493038373077	0.02559166863
0	3652	11.518630041707	0.002210078024
0	3655	11.520840119731	0.03996943012
0	3663	11.560809549851	0.032878819834
0	3668	11.593688369685	0.017008482234
0	3673	11.610696851919	0.001846112408
0	3677	11.612542964327	0.040332571771
0	3683	11.652875536098	0.0300535992
0	3688	11.682929135298	0.015710526935
0	3693	11.698639662233	0.002073371675
0	3697	11.700713033908	0.01066982446
0	3702	11.711382858368	0.036330549174
0	3708	11.747713407542	0.008715568664
0	3713	11.756428976206	0.006842681171
0	3717	11.763271657377	0.001044474379
0	3722	11.764316131756	0.010734516645
0	3727	11.775050648401	0.024058698842
0	3733	11.799109347243	0.019468127884
0	3738	11.818577475127	0.000418793463
0	3742	11.81899626859	0.000713333887
0	3745	11.819709602477	0.016236854247
0	3752	11.835946456724	0.011096232604
0	3757	11.847042689328	0.015607071051
0	3763	11.862649760379	0.02010151778
0	3768	11.882751278159	0.024069117652
0	3773	11.906820395811	0.01031745775
0	3778	11.917137853561	0.003844376427
0	3782	11.920982229988	0.014706876599
0	3788	11.935689106587	0.002466302137
0	3792	11.938155408724	0.004978489209
0	3795	11.943133897933	0.012688330647
0	3803	11.95582222858	0.0127458537
0	3809	11.96856808228	0.033599150966
0	3814	12.002167233246	0.013572051098
0	3819	12.015739284344	0.003120760503
0	3823	12.018860044847	0.020793838641
0	3829	12.039653883488	0.00212112403
0	3833	12.041775007518	0.003912507244
0	3836	12.045687514762	0.005822872629
0	3842	12.051510387391	0.009258485574
0	3847	12.060768872965	0.039183776057
0	3855	12.099952649022	0.00454575373
0	3859	12.104498402752	0.001751570315
0	3862	12.106249973067	0.018872853262
0	3870	12.125122826329	0.00113127605
0	3874	12.126254102379	0.005552691928
0	3877	12.131806794307	0.015248071978
0	3884	12.147054866285	0.037817807597
0	3890	12.184872673882	0.007351652044
0	3894	12.192224325926	0.011081651516
0	3900	12.203305977442	0.003928863835
0	3904	12.207234841277	0.009729533347
0	3909	12.216964374624	0.008361410236
0	3914	12.22532578486	0.016583488286
0	3920	12.241909273146	0.000158300994
0	3924	12.24206757414	0.036697122676
0	3930	12.278764696816	0.012310070934
0	3935	12.29107476775	0.010967628453
0	3940	12.302042396203	0.002202411347
0	3944	12.30424480755	0.026633539346
0	3950	12.330878346896	0.003485696318
0	3954	12.334364043214	0.002114976189
0	3957	12.336479019403	0.008734316524
0	3962	12.345213335927	4.7050829e-005
0	3965	12.345260386756	0.027709475029
0	3975	12.372969861785	0.009704345694
0	3980	12.382674207479	0.00188911729
0	3984	12.384563324769	0.02104911812
0	3990	12.405612442889	0.03771661195
0	3995	12.443329054839	0.011868109727
0	4000	12.455197164566	0.031488094809
0	4005	12.486685259375	0.013976670036
0	4010	12.500661929411	0.048917572393
0	4015	12.549579501804	0.043414356657
0	4020	12.592993858461	0.005994293169
0	4024	12.59898815163	0.030093592007
0	4030	12.629081743637	0.017396403804
0	4035	12.646478147441	0.001998762004
0	4039	12.648476909445	0.006365042852
0	4044	12.654841952297	0.03259374217
0	4050	12.687435694467	0.009100509646
0	4055	12.696536204113	0.01925335186
0	4060	12.715789555973	0.011355437095
0	4065	12.727144993068	0.023899631386
0	4070	12.751044624454	0.003258433696
0	4074	12.75430305815	0.000623359846
0	4077	12.754926417996	0.001080795688
0	4080	12.756007213684	0.004493686431
0	4085	12.760500900115	0.002597661488
0	4088	12.763098561603	0.033558436902
0	4099	12.796656998505	0.009415248135
0	4105	12.80607224664	0.041968024419
0	4110	12.848040271059	0.014490857312
0	4115	12.862531128371	0.012588672962
0	4120	12.875119801333	0.00517753917
0	4124	12.880297340503	0.020017799433
0	4130	12.900315139936	0.00170061216
0	4134	12.902015752096	0.027948810744
0	4140	12.92996456284	0.004181864359
0	4144	12.934146427199	0.023381257791
0	4150	12.95752768499	0.085879730623
0	4155	13.043407415613	0.026769935355
0	4160	13.070177350968	0.003887847872
0	4164	13.07406519884	0.010760549168
0	4169	13.084825748008	0.003863304759
0	4174	13.088689052767	0.008356048126
0	4179	13.097045100893	0.030546920491
0	4185	13.127592021384	0.000831898971
0	4189	13.128423920355	0.008175199393
0	4194	13.136599119748	0.002691213414
0	4197	13.139290333162	0.004315087207
0	4202	13.143605420369	0.008216671484
0	4207	13.151822091853	0.010103006376
0	4212	13.161925098229	0.014682255198
0	4219	13.176607353427	0.027596771896
0	4225	13.204204125323	0.002709313972
0	4229	13.206913439295	0.006912846704
0	4234	13.213826285999	0.054068132423
0	4240	13.267894418422	0.038698725522
0	4245	13.306593143944	0.002761262737
0	4249	13.309354406681	0.078578937024
0	4257	13.387933343705	0.001223630338
0	4261	13.389156974043	0.007283208368
0	4266	13.396440182411	0.009094573896
0	4271	13.405534756307	0.022484706376
0	4277	13.428019462683	0.000281935097
0	4281	13.42830139778	0.027139805131
0	4287	13.455441202911	0.021018882022
0	4292	13.476460084933	0.000121224617
0	4296	13.47658130955	0.023260983583
0	4302	13.499842293133	0.006601636474
0	4306	13.506443929607	0.000847183596
0	4309	13.507291113203	0.013064919691
0	4316	13.520356032894	0.00357600956
0	4321	13.523932042454	0.015461334608
0	4327	13.539393377062	0.011040427788
0	4332	13.55043380485	0.028746468811
0	4337	13.579180273661	0.002724188222
0	4341	13.581904461883	0.009523599849
0	4346	13.591428061732	0.03151335324
0	4352	13.622941414972	0.009258333021
0	4357	13.632199747993	0.003525647823
0	4361	13.635725395816	0.007358478318
0	4366	13.643083874134	0.005907476404
0	4371	13.648991350538	0.007356006011
0	4376	13.656347356549	0.015073257217
0	4382	13.671420613766	0.009505189518
0	4387	13.680925803284	0.014283580271
0	4392	13.695209383555	0.002290393982
0	4396	13.697499777537	0.036296461475
0	4402	13.733796239012	0.010761242925
0	4407	13.744557481937	0.055780408415
0	4413	13.800337890352	0.00879650444
0	4418	13.809134394792	0.04185191605
0	4423	13.850986310842	0.000292967228
0	4427	13.85127927807	0.021938671142
0	4433	13.873217949212	0.003040078817
0	4437	13.876258028029	0.018210590024
0	4443	13.894468618053	0.006047036097
0	4447	13.90051565415	0.002257350506
0	4452	13.902773004656	0.002906892209
0	4455	13.905679896865	0.021869966134
0	4463	13.927549862999	0.004058407453
0	4467	13.931608270452	0.002965960759
0	4470	13.934574231211	0.015361183942
0	4477	13.949935415153	0.008667746904
0	4483	13.958603162057	0.009956086758
0	4488	13.968559248815	0.01642500165
0	4493	13.984984250465	0.02684348407
0	4498	14.011827734535	0.061374809069
0	4503	14.073202543604	0.009037756025
0	4508	14.082240299629	0.005739398154
0	4512	14.087979697783	0.004628534202
0	4517	14.092608231985	0.081524790022
0	4523	14.174133022007	0.005800696395
0	4527	14.179933718402	0.002469494711
0	4532	14.182403213113	0.018315420444
0	4538	14.200718633557	0.002680608199
0	4542	14.203399241756	0.004626436108
0	4545	14.208025677864	0.033012624565
0	4553	14.241038302429	0.023074111517
0	4558	14.264112413946	0.010254656706
0	4563	14.274367070652	0.031685894542
0	4568	14.306052965194	0.024568000878
0	4573	14.330620966072	0.000407189053
0	4577	14.331028155125	0.014626625234
0	4582	14.345654780359	0.000415242191
0	4587	14.34607002255	0.02179841254
0	4593	14.36786843509	0.000155504035
0	4597	14.368023939125	0.029288694027
0	4603	14.397312633152	0.039364762579
0	4609	14.436677395731	0.015455130957
0	4614	14.452132526688	0.011333449163
0	4619	14.463465975851	0.014287569909
0	4624	14.47775354576	0.001844882026
0	4628	14.479598427786	0.006249523791
0	4633	14.485847951577	0.00553182961
0	4636	14.491379781187	0.012508710662
0	4643	14.503888491849	0.01930771784
0	4649	14.523196209689	0.004131965142
0	4653	14.527328174831	0.012227912195
0	4659	14.539556087026	0.019648659769
0	4664	14.559204746795	0.004892274049
0	4668	14.564097020844	0.00775815222
0	4673	14.571855173064	0.017236745904
0	4679	14.589091918968	0.010927668351
0	4684	14.600019587319	0.033531762857
0	4689	14.633551350176	0.01556878691
0	4694	14.649120137086	0.008101224873
0	4699	14.657221361959	0.012650243608
0	4704	14.669871605567	0.03886273643
0	4710	14.708734341997	0.007982320063
0	4715	14.71671666206	0.001930104512
0	4719	14.718646766572	0.02131859865
0	4725	14.739965365222	0.009074508896
0	4730	14.749039874118	0.002928993149
0	4734	14.751968867267	0.021976108216
0	4740	14.773944975483	0.000843633599
0	4744	14.774788609082	0.041748797642
0	4750	14.816537406724	0.011292574634
0	4755	14.827829981358	0.015136947131
0	4760	14.842966928489	0.000942533237
0	4764	14.843909461726	0.063901122046
0	4770	14.907810583772	0.030168075068
0	4775	14.93797865884	0.003415263087
0	4779	14.941393921927	0.006949139728
0	4784	14.948343061655	0.005130847341
0	4787	14.953473908996	0.002508684151
0	4792	14.955982593147	0.020348931378
0	4799	14.976331524525	0.010284909082
0	4805	14.986616433607	0.002035668115
0	4809	14.988652101722	0.002639522844
0	4812	14.991291624566	0.006080415682
0	4817	14.997372040248	0.000933351539
0	4820	14.998305391787	0.009875969215
0	4825	15.008181361002	0.006472412455
0	4830	15.014653773457	0.022059415486
0	4839	15.036713188943	0.012556303257
0	4845	15.0492694922	0.00267305815
0	4849	15.05194255035	0.009478352534
0	4854	15.061420902884	0.042296620859
0	4860	15.103717523743	0.004351951703
0	4864	15.108069475446	0.025317793882
0	4870	15.133387269328	0.008483483905
0	4875	15.141870753233	0.006736626442
0	4879	15.148607379675	0.003745918469
0	4884	15.152353298144	0.030829336363
0	4890	15.183182634507	0.001149314827
0	4894	15.184331949334	0.003547092496
0	4897	15.18787904183	0.013508102672
0	4905	15.201387144502	0.01513746084
0	4911	15.216524605342	0.005998623855
0	4915	15.222523229197	0.03732194633
0	4921	15.259845175527	0.003345078228
0	4925	15.263190253755	0.002427215546
0	4928	15.265617469301	0.002142511224
0	4933	15.267759980525	0.00822366856
0	4938	15.275983649085	0.028474185959
0	4946	15.304457835044	0.017845184913
0	4951	15.322303019957	0.002468017262
0	4955	15.324771037219	0.005918617591
0	4960	15.33068965481	0.03498390956
0	4966	15.36567356437	0.00046755278
0	4970	15.36614111715	0.012845739751
0	4975	15.378986856901	0.016278846392
0	4981	15.395265703293	0.005221637003
0	4985	15.400487340296	0.001076091781
0	4988	15.401563432077	0.0207579219
0	4997	15.422321353977	0.013301757181
0	5002	15.435623111158	0.017249398677
0	5007	15.452872509835	0.001562066637
0	5011	15.454434576472	0.03754221353
0	5017	15.491976790002	0.029332043407
0	5022	15.521308833409	0.00204526214
0	5026	15.523354095549	0.022237915876
0	5032	15.545592011425	0.035102173813
0	5037	15.580694185238	0.009814532125
0	5042	15.590508717363	0.004468634011
0	5046	15.594977351374	0.001020847016
0	5049	15.59599819839	0.00647382969
0	5054	15.60247202808	0.013052310592
0	5061	15.615524338672	0.005021167901
0	5064	15.620545506573	0.003503314919
0	5069	15.624048821492	0.004348448497
0	5074	15.628397269989	0.008108206998
0	5080	15.636505476987	0.010372401
0	5085	15.646877877987	0.003731088901
0	5088	15.650608966888	0.011428206848
0	5095	15.662037173736	0.000322643739
0	5098	15.662359817475	0.003307347898
0	5101	15.665667165373	9.114892e-005
0	5104	15.665758314293	0.030018623203
0	5115	15.695776937496	0.016808636259
0	5123	15.712585573755	0.034797397528
0	5128	15.747382971283	0.021012343361
0	5133	15.768395314644	0.006908507239
0	5137	15.775303821883	0.012951828826
0	5143	15.788255650709	0.003074601053
0	5147	15.791330251762	0.005652575079
0	5152	15.796982826841	0.004819057463
0	5155	15.801801884304	0.049973768188
0	5163	15.851775652492	0.011812030325
0	5168	15.863587682817	0.034287346533
0	5173	15.89787502935	0.000945165947
0	5177	15.898820195297	0.020022540098
0	5183	15.918842735395	0.014875830839
0	5188	15.933718566234	0.016614302526
0	5193	15.95033286876	0.000655147752
0	5197	15.950988016512	0.013536060671
0	5202	15.964524077183	0.016139759618
0	5208	15.980663836801	0.007251963261
0	5212	15.987915800062	0.004372451283
0	5217	15.992288251345	0.011014517296
0	5222	16.003302768641	0.000652625559
0	5227	16.0039553942	0.027390784869
0	5233	16.031346179069	0.024760397166
0	5238	16.056106576235	0.001812625011
0	5242	16.057919201246	0.013502745955
0	5248	16.071421947201	0.00705582105
0	5252	16.078477768251	0.023824001528
0	5258	16.102301769779	0.012520521849
0	5263	16.114822291628	0.011408753458
0	5268	16.126231045086	0.006666689109
0	5272	16.132897734195	0.00929905146
0	5278	16.142196785655	0.010307601313
0	5283	16.152504386968	0.004525080874
0	5287	16.157029467842	0.008476622239
0	5292	16.165506090081	0.01949383209
0	5298	16.184999922171	0.011086286821
0	5303	16.196086208992	0.002799882284
0	5307	16.198886091276	0.042458032677
0	5313	16.241344123953	0.002543176169
0	5317	16.243887300122	0.008808304866
0	5322	16.252695604988	0.000884709906
0	5325	16.253580314894	0.038868172376
0	5333	16.29244848727	0.001390641011
0	5337	16.293839128281	0.004639037511
0	5340	16.298478165792	0.019278462379
0	5348	16.317756628171	0.00344137499
0	5352	16.321198003161	0.006134498736
0	5357	16.327332501897	0.008053959354
0	5362	16.335386461251	0.001027216473
0	5365	16.336413677724	0.0027422561
0	5368	16.339155933824	0.004845625469
0	5373	16.344001559293	0.019705297707
0	5382	16.363706857	0.007634600274
0	5387	16.371341457274	0.005204529065
0	5390	16.376545986339	0.009027922113
0	5395	16.385573908452	0.006362466473
0	5400	16.391936374925	0.019014460022
0	5408	16.410950834947	0.068964965955
0	5413	16.479915800902	0.017522285519
0	5418	16.497438086421	0.009156968503
0	5423	16.506595054924	0.054628817566
0	5428	16.56122387249	0.002673673516
0	5432	16.563897546006	0.000834280138
0	5435	16.564731826144	0.021710125201
0	5443	16.586441951345	0.050181081399
0	5449	16.636623032744	0.00588735236
0	5453	16.642510385104	0.021845449936
0	5459	16.66435583504	0.014291737745
0	5464	16.678647572785	0.004449493017
0	5468	16.683097065802	0.0058192357
0	5473	16.688916301502	0.011876275626
0	5478	16.700792577128	0.005176804717
0	5483	16.705969381845	0.014087701105
0	5490	16.72005708295	0.034741239938
0	5495	16.754798322888	0.022327960314
0	5500	16.777126283202	0.031042513951
0	5505	16.808168797153	0.013171788296
0	5510	16.821340585449	0.006061963797
0	5514	16.827402549246	0.00056030877
0	5517	16.827962858016	0.00435226868
0	5522	16.832315126696	0.004193296476
0	5525	16.836508423172	0.012094829169
0	5532	16.848603252341	0.012328975731
0	5539	16.860932228072	0.055053784624
0	5545	16.915986012696	0.049070348634
0	5550	16.96505636133	0.006918098274
0	5554	16.971974459604	0.007947646527
0	5559	16.979922106131	0.013122876656
0	5565	16.993044982787	0.002611473857
0	5569	16.995656456644	0.020102579845
0	5575	17.015759036489	0.004508989196
0	5579	17.020268025685	0.024104943591
0	5585	17.044372969276	0.033638063476
0	5590	17.078011032752	0.030936571946
0	5595	17.108947604698	0.006918295773
0	5599	17.115865900471	0.006074589184
0	5604	17.121940489655	0.003169081539
0	5609	17.125109571194	0.007400230976
0	5614	17.13250980217	0.001525468319
0	5617	17.134035270489	0.017701892418
0	5624	17.151737162907	0.008689312288
0	5629	17.160426475195	0.006642246136
0	5634	17.167068721331	0.015553050103
0	5640	17.182621771434	0.001065891606
0	5644	17.18368766304	0.008862863781
0	5649	17.192550526821	0.004457085182
0	5652	17.197007612003	0.014975176097
0	5659	17.2119827881	0.010111477372
0	5665	17.222094265472	0.006721544552
0	5669	17.228815810024	0.008350199376
0	5674	17.2371660094	0.050228270663
0	5680	17.287394280063	0.003305339587
0	5684	17.29069961965	0.038317549711
0	5690	17.329017169361	0.007381940906
0	5694	17.336399110267	0.013303097355
0	5700	17.349702207622	0.019622910804
0	5705	17.369325118426	0.028894614783
0	5710	17.398219733209	0.048505861017
0	5715	17.446725594226	0.036945808281
0	5720	17.483671402507	0.019444497297
0	5725	17.503115899804	0.0241028494
0	5730	17.527218749204	0.003509843519
0	5734	17.530728592723	0.012497469523
0	5740	17.543226062246	0.003638788107
0	5744	17.546864850353	0.003185683901
0	5747	17.550050534254	0.008684634166
0	5754	17.55873516842	0.014015806068
0	5759	17.572750974488	0.005659145057
0	5764	17.578410119545	0.000503101223
0	5767	17.578913220768	0.001132219251
0	5770	17.580045440019	0.013234257128
0	5777	17.593279697147	0.012216075653
0	5784	17.6054957728	0.027310573923
0	5790	17.632806346723	0.000840283949
0	5794	17.633646630672	0.000494695679
0	5797	17.634141326351	0.016013295219
0	5804	17.65015462157	0.027812537837
0	5810	17.677967159407	3.2406905e-005
0	5814	17.677999566312	0.009703535784
0	5819	17.687703102096	0.015012543026
0	5825	17.702715645122	0.00070340831
0	5829	17.703419053432	0.026003797477
0	5835	17.729422850909	0.013925242708
0	5840	17.743348093617	0.008600006771
0	5845	17.751948100388	0.009259575281
0	5850	17.761207675669	0.007560184378
0	5854	17.768767860047	0.012525472723
0	5860	17.78129333277	0.025829690069
0	5865	17.807123022839	0.012618867621
0	5870	17.81974189046	0.003144841688
0	5874	17.822886732148	0.013534827931
0	5880	17.836421560079	0.013777643703
0	5885	17.850199203782	0.010714755118
0	5890	17.8609139589	0.02963744143
0	5895	17.89055140033	0.000827542141
0	5899	17.891378942471	0.001089768063
0	5902	17.892468710534	0.021135625452
0	5910	17.913604335986	0.023367122334
0	5915	17.93697145832	0.019652798797
0	5920	17.956624257117	0.027536640339
0	5925	17.984160897456	0.009059403585
0	5930	17.993220301041	0.006665591527
0	5934	17.999885892568	0.017182012919
0	5940	18.017067905487	0.007876252165
0	5945	18.024944157652	0.005856785423
0	5949	18.030800943075	0.014767870257
0	5955	18.045568813332	0.010407679955
0	5960	18.055976493287	0.015290300134
0	5965	18.071266793421	0.003327314428
0	5969	18.074594107849	0.000780304434
0	5972	18.075374412283	0.003872998147
0	5977	18.07924741043	0.060430049378
0	5985	18.139677459808	0.003595222709
0	5989	18.143272682517	0.013048956134
0	5995	18.156321638651	0.005908897414
0	5999	18.162230536065	0.055770923229
0	6005	18.218001459294	0.002586446869
0	6009	18.220587906163	0.022538321839
0	6015	18.243126228002	0.001929402275
0	6019	18.245055630277	0.010598938074
0	6024	18.255654568351	0.012846859842
0	6030	18.268501428193	0.032118248257
0	6035	18.30061967645	0.015757050325
0	6040	18.316376726775	0.020024441437
0	6045	18.336401168212	0.00644390725
0	6049	18.342845075462	0.005274782072
0	6054	18.348119857534	0.00182514132
0	6057	18.349944998854	0.035403403685
0	6065	18.385348402539	0.037884078849
0	6070	18.423232481388	0.015020900124
0	6075	18.438253381512	0.002401269734
0	6079	18.440654651246	0.0088641537
0	6084	18.449518804946	0.022142035233
0	6090	18.471660840179	0.006348280326
0	6094	18.478009120505	0.005421169446
0	6099	18.483430289951	0.009377201746
0	6104	18.492807491697	0.004093416591
0	6109	18.496900908288	0.01235283609
0	6114	18.509253744378	0.015006019099
0	6120	18.524259763477	0.010376327386
0	6125	18.534636090863	0.00206878762
0	6129	18.536704878483	0.004880589415
0	6132	18.541585467898	0.011624176292
0	6139	18.55320964419	0.005281370333
0	6144	18.558491014523	0.008882214877
0	6149	18.5673732294	0.015780863269
0	6155	18.583154092669	0.024463542032
0	6160	18.607617634701	0.021348908462
0	6165	18.628966543163	0.027329484562
0	6170	18.656296027725	0.001377885551
0	6174	18.657673913276	0.007222077353
0	6179	18.664895990629	0.005503349381
0	6182	18.67039934001	0.009812091756
0	6189	18.680211431766	0.060177326542
0	6195	18.740388758308	0.016653803752
0	6200	18.75704256206	0.041547426889
0	6205	18.798589988949	0.02310605522
0	6210	18.821696044169	0.010534568623
0	6215	18.832230612792	0.007307877438
0	6219	18.83953849023	0.074238956192
0	6225	18.913777446422	0.043766940662
0	6230	18.957544387084	0.083537732394
0	6235	19.041082119478	0.013053764459
0	6240	19.054135883937	0.011344517677
0	6245	19.065480401614	0.010490643732
0	6250	19.075971045346	0.017099502055
0	6255	19.093070547401	0.024845635612
0	6260	19.117916183013	0.020418097859
0	6265	19.138334280872	0.031175958127
0	6270	19.169510238999	0.010184917046
0	6275	19.179695156045	0.017968614621
0	6280	19.197663770666	0.007631989525
0	6284	19.205295760191	0.027893042911
0	6290	19.233188803102	0.023770044486
0	6295	19.256958847588	0.014438403461
0	6300	19.271397251049	0.048275369957
0	6305	19.319672621006	0.011643884249
0	6310	19.331316505255	0.013880885362
0	6315	19.345197390617	0.006236874661
0	6319	19.351434265278	0.000733486775
0	6322	19.352167752053	0.008116972544
0	6327	19.360284724597	0.001743898898
0	6332	19.362028623495	0.006037470966
0	6335	19.368066094461	0.014947258416
0	6342	19.383013352877	0.00386331211
0	6347	19.386876664987	0.018324636064
0	6354	19.405201301051	0.027484879747
0	6360	19.432686180798	0.045616542979
0	6365	19.478302723777	0.000466805356
0	6369	19.478769529133	0.007419654069
0	6374	19.486189183202	0.00596603702
0	6377	19.492155220222	0.007393140562
0	6382	19.499548360784	0.037236398053
0	6390	19.536784758837	0.001872639071
0	6394	19.538657397908	0.001112237507
0	6397	19.539769635415	0.008455284544
0	6402	19.548224919959	0.011706535025
0	6407	19.559931454984	0.032967568003
0	6415	19.592899022987	0.004053916818
0	6419	19.596952939805	0.02621547288
0	6425	19.623168412685	0.011675894889
0	6430	19.634844307574	0.015141863626
0	6435	19.6499861712	0.003074355107
0	6439	19.653060526307	0.018375276668
0	6445	19.671435802975	0.018854850525
0	6450	19.6902906535	0.008527704983
0	6455	19.698818358483	0.016793348438
0	6460	19.715611706921	0.008675927021
0	6465	19.724287633942	0.02162736214
0	6470	19.745914996082	0.006578141581
0	6474	19.752493137663	0.000376104584
0	6477	19.752869242247	0.017842047846
0	6485	19.770711290093	0.004966281275
0	6489	19.775677571368	0.018330912652
0	6495	19.79400848402	0.008547684873
0	6500	19.802556168893	0.005421502217
0	6504	19.80797767111	0.008261766655
0	6509	19.816239437765	0.008116861739
0	6514	19.824356299504	0.007268001113
0	6519	19.831624300617	0.016638189044
0	6525	19.848262489661	0.012270054195
0	6530	19.860532543856	0.035079548239
0	6535	19.895612092095	0.010634334582
0	6540	19.906246426677	0.013738852655
0	6545	19.919985279332	0.004226977095
0	6549	19.924212256427	0.001618908604
0	6552	19.925831165031	0.013899742882
0	6559	19.939730907913	0.004482582644
0	6564	19.944213490557	0.007277308293
0	6569	19.95149079885	0.01649253076
0	6575	19.96798332961	0.018763213014
0	6580	19.986746542624	0.012387707169
0	6585	19.999134249793	0.003054586067
0	6589	20.00218883586	0.003829111045
0	6592	20.006017946905	0.005433021936
0	6597	20.011450968841	0.023609040467
0	6605	20.035060009308	0.028224400316
0	6610	20.063284409624	0.00138776941
0	6614	20.064672179034	0.019904936057
0	6620	20.084577115091	0.033362799993
0	6625	20.117939915084	0.022064355372
0	6630	20.140004270456	0.042261887859
0	6635	20.182266158315	0.011367957586
0	6640	20.193634115901	0.013066732782
0	6645	20.206700848683	0.014942496299
0	6650	20.221643344982	0.011075190477
0	6655	20.232718535459	0.015645058089
0	6660	20.248363593548	0.02118589953
0	6665	20.269549493078	0.006948106622
0	6669	20.2764975997	0.008360852495
0	6674	20.284858452195	0.011455758298
0	6680	20.296314210493	0.025904120356
0	6685	20.322218330849	0.010555258367
0	6690	20.332773589216	0.026425678591
0	6695	20.359199267807	0.005905814301
0	6699	20.365105082108	0.024566223334
0	6705	20.389671305442	0.041316921529
0	6710	20.430988226971	0.018591277151
0	6715	20.449579504122	0.019346403208
0	6720	20.46892590733	0.000289264473
0	6724	20.469215171803	0.030007443969
0	6730	20.499222615772	0.016454521215
0	6735	20.515677136987	0.012918168584
0	6740	20.528595305571	0.016549773072
0	6745	20.545145078643	0.003821589892
0	6749	20.548966668535	0.000833642389
0	6752	20.549800310924	0.033701953252
0	6760	20.583502264176	0.004406524474
0	6764	20.58790878865	0.037098546021
0	6770	20.625007334671	0.010966392597
0	6775	20.635973727268	0.002440994019
0	6779	20.638414721287	0.011977793949
0	6784	20.650392515236	0.00910405053
0	6789	20.659496565766	0.020668888327
0	6795	20.680165454093	0.00225830161
0	6799	20.682423755703	0.014773996078
0	6805	20.697197751781	0.012540698193
0	6810	20.709738449974	0.003272656861
0	6814	20.713011106835	0.009188358013
0	6819	20.722199464848	0.027776815317
0	6825	20.749976280165	0.000181226733
0	6829	20.750157506898	0.041542322315
0	6835	20.791699829213	0.009494009
0	6840	20.801193838213	0.007478929192
0	6844	20.808672767405	0.000342192259
0	6847	20.809014959664	0.004981630865
0	6852	20.813996590529	0.01875532086
0	6860	20.832751911389	0.033939796227
0	6865	20.866691707616	0.001440177989
0	6869	20.868131885605	0.00916691613
0	6874	20.877298801735	0.001251867754
0	6877	20.878550669489	0.01247104442
0	6884	20.891021713909	0.023948412852
0	6890	20.914970126761	0.033054049701
0	6895	20.948024176462	0.002130044097
0	6899	20.950154220559	0.002695191116
0	6902	20.952849411675	0.014390436671
0	6909	20.967239848346	0.028836294353
0	6915	20.996076142699	0.002257364646
0	6919	20.998333507345	0.014170122483
0	6925	21.012503629828	0.021336012802
0	6930	21.03383964263	0.026264928736
0	6935	21.060104571366	0.02127712862
0	6940	21.081381699986	0.007424706931
0	6944	21.088806406917	0.000474109275
0	6949	21.089280516192	0.05450174982
0	6955	21.143782266012	0.020431704239
0	6960	21.164213970251	0.031994373431
0	6965	21.196208343682	0.011700899665
0	6970	21.207909243347	0.007377443683
0	6974	21.21528668703	0.022540992239
0	6980	21.237827679269	0.036714648864
0	6985	21.274542328133	0.013956081884
0	6990	21.288498410017	0.002587193178
0	6994	21.291085603195	0.021644389925
0	7000	21.31272999312	0.005433393757
0	7004	21.318163386877	0.000152452169
0	7007	21.318315839046	0.04174375197
0	7015	21.360059591016	0.009825694572
0	7020	21.369885285588	0.013051669704
0	7025	21.382936955292	0.026843473888
0	7030	21.40978042918	0.003670241641
0	7034	21.413450670821	0.034976232694
0	7040	21.448426903515	0.004708060291
0	7044	21.453134963806	0.026475747986
0	7050	21.479610711792	0.017248133943
0	7055	21.496858845735	0.013986088414
0	7060	21.510844934149	0.118885788499
0	7065	21.629730722648	0.011055945223
0	7070	21.640786667871	0.004239258736
0	7074	21.645025926607	0.00850965673
0	7079	21.653535583337	0.010969124579
0	7085	21.664504707916	0.018774120555
0	7090	21.683278828471	0.006864975266
0	7094	21.690143803737	0.005305323635
0	7099	21.695449127372	0.045540419372
0	7105	21.740989546744	0.008997967597
0	7111	21.749987514341	0.002297944142
0	7115	21.752285458483	0.029242674941
0	7121	21.781528133424	0.036950906142
0	7126	21.818479039566	0.028790307508
0	7131	21.847269347074	0.02295270339
0	7136	21.870222050464	0.004071564886
0	7140	21.87429361535	0.014406787004
0	7146	21.888700402354	0.008332311537
0	7151	21.897032713891	0.005511985772
0	7155	21.902544699663	0.010543004947
0	7161	21.91308770461	0.003232991389
0	7165	21.916320695999	0.0012714279
0	7168	21.917592123899	0.012799288061
0	7175	21.93039141196	0.014456096766
0	7181	21.944847508726	0.003814638144
0	7185	21.94866214687	0.006141686934
0	7190	21.954803833804	0.001179109151
0	7193	21.955982942955	0.015334467416
0	7200	21.971317410371	0.006158829307
0	7205	21.977476239678	0.024841104008
0	7211	22.002317343686	0.005429589706
0	7215	22.007746933392	0.000305201037
0	7218	22.008052134429	0.010645389644
0	7225	22.018697524073	0.010671462794
0	7230	22.029368986867	0.031427526363
0	7236	22.06079651323	0.005373037024
0	7240	22.066169550254	0.021654291293
0	7246	22.087823841547	0.022507468382
0	7251	22.110331309929	0.01621788496
0	7256	22.126549194889	0.000653795603
0	7260	22.127202990492	0.013997785466
0	7265	22.141200775958	0.027225876199
0	7271	22.168426652157	0.001948156775
0	7275	22.170374808932	0.013281840019
0	7280	22.183656648951	0.064345964748
0	7286	22.248002613699	0.011996669744
0	7291	22.259999283443	0.003391182732
0	7295	22.263390466175	0.030899630587
0	7301	22.294290096762	0.02164491108
0	7306	22.315935007842	0.051557859145
0	7311	22.367492866987	0.006482641935
0	7315	22.373975508922	0.010158446162
0	7321	22.384133955084	0.077566538376
0	7326	22.46170049346	0.035501620682
0	7331	22.497202114142	0.022919349858
0	7336	22.520121464	0.002046752341
0	7340	22.522168216341	0.007470976123
0	7345	22.529639192464	0.008801971244
0	7350	22.538441163708	0.011776840074
0	7355	22.550218003782	0.052809931386
0	7361	22.603027935168	0.006295518197
0	7365	22.609323453365	0.002416466643
0	7370	22.611739920008	0.002888759038
0	7373	22.614628679046	0.001879586875
0	7376	22.616508265921	0.031116571574
0	7386	22.647624837495	0.002971666091
0	7390	22.650596503586	0.008508700962
0	7395	22.659105204548	0.005415756966
0	7400	22.664520961514	0.00895637172
0	7405	22.673477333234	0.025052783611
0	7411	22.698530116845	0.012718054414
0	7416	22.711248171259	4.3411751e-005
0	7420	22.71129158301	0.011906396217
0	7425	22.723197979227	0.031222271579
0	7431	22.754420250806	0.028916344564
0	7436	22.78333659537	0.001184666548
0	7440	22.784521261918	0.017980245474
0	7446	22.802501507392	4.1070416e-005
0	7450	22.802542577808	0.006385172495
0	7453	22.808927750303	0.000988569091
0	7456	22.809916319394	0.002837460174
0	7461	22.812753779568	0.005302391473
0	7464	22.818056171041	0.006733372969
0	7469	22.82478954401	0.026674196534
0	7480	22.851463740544	0.058744613015
0	7486	22.910208353559	0.001767881372
0	7490	22.911976234931	0.003091730076
0	7493	22.915067965007	0.002110265258
0	7496	22.917178230265	0.006096234547
0	7501	22.923274464812	0.026067650387
0	7510	22.949342115199	0.017635471559
0	7516	22.966977586758	0.005056680591
0	7520	22.972034267349	0.005371975045
0	7525	22.977406242394	0.011406092813
0	7530	22.988812335207	0.021896575923
0	7536	23.01070891113	0.004105026249
0	7540	23.014813937379	0.019014327345
0	7546	23.033828264724	0.037969925182
0	7551	23.071798189906	0.035331320914
0	7556	23.10712951082	0.005725939443
0	7560	23.112855450263	0.073689371061
0	7566	23.186544821324	0.005145182409
0	7570	23.191690003733	0.018559689376
0	7576	23.210249693109	0.035383709019
0	7581	23.245633402128	0.015890009314
0	7586	23.261523411442	0.011869371318
0	7591	23.27339278276	0.023546362765
0	7596	23.296939145525	0.028108518971
0	7601	23.325047664496	0.005806163288
0	7605	23.330853827784	0.00486917478
0	7610	23.335723002564	0.058712546733
0	7616	23.394435549297	0.009390404032
0	7621	23.403825953329	0.000128952493
0	7625	23.403954905822	0.002400648306
0	7628	23.406355554128	0.011607621491
0	7633	23.417963175619	0.013813674673
0	7640	23.431776850292	0.000976436232
0	7643	23.432753286524	0.015237788558
0	7650	23.447991075082	0.015386104886
0	7656	23.463377179968	0.008471553726
0	7661	23.471848733694	0.022506472696
0	7666	23.49435520639	0.003924829922
0	7670	23.498280036312	0.029717165482
0	7676	23.527997201794	4.414441e-006
0	7680	23.528001616235	0.008756471296
0	7685	23.536758087531	0.056216145257
0	7691	23.592974232788	0.031466468746
0	7696	23.624440701534	0.02175730218
0	7701	23.646198003714	0.032715559163
0	7706	23.678913562877	0.006604411831
0	7710	23.685517974708	0.032148338849
0	7716	23.717666313557	0.02031770077
0	7721	23.737984014327	0.002738862897
0	7725	23.740722877224	0.021213846192
0	7731	23.761936723416	0.004330119555
0	7735	23.766266842971	0.020123507162
0	7741	23.786390350133	0.016455643507
0	7746	23.80284599364	0.011088710894
0	7751	23.813934704534	0.005493654127
0	7755	23.819428358661	0.008351566572
0	7760	23.827779925233	0.00994034642
0	7765	23.837720271653	0.0402914431
0	7771	23.878011714753	0.008448015098
0	7776	23.886459729851	0.0031736268
0	7780	23.889633356651	0.003529831202
0	7783	23.893163187853	0.006852309955
0	7788	23.900015497808	0.019866846448
0	7796	23.919882344256	0.002452527157
0	7800	23.922334871413	0.005196812768
0	7803	23.927531684181	0.030677132166
0	7811	23.958208816347	0.006219363939
0	7815	23.964428180286	0.00358866559
0	7820	23.968016845876	0.02458975425
0	7826	23.992606600126	0.013066931247
0	7831	24.005673531373	0.022775675143
0	7836	24.028449206516	0.007922034933
0	7840	24.036371241449	0.010228184987
0	7846	24.046599426436	0.020140994114
0	7851	24.06674042055	0.010042077016
0	7856	24.076782497566	0.007737400692
0	7860	24.084519898258	0.023707161466
0	7866	24.108227059724	0.014775080576
0	7871	24.1230021403	0.015862173845
0	7876	24.138864314145	0.007146154505
0	7880	24.14601046865	0.034892193993
0	7886	24.180902662643	0.001436862705
0	7890	24.182339525348	0.012237725451
0	7895	24.194577250799	0.014031862145
0	7901	24.208609112944	0.012888443643
0	7906	24.221497556587	0.021544892345
0	7911	24.243042448932	9.585544e-005
0	7915	24.243138304372	0.009566887825
0	7920	24.252705192197	0.028271433824
0	7926	24.280976626021	0.008596254571
0	7931	24.289572880592	0.055248945178
0	7936	24.34482182577	0.027488559478
0	7941	24.372310385248	0.011481375993
0	7946	24.383791761241	0.019685553479
0	7951	24.40347731472	3.8843511e-005
0	7955	24.403516158231	0.008836304605
0	7960	24.412352462836	0.0152627263
0	7965	24.427615189136	0.025798404037
0	7971	24.453413593173	0.034541509934
0	7976	24.487955103107	0.008101154539
0	7981	24.496056257646	0.023682213834
0	7986	24.51973847148	0.005018395957
0	7990	24.524756867437	0.004002278593
0	7995	24.52875914603	0.023176054802
0	8002	24.551935200832	0.030945239922
0	8007	24.582880440754	0.020986026125
0	8012	24.603866466879	0.004305561595
0	8016	24.608172028474	0.007233060995
0	8021	24.615405089469	0.006754132796
0	8026	24.622159222265	0.022054444118
0	8032	24.644213666383	0.005219986112
0	8036	24.649433652495	0.014226882536
0	8042	24.663660535031	0.003375655188
0	8046	24.667036190219	0.061098539268
0	8052	24.728134729487	0.008424396752
0	8057	24.736559126239	0.014331784252
0	8062	24.750890910491	0.016237598909
0	8067	24.7671285094	0.010612296884
0	8072	24.777740806284	0.022940552784
0	8077	24.800681359068	0.007237194043
0	8081	24.807918553111	0.001680462548
0	8086	24.809599015659	0.004773390354
0	8089	24.814372406013	0.04066797322
0	8097	24.855040379233	0.001302453898
0	8101	24.856342833131	0.00389523168
0	8104	24.860238064811	0.004808975325
0	8109	24.865047040136	0.021115357014
0	8116	24.88616239715	0.026259229782
0	8122	24.912421626932	0.005814611504
0	8126	24.918236238436	0.003000168154
0	8131	24.92123640659	0.003697315516
0	8134	24.924933722106	0.036431626976
0	8142	24.961365349082	0.000983812503
0	8146	24.962349161585	0.00803940487
0	8151	24.970388566455	0.021505873657
0	8157	24.991894440112	0.042615092726
0	8162	25.034509532838	0.0019665498
0	8166	25.036476082638	0.013501733044
0	8171	25.049977815682	0.016442823769
0	8177	25.066420639451	0.000927546092
0	8181	25.067348185543	0.000267432539
0	8184	25.067615618082	0.007919767317
0	8189	25.075535385399	0.020717644116
0	8196	25.096253029515	0.009463370831
0	8201	25.105716400346	0.014384924389
0	8207	25.120101324735	0.007557090437
0	8211	25.127658415172	0.035910810103
0	8217	25.163569225275	0.006258118131
0	8221	25.169827343406	0.008424877643
0	8226	25.178252221049	0.006772466854
0	8231	25.185024687903	0.036420202991
0	8237	25.221444890894	0.016624309412
0	8242	25.238069200306	0.021756900649
0	8247	25.259826100955	0.009680253761
0	8252	25.269506354716	0.020199912281
0	8257	25.289706266997	0.001589267226
0	8261	25.291295534223	0.0060260985
0	8264	25.297321632723	0.000687141222
0	8269	25.298008773945	0.018049951467
0	8276	25.316058725412	0.009970281358
0	8281	25.32602900677	0.004343947973
0	8284	25.330372954743	0.000415931534
0	8289	25.330788886277	0.046333531718
0	8297	25.377122417995	0.012426595525
0	8302	25.38954901352	0.033552797723
0	8307	25.423101811243	0.024632782807
0	8312	25.44773459405	0.001607824134
0	8316	25.449342418184	0.0151832585
0	8322	25.464525676684	0.007230775253
0	8326	25.471756451937	0.00741606345
0	8331	25.479172515387	0.004993413856
0	8336	25.484165929243	0.000774922744
0	8339	25.484940851987	0.000968740781
0	8342	25.485909592768	0.016576174118
0	8349	25.502485766886	0.071093802834
0	8357	25.57357956972	0.002506892031
0	8361	25.576086461751	0.008767451163
0	8366	25.584853912914	0.012709625654
0	8371	25.597563538568	0.02629283691
0	8377	25.623856375478	0.003289515281
0	8381	25.627145890759	0.013325105472
0	8387	25.640470996231	0.035982285737
0	8392	25.676453281968	0.027992189509
0	8397	25.704445471477	0.019065972894
0	8402	25.723511444371	0.020332447287
0	8407	25.743843891658	0.007653182218
0	8412	25.751497073876	0.001126885288
0	8417	25.752623959164	0.003022552004
0	8420	25.755646511168	0.033188172393
0	8428	25.788834683561	0.028632998626
0	8433	25.817467682187	0.006854917126
0	8437	25.824322599313	0.019155293603
0	8444	25.843477892916	0.003350640057
0	8448	25.846828532973	0.024650241137
0	8454	25.87147877411	0.036833571931
0	8459	25.908312346041	0.005149114863
0	8463	25.913461460904	0.021866235998
0	8469	25.935327696902	0.017353850737
0	8474	25.952681547639	0.023905019847
0	8479	25.976586567486	0.015835644023
0	8484	25.992422211509	0.00693291019
0	8488	25.999355121699	0.009621080924
0	8494	26.008976202623	0.065861054649
0	8499	26.074837257272	0.001706854279
0	8503	26.076544111551	0.016802908572
0	8509	26.093347020123	0.006930517018
0	8513	26.100277537141	0.005061991524
0	8518	26.105339528665	0.006434497182
0	8523	26.111774025847	0.010050003438
0	8528	26.121824029285	0.083706377495
0	8534	26.20553040678	0.004613703322
0	8538	26.210144110102	0.037664494458
0	8545	26.24780860456	0.008963550862
0	8550	26.256772155422	0.001509807644
0	8554	26.258281963066	0.001100414925
0	8557	26.259382377991	0.033822513426
0	8566	26.293204891417	0.014174075468
0	8571	26.307378966885	0.007995519327
0	8575	26.315374486212	0.031529751724
0	8581	26.346904237936	0.051173723174
0	8586	26.39807796111	0.001289003542
0	8590	26.399366964652	0.016434633729
0	8596	26.415801598381	0.00290544952
0	8600	26.418707047901	0.004894391085
0	8603	26.423601438986	0.012585860628
0	8610	26.436187299614	0.00923008876
0	8615	26.445417388374	0.026100830742
0	8621	26.471518219116	0.008910638756
0	8626	26.480428857872	0.006539334288
0	8630	26.48696819216	0.002254959998
0	8635	26.489223152158	0.00406313586
0	8638	26.493286288018	0.019712973301
0	8646	26.512999261319	0.017331025238
0	8651	26.530330286557	0.004177504682
0	8655	26.534507791239	0.025695365713
0	8661	26.560203156952	0.026040197785
0	8666	26.586243354737	0.025600409572
0	8671	26.611843764309	0.019440558134
0	8676	26.631284322443	0.016595409587
0	8681	26.64787973203	0.00187338217
0	8685	26.6497531142	0.037342237336
0	8691	26.687095351536	0.011073118487
0	8696	26.698168470023	0.00374184441
0	8700	26.701910314433	0.006462520519
0	8705	26.708372834952	0.001945768898
0	8708	26.71031860385	0.037553826245
0	8716	26.747872430095	0.001239804286
0	8720	26.749112234381	0.080030601622
0	8726	26.829142836003	0.062603949053
0	8731	26.891746785056	0.010104810804
0	8736	26.90185159586	0.016860546602
0	8741	26.918712142462	0.001661849603
0	8745	26.920373992065	0.10939032441
0	8751	27.029764316475	0.01839893594
0	8756	27.048163252415	0.041738075311
0	8761	27.089901327726	0.005423044789
0	8765	27.095324372515	0.003186838917
0	8770	27.098511211432	0.00868414872
0	8775	27.107195360152	0.012719751907
0	8780	27.119915112059	0.000682545811
0	8783	27.12059765787	0.013995990357
0	8790	27.134593648227	0.020755198001
0	8796	27.155348846228	0.012110978526
0	8801	27.167459824754	0.034007931554
0	8806	27.201467756308	0.006200020671
0	8810	27.207667776979	0.032771186758
0	8816	27.240438963737	0.020223596663
0	8821	27.2606625604	0.002105698418
0	8825	27.262768258818	0.004403090128
0	8828	27.267171348946	0.049508433717
0	8836	27.316679782663	0.006845843365
0	8840	27.323525626028	0.018349892261
0	8846	27.341875518289	0.00076581181
0	8850	27.342641330099	0.013344475983
0	8855	27.355985806082	0.003036595731
0	8860	27.359022401813	0.019570516804
0	8866	27.378592918617	0.000171772982
0	8870	27.378764691599	0.0108626904
0	8875	27.389627381999	0.014745909594
0	8881	27.404373291593	0.012595762686
0	8886	27.416969054279	0.018451068462
0	8891	27.435420122741	0.014409907238
0	8896	27.449830029979	0.034829096412
0	8901	27.484659126391	0.006222569084
0	8905	27.490881695475	0.018619001475
0	8911	27.50950069695	0.03453972657
0	8916	27.54404042352	0.002906420428
0	8920	27.546946843948	0.005054461069
0	8923	27.552001305017	0.02005835369
0	8931	27.572059658707	0.008476923284
0	8936	27.580536581991	0.00192732761
0	8940	27.582463909601	0.030992323644
0	8946	27.613456233245	0.004907300399
0	8950	27.618363533644	0.048787815562
0	8956	27.667151349206	0.015434216359
0	8961	27.682585565565	0.021687692785
0	8966	27.70427325835	0.009614290407
0	8971	27.713887548757	0.011996375315
0	8976	27.725883924072	0.011872281183
0	8981	27.737756205255	0.010370248571
0	8986	27.748126453826	0.030811070249
0	8991	27.778937524075	0.002593213892
0	8995	27.781530737967	0.00709757362
0	9000	27.788628311587	0.000173398302
0	9003	27.788801709889	0.004982093137
0	9006	27.793783803026	0.008996130962
0	9011	27.802779933988	0.003801224918
0	9016	27.806581158906	0.010875011648
0	9021	27.817456170554	0.014764823514
0	9028	27.832220994068	0.022077171021
0	9036	27.854298165089	0.029121971595
0	9041	27.883420136684	0.02553036883
0	9046	27.908950505514	0.00399890006
0	9050	27.912949405574	0.011411214936
0	9055	27.92436062051	0.003338357517
0	9060	27.927698978027	0.002554222445
0	9063	27.930253200472	0.013999817009
0	9070	27.944253017481	0.027620993909
0	9076	27.97187401139	0.012597530022
0	9081	27.984471541412	0.007477355561
0	9085	27.991948896973	0.00772267472
0	9090	27.999671571693	0.006545648938
0	9095	28.006217220631	0.013327602648
0	9101	28.019544823279	0.001283239153
0	9105	28.020828062432	0.066134298676
0	9112	28.086962361108	0.003697852072
0	9116	28.09066021318	0.006370712474
0	9121	28.097030925654	0.033449840651
0	9127	28.130480766305	0.009404046385
0	9132	28.13988481269	0.031905183148
0	9137	28.171789995838	0.051439430508
0	9142	28.223229426346	0.018757702895
0	9147	28.241987129241	0.003421851744
0	9151	28.245408980985	0.009192634437
0	9156	28.254601615422	0.0067285102
0	9161	28.261330125622	0.024945349828
0	9167	28.28627547545	0.002123064052
0	9171	28.288398539502	0.012008168542
0	9176	28.300406708044	0.019088308309
0	9182	28.319495016353	0.007499781306
0	9186	28.326994797659	0.013294069356
0	9192	28.340288867015	0.053097177243
0	9197	28.393386044258	0.005630119825
0	9201	28.399016164083	0.002643031915
0	9206	28.401659195998	0.003895740264
0	9209	28.405554936262	0.001431745503
0	9212	28.406986681765	0.023304173367
0	9221	28.430290855132	0.003939143862
0	9226	28.434229998994	0.009654034659
0	9231	28.443884033653	0.010428907214
0	9236	28.454312940867	0.006564595231
0	9241	28.460877536098	0.001436872802
0	9244	28.4623144089	0.005017744321
0	9249	28.467332153221	0.048199270419
0	9257	28.51553142364	0.015889841767
0	9262	28.531421265407	0.061575403813
0	9267	28.59299666922	0.010994701772
0	9272	28.603991370992	0.046629810191
0	9277	28.650621181183	0.019578276282
0	9282	28.670199457465	0.010002650915
0	9287	28.68020210838	0.004097718678
0	9291	28.684299827058	0.00682954083
0	9296	28.691129367888	0.02152610311
0	9302	28.712655470998	0.041111778763
0	9307	28.753767249761	0.005193723648
0	9311	28.758960973409	0.002554192561
0	9314	28.76151516597	0.014983372787
0	9321	28.776498538757	0.008864969045
0	9327	28.785363507802	0.092696635024
0	9332	28.878060142826	0.009040330078
0	9337	28.887100472904	0.003851333914
0	9341	28.890951806818	0.0214730243
0	9347	28.912424831118	0.001007102143
0	9351	28.913431933261	0.016574433446
0	9357	28.930006366707	0.009506239421
0	9362	28.939512606128	0.025224578711
0	9367	28.964737184839	0.000857359603
0	9371	28.965594544442	0.029665797296
0	9377	28.995260341738	0.028357294662
0	9382	29.0236176364	0.008873629916
0	9388	29.032491266316	0.023458651514
0	9393	29.05594991783	0.017433350472
0	9398	29.073383268302	0.009599120048
0	9403	29.08298238835	0.017375794835
0	9408	29.100358183185	0.05372146815
0	9413	29.154079651335	0.027708796811
0	9418	29.181788448146	0.002501512808
0	9422	29.184289960954	0.028042777628
0	9428	29.212332738582	0.002478966353
0	9432	29.214811704935	0.023701449795
0	9439	29.23851315473	0.004979354211
0	9443	29.243492508941	0.004083808908
0	9448	29.247576317849	0.014212808867
0	9453	29.261789126716	0.033306239685
0	9459	29.295095366401	0.008407668774
0	9464	29.303503035175	0.00589817779
0	9468	29.309401212965	0.001256786554
0	9471	29.310657999519	0.003934462637
0	9476	29.314592462156	0.000468803244
0	9479	29.3150612654	0.07442250305
0	9489	29.38948376845	0.001123071
0	9493	29.39060683945	0.017345014129
0	9499	29.407951853579	0.011553365603
0	9504	29.419505219182	0.000932375259
0	9508	29.420437594441	0.006018549366
0	9511	29.426456143807	0.041892829057
0	9519	29.468348972864	0.00835697197
0	9524	29.476705944834	0.005003014461
0	9528	29.481708959295	0.001750800504
0	9531	29.483459759799	0.001023483169
0	9534	29.484483242968	0.016129232704
0	9543	29.500612475672	0.015087730452
0	9549	29.515700206124	0.00644127018
0	9553	29.522141476304	0.034416130345
0	9559	29.556557606649	0.004611861369
0	9563	29.561169468018	0.025559045387
0	9569	29.586728513405	0.005898365883
0	9573	29.592626879288	0.002986108357
0	9578	29.595612987645	0.070441787425
0	9584	29.66605477507	0.003668252512
0	9588	29.669723027582	0.002992550963
0	9591	29.672715578545	0.010236222679
0	9598	29.682951801224	0.033845906957
0	9604	29.716797708181	0.050910793597
0	9609	29.767708501778	0.034682253865
0	9614	29.802390755643	0.050529004649
0	9620	29.852919760292	0.023221641178
0	9625	29.87614140147	0.004457649033
0	9629	29.880599050503	0.008480738016
0	9634	29.889079788519	0.007044725931
0	9639	29.89612451445	0.004070657692
0	9644	29.900195172142	0.000771186883
0	9647	29.900966359025	0.007838612245
0	9652	29.90880497127	0.001238269437
0	9655	29.910043240707	0.030875381382
0	9665	29.940918622089	0.00708858035
0	9669	29.948007202439	0.005456117137
0	9674	29.953463319576	0.005156827599
0	9679	29.958620147175	0.001956986577
0	9682	29.960577133752	0.006132566789
0	9687	29.966709700541	0.004275765306
0	9690	29.970985465847	0.027668890357
0	9700	29.998654356204	0.007157261104
0	9704	30.005811617308	0.01273511833
0	9710	30.018546735638	0.008815151965
0	9715	30.027361887603	0.009526051615
0	9720	30.036887939218	0.022618185624
0	9725	30.059506124842	0.003812497208
0	9729	30.06331862205	0.01929002589
0	9735	30.08260864794	0.01119943626
0	9740	30.0938080842	0.022337403946
0	9745	30.116145488146	0.022847406519
0	9750	30.138992894665	0.000254194116
0	9754	30.139247088781	0.038134145646
0	9760	30.177381234427	0.001878604808
0	9764	30.179259839235	0.014010144942
0	9770	30.193269984177	0.01038610625
0	9775	30.203656090427	0.006905911402
0	9779	30.210562001829	0.00196371154
0	9784	30.212525713369	0.003399503826
0	9787	30.215925217195	0.001716021106
0	9790	30.217641238301	0.009433132323
0	9797	30.227074370624	0.004412275822
0	9800	30.231486646446	0.003719034268
0	9805	30.235205680714	0.028316753492
0	9814	30.263522434206	0.001583169917
0	9817	30.265105604123	0.045000486021
0	9825	30.310106090144	0.054741670504
0	9830	30.364847760648	0.001800203097
0	9834	30.366647963745	0.023120307265
0	9840	30.38976827101	0.013006279463
0	9845	30.402774550473	0.000312616601
0	9849	30.403087167074	0.012203792522
0	9854	30.415290959596	0.005369187716
0	9859	30.420660147312	0.006525430989
0	9864	30.427185578301	0.007612077998
0	9869	30.434797656299	0.00177603814
0	9872	30.436573694439	0.040384247236
0	9880	30.476957941675	0.004550940198
0	9884	30.481508881873	0.010122671241
0	9889	30.491631553114	0.006590645168
0	9894	30.498222198282	0.006264821816
0	9899	30.504487020098	0.003881026794
0	9904	30.508368046892	0.012122289459
0	9909	30.520490336351	0.005663287637
0	9914	30.526153623988	0.006946228429
0	9919	30.533099852417	0.017146404556
0	9925	30.550246256973	0.005124548197
0	9929	30.55537080517	0.018668850536
0	9935	30.574039655706	0.012996979986
0	9940	30.587036635692	0.023268010504
0	9945	30.610304646196	0.009087834747
0	9950	30.619392480943	0.010427038433
0	9955	30.629819519376	0.041346841177
0	9960	30.671166360553	0.014504533456
0	9965	30.685670894009	0.00864497262
0	9970	30.694315866629	3.7294776e-005
0	9974	30.694353161405	0.015753100131
0	9980	30.710106261536	0.000600472078
0	9984	30.710706733614	0.013098320197
0	9989	30.723805053811	0.034568510004
0	9995	30.758373563815	0.003608809504
0	9999	30.761982373319	0.057338499694
0	10005	30.819320873013	0.089143602159
0	10010	30.908464475172	0.005738571462
0	10014	30.914203046634	0.071940955937
0	10020	30.986144002571	0.011659473745
0	10025	30.997803476316	0.005861563168
0	10029	31.003665039484	0.030870231583
0	10035	31.034535271067	0.001209966152
0	10039	31.035745237219	0.015357503399
0	10045	31.051102740618	0.011470693402
0	10050	31.06257343402	0.016512883831
0	10055	31.079086317851	0.04688858095
0	10060	31.125974898801	0.015537828385
0	10065	31.141512727186	0.009752446494
0	10070	31.15126517368	0.045577314844
0	10075	31.196842488524	0.025429131242
0	10080	31.222271619766	0.012859188895
0	10085	31.235130808661	0.00787143576
0	10090	31.243002244421	0.006216404195
0	10094	31.249218648616	0.030171976441
0	10100	31.279390625057	0.005769836447
0	10104	31.285160461504	0.00802122534
0	10109	31.293181686844	0.028645402609
0	10115	31.321827089453	0.014106905042
0	10120	31.335933994495	0.033244963586
0	10125	31.369178958081	0.022368575443
0	10130	31.391547533524	0.013806017049
0	10135	31.405353550573	0.003234596713
0	10139	31.408588147286	0.044811625331
0	10145	31.453399772617	0.013091206018
0	10150	31.466490978635	0.058157223694
0	10155	31.524648202329	0.004988080521
0	10159	31.52963628285	0.018450149835
0	10165	31.548086432685	0.002283970239
0	10169	31.550370402924	0.028407546366
0	10175	31.57877794929	0.01147004685
0	10180	31.59024799614	0.021276865911
0	10185	31.611524862051	0.031082328722
0	10190	31.642607190773	0.006887015338
0	10194	31.649494206111	0.008589864596
0	10200	31.658084070707	0.009316553709
0	10205	31.667400624416	0.005004547734
0	10209	31.67240517215	0.004673203553
0	10214	31.677078375703	0.016409099869
0	10220	31.693487475572	0.017667106172
0	10225	31.711154581744	0.02618850888
0	10230	31.737343090624	0.03381830206
0	10235	31.771161392684	0.001652177165
0	10239	31.772813569849	0.014797146424
0	10245	31.787610716273	0.001094319228
0	10249	31.788705035501	0.000150194138
0	10252	31.788855229639	0.041435577962
0	10260	31.830290807601	0.005773035407
0	10264	31.836063843008	0.016838013313
0	10270	31.852901856321	0.001608946474
0	10274	31.854510802795	0.035450428857
0	10280	31.889961231652	0.032518277111
0	10285	31.922479508763	0.005475715711
0	10289	31.927955224474	0.00499752948
0	10294	31.932952753954	0.002262210603
0	10297	31.935214964557	0.00412692669
0	10302	31.939341891247	0.000207780282
0	10305	31.939549671529	0.052615788585
0	10315	31.992165460114	0.018510209344
[...]
23	17246	52.892966036598	0.007842641486
23	17251	52.90917616437	0.007166257166
23	17256	52.957229900193	0.007167724759
23	17261	52.971698659038	0.007167724759
23	17266	53.043148293866	0.007169927276
23	17271	53.080824975625	0.00717066175
23	17282	53.087995637375	0.010768470696
23	17284	53.095167033748	0.017019293322
23	17286	53.102338430121	0.023252384589
23	17291	53.109509826494	0.013547809357
23	17296	53.116681957642	0.011235558639
23	17301	53.12385408879	0.009256097135
23	17306	53.185900082705	0.007173601148
23	17311	53.254262542097	0.007175807278
23	17316	53.2835749167	0.007176542957
23	17321	53.303289459476	0.007177278786
23	17326	53.310466738262	0.008786576824
23	17331	53.317644017048	0.00919743181
23	17336	53.324821295834	0.012184910863
23	17341	53.33199857462	0.011195908661
23	17346	53.352281952835	0.007178014766
23	17357	53.359459967601	0.011532468241
23	17362	53.366638718498	0.017742320289
23	17364	53.373817469395	0.021702182754
23	17366	53.380996220292	0.026378233825
23	17374	53.388174971189	0.009085915893
23	17376	53.395354458368	0.015925056086
23	17381	53.404566601496	0.007179487179
23	17386	53.411746088675	0.011881036727
23	17391	53.418925575854	0.011700545074
23	17396	53.431601331431	0.007180223613
23	17401	53.438781555044	0.00989938182
23	17406	53.478585061683	0.007181696932
23	17411	53.507713503118	0.007182433819
23	17416	53.514895936937	0.007963929366
23	17421	53.522078370756	0.010944520284
23	17426	53.532101187162	0.007183170857
23	17431	53.550722987273	0.007183908046
23	17436	53.611863726262	0.007185382878
23	17441	53.619945695418	0.007185382878
23	17446	53.631649819318	0.007185382878
23	17451	53.658482568828	0.007186120522
23	17456	53.66827237825	0.007186858316
23	17461	53.675747623128	0.007186858316
23	17466	53.694181917657	0.007187596262
23	17474	53.701369513919	0.011676524738
23	17476	53.708557110181	0.018212920227
23	17481	53.715744706443	0.010640497033
23	17486	53.737388152537	0.00718833436
23	17491	53.763505811437	0.00718907261
23	17496	53.809266738408	0.007190549563
23	17501	53.816457287971	0.01243561005
23	17506	53.853025491471	0.007192027124
23	17511	53.860217518595	0.013607317935
23	17516	53.882101103411	0.007192766132
23	17521	53.889719214569	0.007192766132
23	17526	53.899930691247	0.007192766132
23	17531	53.917379525664	0.007193505292
23	17536	53.970413831233	0.007194984068
23	17541	53.989209746614	0.007194984068
23	17546	53.996404730682	0.010732431061
23	17551	54.026522162317	0.007196463452
23	17556	54.046979278508	0.007197203372
23	17561	54.064866917117	0.007197203372
23	17566	54.12854505022	0.007199424046
23	17571	54.141233035625	0.007199424046
23	17576	54.149252620725	0.007199424046
23	17581	54.156452044771	0.012385634256
23	17589	54.163652209346	0.011774803655
23	17591	54.170852373921	0.016998620553
23	17596	54.178052538496	0.013586123441
23	17601	54.201475088049	0.007200905257
23	17606	54.218344089749	0.007201646091
23	17611	54.22554573584	0.011705560972
23	17616	54.264415850488	0.007202387077
23	17621	54.287222290161	0.007203128216
23	17626	54.294899619446	0.007203869507
23	17631	54.302103488953	0.010113971819
23	17636	54.30930735846	0.011597844375
23	17641	54.320706593393	0.007203869507
23	17646	54.342924679288	0.007204610951
23	17651	54.365979870678	0.007205352548
23	17656	54.373185223226	0.011319474615
23	17661	54.386996709599	0.007206094297
23	17666	54.394202803896	0.007438309789
23	17671	54.401408898193	0.009328925597
23	17676	54.40861499249	0.007359395017
23	17681	54.415821828689	0.007413014861
23	17686	54.423028664888	0.013652332164
23	17691	54.430772209922	0.007206836199
23	17696	54.447052796746	0.007207578254
23	17701	54.459432641735	0.007208320461
23	17706	54.498015396595	0.007209062822
23	17714	54.505224459417	0.010915332542
23	17719	54.512433522239	0.015861749196
23	17724	54.519642585061	0.016042192154
23	17729	54.526852390396	0.019191990458
23	17731	54.534062195731	0.020564565533
23	17736	54.543407076457	0.007210548002
23	17741	54.556041810364	0.007210548002
23	17746	54.573851691701	0.007211290821
23	17751	54.581062982522	0.008515434147
23	17759	54.588274273343	0.01024485483
23	17764	54.595485564164	0.016034797254
23	17766	54.602696854985	0.021317815515
23	17771	54.638038857208	0.007212776919
23	17779	54.645251634127	0.01424466191
23	17781	54.652464411046	0.015188190086
23	17786	54.659677931244	0.011345443157
23	17791	54.676826911826	0.007213520198
23	17796	54.684040432024	0.011552007537
23	17801	54.691254695654	0.011089931136
23	17806	54.715224106877	0.007215007215
23	17814	54.722439114092	0.01188129833
23	17816	54.729654121307	0.014986332424
23	17821	54.750607960629	0.007215750954
23	17826	54.787192869434	0.007216494845
23	17831	54.794409364279	0.010588030329
23	17842	54.80162660317	0.011626073827
23	17844	54.808843842061	0.018144354736
23	17846	54.816061080952	0.022455305193
23	17851	54.826028564027	0.007217983089
23	17856	54.85759839882	0.007218727441
23	17861	54.891422568519	0.007219471947
23	17866	54.918873638553	0.007220216606
23	17871	54.928639409955	0.007220961419
23	17876	54.966230278517	0.007221706386
23	17881	54.978140018892	0.007221706386
23	17886	54.985361725278	0.012939024134
23	17891	54.992584176784	0.008477366663
23	17896	55.007360260553	0.007222451506
23	17901	55.014582712059	0.008168321068
23	17906	55.02180590884	0.008090928599
23	17911	55.029029105621	0.007574809913
23	17916	55.039713786532	0.007223942208
23	17921	55.04693772874	0.013181506435
23	17926	55.054177404706	0.007223942208
23	17931	55.07951763963	0.00722468779
23	17936	55.087587551135	0.00722468779
23	17941	55.094812238925	0.01359769135
23	17946	55.133769501417	0.007226179416
23	17951	55.141276593888	0.007226179416
23	17959	55.148502773304	0.013662678432
23	17964	55.155729698763	0.015726217591
23	17966	55.162956624222	0.018466324748
23	17971	55.170183549681	0.01262660244
23	17976	55.192245457778	0.007227671657
23	17981	55.200957706741	0.007227671657
23	17986	55.238834371619	0.007229164515
23	17991	55.246063536134	0.008511327321
23	17996	55.253292700649	0.013681851942
23	18001	55.277875280416	0.007229911175
23	18006	55.303508354887	0.00723065799
23	18011	55.310739012877	0.014121074157
23	18016	55.342521999469	0.007232152082
23	18021	55.355839261618	0.007232152082
23	18026	55.365045840358	0.007232152082
23	18031	55.394853329972	0.007233646791
23	18036	55.407727078669	0.007233646791
23	18041	55.417753487327	0.007233646791
23	18046	55.424987134118	0.012839341897
23	18051	55.472661711565	0.007235142119
23	18056	55.495279792642	0.007235890014
23	18061	55.511765870066	0.007236638065
23	18066	55.524159525816	0.007236638065
23	18071	55.531396163881	0.01271450459
23	18076	55.553165312531	0.00723738627
23	18081	55.567558275902	0.007238134629
23	18086	55.588023363991	0.007238883144
23	18091	55.595262247135	0.013435262164
23	18096	55.602501130279	0.009351380087
23	18101	55.61101951924	0.007238883144
23	18106	55.634603693974	0.007239631813
23	18111	55.654079118397	0.007240380637
23	18116	55.661319499034	0.013662300261
23	18121	55.668559879671	0.01049288055
23	18129	55.675800260308	0.013312649595
23	18131	55.683041389924	0.014559561815
23	18136	55.728354720147	0.007242628039
23	18141	55.766314707353	0.007243377483
23	18149	55.773558084836	0.013331048906
23	18154	55.780801462319	0.01777726765
23	18156	55.788045589402	0.01649592524
23	18161	55.806129359812	0.007244127083
23	18166	55.813373486895	0.008365349064
23	18171	55.821614342407	0.007244876837
23	18176	55.832735541693	0.007244876837
23	18181	55.83998041853	0.008397165094
23	18186	55.852590936899	0.007245626747
23	18191	55.867626526382	0.007246376812
23	18196	55.899174660632	0.007247127032
23	18201	55.96811214149	0.007248627938
23	18206	55.987413770278	0.007249378625
23	18211	55.998123198192	0.007249378625
23	18216	56.021239116526	0.007250129467
23	18233	56.028489245993	0.013946847802
23	18235	56.035740126457	0.01914460494
23	18237	56.042991006921	0.025584049558
23	18239	56.050241887385	0.029725296472
23	18241	56.057492767849	0.036531169412
23	18246	56.064744399466	0.008193142822
23	18251	56.071996031083	0.007354908499
23	18256	56.0792476627	0.014165284108
23	18261	56.112130877826	0.00725313439
23	18266	56.143368856817	0.00725388601
23	18274	56.150622742827	0.01343896886
23	18279	56.157876628837	0.017605176991
23	18281	56.165130514847	0.021523121593
23	18286	56.172384400857	0.008826176133
23	18291	56.179639038643	0.012353565943
23	18296	56.20541339621	0.007255389718
23	18301	56.226921640751	0.007256141806
23	18306	56.247392112195	0.007256141806
23	18314	56.254648254001	0.013887296991
23	18316	56.26190514805	0.015362333146
23	18321	56.269162042099	0.010099384229
23	18326	56.276418936148	0.011820570614
23	18331	56.294504390493	0.007257646449
23	18336	56.314521213272	0.007258399005
23	18341	56.352988720339	0.007259151716
23	18346	56.379481535866	0.007259904584
23	18351	56.393647263358	0.007260657608
23	18356	56.433024508003	0.007261410788
23	18361	56.45227064132	0.007262164125
23	18366	56.459532805445	0.010867921054
23	18371	56.46679496957	0.007448017284
23	18376	56.49346853581	0.007262917618
23	18381	56.521249441225	0.007263671267
23	18386	56.552542363645	0.007265179035
23	18391	56.55980754268	0.009173798017
23	18396	56.571832612766	0.007265179035
23	18401	56.579097791801	0.009849642326
23	18409	56.586363724954	0.013913004064
23	18411	56.593629658107	0.01550467194
23	18416	56.616959829535	0.007266687429
23	18421	56.624226516964	0.009559061654
23	18426	56.631493204393	0.008986702206
23	18434	56.638759891822	0.01283723334
23	18439	56.646027333682	0.016957225286
23	18441	56.653294775542	0.016298085364
23	18446	56.660562217402	0.011943221312
23	18451	56.678758006902	0.007268196449
23	18459	56.686026203351	0.010212635752
23	18461	56.6932943998	0.016602738222
23	18466	56.707760923233	0.007268951194
23	18474	56.715029874427	0.013611037079
23	18476	56.722298825621	0.01745855614
23	18481	56.732291887399	0.007269706096
23	18486	56.74963936089	0.007270461155
23	18491	56.767616145339	0.007270461155
23	18496	56.795115466274	0.007271216371
23	18501	56.803826726978	0.007271971743
23	18506	56.811098698721	0.012389917992
23	18511	56.841705993386	0.007272727273
23	18516	56.848978720659	0.010940484805
23	18521	56.863686273976	0.007273482959
23	18526	56.870959756935	0.008155561904
23	18531	56.896287989336	0.007274238803
23	18542	56.903562228139	0.011594946128
23	18553	56.910836466942	0.015973565178
23	18555	56.918111461746	0.023101165809
23	18563	56.92538645655	0.02800511188
23	18565	56.932661451354	0.035054039122
23	18567	56.939936446158	0.037792140213
23	18569	56.947212197119	0.035523475195
23	18574	56.95448794808	0.041390001743
23	18579	56.961763699041	0.015915743718
23	18581	56.969039450002	0.015179505573
23	18586	57.035121898646	0.007278020378
23	18591	57.048461299682	0.007278777165
23	18596	57.062191059285	0.007278777165
23	18601	57.096873238116	0.00727953411
23	18606	57.104152772226	0.014225063877
23	18611	57.111433063438	0.007372837733
23	18616	57.155351743026	0.007281048471
23	18621	57.162632791497	0.007778716014
23	18626	57.17057370824	0.007281805888
23	18635	57.177855514128	0.011728943585
23	18640	57.185137320016	0.016710042858
23	18642	57.192419883478	0.015170941836
23	18647	57.226818635667	0.007283321194
23	18652	57.237293803275	0.007283321194
23	18657	57.261403915558	0.007284079084
23	18662	57.273205579297	0.007284837132
23	18667	57.317169124645	0.007285595337
23	18672	57.332420416365	0.0072863537
23	18677	57.339706770065	0.009290902921
23	18682	57.357045618107	0.007287112222
23	18687	57.364332730329	0.007312989885
23	18692	57.371619842551	0.011417222767
23	18700	57.378906954773	0.013738054429
23	18702	57.386194825674	0.018349024519
23	18707	57.421953711519	0.007288629738
23	18712	57.429242341257	0.010214180823
23	18720	57.436530970995	0.012948552833
23	18725	57.443820359728	0.015596508886
23	18727	57.451109748461	0.020490140752
23	18732	57.463246797902	0.007290147886
23	18737	57.470536945788	0.011689354422
23	18742	57.506538342831	0.007290907197
23	18747	57.513829250028	0.012369022506
23	18755	57.521120157225	0.009070359153
23	18757	57.528411823892	0.015796514226
23	18762	57.545283388361	0.007292426294
23	18767	57.598466802852	0.007293946025
23	18772	57.628847736424	0.007294706128
23	18777	57.644404220085	0.007294706128
23	18782	57.651698926213	0.011259192953
23	18787	57.658993632341	0.010809911117
23	18798	57.66628909873	0.013250889706
23	18800	57.673584565119	0.019060410726
23	18802	57.680880031508	0.022836954372
23	18807	57.688176258316	0.012738741041
23	18812	57.723149626645	0.007296987387
23	18817	57.734133306391	0.007296987387
23	18822	57.750418454374	0.007297748123
23	18830	57.757716202497	0.013828940459
23	18832	57.76501395062	0.018728282011
23	18837	57.772326810796	0.007298509019
23	18842	57.779871226207	0.007298509019
23	18847	57.794217519768	0.007299270073
23	18852	57.801516789841	0.008430879557
23	18860	57.808816059914	0.013933431994
23	18862	57.816115329987	0.01685505301
23	18867	57.82778272597	0.007300031286
23	18872	57.855386615063	0.007300792657
23	18877	57.866256613124	0.007300792657
23	18882	57.882675353688	0.007301554188
23	18887	57.929659067076	0.007303077726
23	18892	57.936962144802	0.011976195861
23	18897	57.944265222528	0.011489961832
23	18902	57.996475125925	0.007304601899
23	18907	58.01326581734	0.007305364225
23	18912	58.020571181565	0.007557077733
23	18917	58.02787654579	0.00911120685
23	18922	58.050149769496	0.007306126709
23	18927	58.058738429071	0.007306126709
23	18932	58.082465031334	0.007306889353
23	18937	58.095472921336	0.007307652156
23	18942	58.116157849316	0.007307652156
23	18950	58.123465501472	0.014129465215
23	18955	58.13077391659	0.01912041044
23	18960	58.138082331708	0.017946751036
23	18962	58.145390746826	0.016796998746
23	18967	58.179542984901	0.00730994152
23	18972	58.186852926421	0.009612893778
23	18977	58.194162867941	0.011182797695
23	18982	58.209421195784	0.007310704961
23	18987	58.216731900745	0.013094374268
23	18992	58.22707728774	0.007310704961
23	18997	58.241251585019	0.007311468561
23	19008	58.24856305358	0.011712670989
23	19010	58.255874522141	0.017642292886
23	19012	58.263185990702	0.024605044363
23	19017	58.274653149464	0.00731223232
23	19022	58.28523415804	0.00731223232
23	19028	58.29254639036	0.007383893068
23	19033	58.299859386599	0.008965777191
23	19038	58.310261302681	0.007312996239
23	19043	58.332693803455	0.007313760318
23	19048	58.340795150376	0.007314524556
23	19053	58.350068158156	0.007314524556
23	19058	58.357382682712	0.009163919156
23	19063	58.365345508264	0.007314524556
23	19068	58.37266003282	0.007415891613
23	19073	58.379975321774	0.010569353701
23	19078	58.398144011854	0.007316053512
23	19083	58.408369056472	0.007316053512
23	19088	58.415685109984	0.013285900667
23	19093	58.437378529931	0.007316818229
23	19098	58.450260878359	0.007316818229
23	19103	58.460567931799	0.007317583107
23	19108	58.472154536453	0.007317583107
23	19113	58.47947211956	0.014515978976
23	19118	58.486790467704	0.011854670221
23	19123	58.499026980707	0.007318348144
23	19128	58.506345328851	0.007378427829
23	19133	58.513664442193	0.009875502036
23	19138	58.520983555535	0.012461603923
23	19146	58.528302668877	0.010583570019
23	19148	58.535621782219	0.016822118069
23	19153	58.542941660918	0.010398496863
23	19158	58.550261539617	0.010840364754
23	19163	58.56289191384	0.007320644217
23	19168	58.577745376606	0.007320644217
23	19173	58.585066020823	0.012566532661
23	19178	58.59238666504	0.009620127298
23	19183	58.627584722189	0.007322175732
23	19188	58.635443519275	0.007322175732
23	19193	58.649257365399	0.00732294173
23	19198	58.656580307129	0.009410468171
23	19206	58.663903248859	0.01380276999
23	19211	58.671226190589	0.017044505532
23	19216	58.678549898478	0.016311722922
23	19218	58.685873606367	0.021049771422
23	19226	58.693197314256	0.012200679236
23	19228	58.700521022145	0.019501535293
23	19233	58.707845496352	0.010994378054
23	19238	58.715320619808	0.007324474207
23	19246	58.722645094015	0.014579088249
23	19248	58.729969568222	0.018848388651
23	19253	58.737294808908	0.011440654947
23	19258	58.744620049594	0.011319973501
23	19263	58.75194529028	0.012204983444
23	19271	58.759270530966	0.012037848625
23	19273	58.766596538292	0.015546237891
23	19278	58.783420521353	0.007326774126
23	19283	58.790747295479	0.014313883015
23	19288	58.798074069605	0.007624574466
23	19293	58.807144036473	0.007326774126
23	19298	58.825306373318	0.007327541087
23	19303	58.832633914405	0.010547385241
23	19308	58.84944084479	0.007328308208
23	19313	58.867679128452	0.007329075489
23	19318	58.875008203941	0.011790794123
23	19323	58.899447725893	0.007329842932
23	19328	58.910074877083	0.007329842932
23	19333	58.917404720015	0.008356691587
23	19338	58.928822746943	0.007330610535
23	19343	58.936153357478	0.008092826544
23	19348	58.943483968013	0.014153138987
23	19353	58.950814578548	0.011173627764
23	19358	58.958145956847	0.008602929379
23	19363	58.982882226277	0.007332146224
23	19368	58.990214372501	0.010757487511
23	19373	59.006075515888	0.00733291431
23	19378	59.02232192737	0.00733291431
23	19383	59.02965484168	0.013232427731
23	19388	59.049556860566	0.007333682556
23	19399	59.056890543122	0.01447097089
23	19401	59.064224994086	0.017903502341
23	19403	59.07155944505	0.022359049137
23	19408	59.094731936957	0.007335219533
23	19413	59.10206715649	0.010841974382
23	19418	59.109402376023	0.008983461709
23	19423	59.116737595556	0.013653578644
23	19428	59.125428093773	0.007335988262
23	19433	59.154806255903	0.007336757153
23	19438	59.164658945415	0.007336757153
23	19443	59.171995702568	0.014008494865
23	19448	59.182229343606	0.007337526205
23	19453	59.192441980693	0.007337526205
23	19458	59.199779506898	0.013376846896
23	19463	59.207117802317	0.009593469372
23	19468	59.233610207303	0.007339064793
23	19473	59.240949272096	0.008675574012
23	19481	59.248288336889	0.010585476634
23	19483	59.255627401682	0.016944556037
23	19488	59.280878573312	0.007340604027
23	19493	59.302957679262	0.007340604027
23	19498	59.326886578164	0.007341373886
23	19503	59.33422795205	0.008530251069
23	19508	59.341570095956	0.013524054312
23	19513	59.364171182163	0.007342914088
23	19518	59.371514096251	0.010291315701
23	19523	59.378857010339	0.013433789124
23	19528	59.396848602207	0.007343684431
23	19533	59.427418889767	0.007344454937
23	19538	59.434763344704	0.012440818649
23	19543	59.446362742756	0.007345225603
23	19548	59.461073114949	0.007345225603
23	19553	59.473109296354	0.007345996432
23	19564	59.480455292786	0.014372571724
23	19572	59.487801289218	0.02129380781
23	19577	59.49514728565	0.022878152495
23	19579	59.502493282082	0.028995863285
23	19584	59.509840049504	0.030476272414
23	19589	59.517186816926	0.031110191175
23	19591	59.524533584348	0.024868698794
23	19593	59.53188035177	0.024364118802
23	19598	59.543995012262	0.007347538575
23	19603	59.551497040247	0.007347538575
23	19608	59.558844578822	0.012377518419
23	19613	59.568072513715	0.007348309889
23	19618	59.575420823604	0.010384122381
23	19623	59.582769133493	0.011811218465
23	19628	59.595659582265	0.007349081365
23	19633	59.612422279428	0.007349853003
23	19638	59.630041757452	0.007349853003
23	19643	59.638413265132	0.007350624803
23	19651	59.645763889935	0.014357805806
23	19653	59.653114514738	0.02105681123
23	19658	59.678468759092	0.007351396765
23	19663	59.717506611366	0.007352941176
23	19668	59.754290090976	0.007353713625
23	19673	59.771859007507	0.007353713625
23	19678	59.790962349952	0.007354486237
23	19683	59.813789618591	0.00735525901
23	19688	59.832363020915	0.007356031946
23	19693	59.839719052861	0.011894798155
23	19698	59.849537030887	0.007356031946
23	19704	59.856893062833	0.011365148149
23	19709	59.865194249726	0.007368421053
23	19714	59.874516637995	0.007380073801
23	19720	59.885859793219	0.007393324884
23	19725	59.906937104423	0.00741918389
23	19730	59.914356288313	0.008211453945
23	19735	59.921784132116	0.01331785427
23	19743	59.929221446183	0.013205796221
23	19745	59.936667462564	0.019526176666
23	19751	59.959688302445	0.007483429549
23	19756	59.986962362929	0.007517182131

