version 2
run Nonmonitoring-exponential-501-20210224-17:49:29-27037
attr configname Nonmonitoring-exponential
attr datetime 20210224-17:49:29
attr experiment Nonmonitoring-exponential
attr inifile aerocom.ini
attr iterationvars $0=50
attr iterationvarsf 50-
attr measurement $0=50
attr network Aerocom
attr processid 27037
attr repetition 1
attr replication #1
attr resultdir results
attr runnumber 501
attr seedset 1
param **.t 2s
param **.k 50ms
param **.X 0.05s
param **.m 1s
param **.tDistribution "\"exponential\""
param **.operationMode 1
param **.s "70 byte"
param **.dimPoolMax 10000
param **.dimPoolMin 8000
param **.nDL 16
param **.nA 1
param **.DLMaxCapacity 0
param **.trasmitting false

vector 0 Aerocom.aircraft[0].linkSelector responseTime:vector ETV
attr "" ""
attr source computeResponseTime
vector 1 Aerocom.aircraft[0].packetGenerator arrivalTime:vector ETV
attr "" ""
attr source computeArrivalTime
vector 2 Aerocom.aircraft[0].linkSelector waitingTime:vector ETV
attr "" ""
attr source computeWaitingTime
vector 3 Aerocom.aircraft[0].linkSelector queueLength:vector ETV
attr "" ""
attr source computeQueueLength
vector 4 Aerocom.aircraft[0].dataLink[0] actualCapacity:vector ETV
attr "" ""
attr source computeActualCapacity
vector 5 Aerocom.aircraft[0].linkSelector serviceTime:vector ETV
attr "" ""
attr source computeServiceTime
vector 6 Aerocom.aircraft[0].dataLink[8] tDistribution:vector ETV
attr "" ""
attr source computeTDistribution
vector 7 Aerocom.aircraft[0].dataLink[0] tDistribution:vector ETV
attr "" ""
attr source computeTDistribution
vector 8 Aerocom.aircraft[0].dataLink[13] tDistribution:vector ETV
attr "" ""
attr source computeTDistribution
vector 9 Aerocom.aircraft[0].dataLink[11] tDistribution:vector ETV
attr "" ""
attr source computeTDistribution
vector 10 Aerocom.aircraft[0].dataLink[12] tDistribution:vector ETV
attr "" ""
attr source computeTDistribution
vector 11 Aerocom.aircraft[0].dataLink[2] tDistribution:vector ETV
attr "" ""
attr source computeTDistribution
vector 12 Aerocom.aircraft[0].dataLink[5] tDistribution:vector ETV
attr "" ""
attr source computeTDistribution
vector 13 Aerocom.aircraft[0].dataLink[10] tDistribution:vector ETV
attr "" ""
attr source computeTDistribution
vector 14 Aerocom.aircraft[0].dataLink[7] tDistribution:vector ETV
attr "" ""
attr source computeTDistribution
vector 15 Aerocom.aircraft[0].dataLink[9] tDistribution:vector ETV
attr "" ""
attr source computeTDistribution
vector 16 Aerocom.aircraft[0].dataLink[1] tDistribution:vector ETV
attr "" ""
attr source computeTDistribution
vector 17 Aerocom.aircraft[0].dataLink[6] tDistribution:vector ETV
attr "" ""
attr source computeTDistribution
vector 18 Aerocom.aircraft[0].dataLink[3] tDistribution:vector ETV
attr "" ""
attr source computeTDistribution
vector 19 Aerocom.aircraft[0].dataLink[14] tDistribution:vector ETV
attr "" ""
attr source computeTDistribution
vector 20 Aerocom.aircraft[0].dataLink[4] tDistribution:vector ETV
attr "" ""
attr source computeTDistribution
vector 21 Aerocom.aircraft[0].dataLink[15] tDistribution:vector ETV
attr "" ""
attr source computeTDistribution
0	1165	10.001304946888	0.008386246556
0	1170	10.078779463538	0.008392279103
0	1176	10.094435390408	0.008394291882
0	1181	10.127625971808	0.008396305626
0	1186	10.236608362567	0.008405379443
0	1191	10.266985501468	0.008408408408
0	1196	10.301972484981	0.008411439558
0	1201	10.314267612887	0.008412450427
0	1206	10.356730018163	0.008415484491
0	1211	10.366483949439	0.008416496333
0	1218	10.387445384903	0.008418520746
0	1221	10.39586491822	0.0130143182
0	1226	10.438308198939	0.008422572494
0	1233	10.549780897871	0.008431703204
0	1236	10.558213616821	0.010437663566
0	1243	10.607319837021	0.00843678438
0	1248	10.615757638371	0.014889803352
0	1251	10.624195439721	0.015592344682
0	1260	11.14781411769	0.008442889881
0	1265	11.174545704591	0.008441871684
0	1272	11.190139856358	0.008440853732
0	1275	11.19858071009	0.014363919445
0	1281	11.207523478472	0.008439836026
0	1286	11.21926994945	0.008439836026
0	1291	11.235461451675	0.008438818565
0	1299	11.301056373512	0.008435767655
0	1304	11.315555696363	0.008434751175
0	1309	11.368205423235	0.00843271895
0	1315	11.482209714366	0.008426628145
0	1320	11.514806879302	0.008425613866
0	1326	11.604966997156	0.008420546133
0	1333	11.621030030708	0.008419533317
0	1336	11.629449564025	0.008929344755
0	1341	11.681747436101	0.008417508418
0	1347	11.951290754787	0.008404370273
0	1358	12.1079744083	0.008396305626
0	1363	12.129955200083	0.008395298633
0	1368	12.158546758516	0.008394291882
0	1375	12.198152337528	0.008392279103
0	1378	12.206543610604	0.013147892947
0	1386	12.235631525103	0.00839026729
0	1393	12.244020786848	0.013806279024
0	1396	12.252410048593	0.015252066651
0	1399	12.260799310338	0.019315970569
0	1406	12.348192317763	0.008384237633
0	1412	12.508764406641	0.008377213978
0	1417	12.521083878914	0.008376211559
0	1422	12.559991082239	0.008374207441
0	1427	12.646944875958	0.008370202081
0	1432	12.737783179016	0.00836620055
0	1440	13.056129672414	0.008350232614
0	1445	13.065448171867	0.008350232614
0	1453	13.302633262135	0.008338296605
0	1459	13.317711838015	0.008338296605
0	1464	13.326290001245	0.008337303478
0	1470	13.38516614709	0.008334325515
0	1475	13.416971936461	0.008333333333
0	1482	13.529928060463	0.008327385201
0	1487	13.591377913292	0.008324414318
0	1492	13.612204880753	0.008323424495
0	1499	13.632980112241	0.008322434907
0	1502	13.641302547148	0.013301905572
0	1507	13.695979993673	0.008319467554
0	1512	13.79577507572	0.008315514374
0	1517	13.864768398139	0.008311564949
0	1522	13.881953404424	0.008310578179
0	1527	13.96687257839	0.00830663344
0	1532	14.03443189322	0.008303677343
0	1537	14.128529330059	0.008298755187
0	1544	14.137130092199	0.008298755187
0	1547	14.145428847386	0.012342974195
0	1552	14.200747859663	0.008295804693
0	1557	14.219132496009	0.008294821661
0	1563	14.311203249786	0.008290891863
0	1569	14.352362515499	0.00828892836
0	1574	14.417301605975	0.008285984848
0	1581	14.543494013907	0.008279124778
0	1589	14.565737714232	0.008278145695
0	1592	14.574015859927	0.011571830336
0	1597	14.635576624363	0.008275209836
0	1604	14.661610941883	0.008274231678
0	1607	14.669884195636	0.009037312343
0	1612	14.707777909568	0.008271298594
0	1617	14.726608609614	0.008271298594
0	1622	14.779035858909	0.008268367588
0	1627	14.806235285224	0.008267391048
0	1632	14.824784712966	0.008266414738
0	1639	14.929644648618	0.008261536646
0	1646	15.021693703041	0.008256664308
0	1651	15.030040147141	0.008256664308
0	1656	15.064363161632	0.008254716981
0	1662	15.170423496598	0.008249852681
0	1667	15.231246421753	0.008246936852
0	1672	15.311456179851	0.008243052285
0	1677	15.368251732177	0.008241111373
0	1683	15.546354107657	0.008232388569
0	1688	15.595181234681	0.008230452675
0	1693	15.618100068645	0.008229485069
0	1698	15.92433309025	0.00821499824
0	1703	15.935798996543	0.008214034264
0	1708	15.944495667831	0.008214034264
0	1713	15.958254081156	0.008213070515
0	1720	16.043863112362	0.008209217779
0	1726	16.13183243677	0.008205368655
0	1731	16.149843990844	0.008204406939
0	1738	16.317783659778	0.008196721311
0	1741	16.325979421398	0.010794385356
0	1746	16.383379578543	0.008193842912
0	1751	16.400243537399	0.008192883895
0	1756	16.433178621601	0.008190966534
0	1761	16.495694832749	0.008188092175
0	1767	16.512611057943	0.008187134503
0	1772	16.526230130768	0.008187134503
0	1778	16.615919797806	0.008182349503
0	1783	16.675728975488	0.008180437069
0	1793	16.778580621042	0.008175659893
0	1796	16.786755326169	0.015057396888
0	1799	16.794930031296	0.0183993103
0	1805	16.916601787019	0.008168981211
0	1810	16.928764924194	0.008168028005
0	1816	16.951319240151	0.00816707502
0	1822	17.040433941715	0.008163265306
0	1828	17.120916365015	0.008159459144
0	1833	17.215205416033	0.008154706431
0	1840	17.278771592166	0.008151857459
0	1845	17.297662142515	0.008150908244
0	1850	17.343787070943	0.008149010477
0	1855	17.360162363691	0.008148061925
0	1860	17.37332556414	0.008148061925
0	1865	17.401501157637	0.008146165484
0	1871	17.430812493494	0.008145217594
0	1876	17.46957691114	0.008143322476
0	1884	17.521086494104	0.008141428239
0	1887	17.529226975555	0.011259567356
0	1892	17.602356207663	0.008137642409
0	1898	17.693024788722	0.008132915069
0	1905	17.771958242646	0.008130081301
0	1910	17.810213747839	0.008128193219
0	1915	17.834189559313	0.008127249507
0	1920	17.908761379461	0.008123476848
0	1925	17.934965859258	0.008122534231
0	1932	17.94808748768	0.008121591832
0	1935	17.956209079512	0.010659764991
0	1942	18.121704576335	0.008114060508
0	1948	18.150604655056	0.008112179859
0	1953	18.220122438571	0.008109360519
0	1958	18.316404226918	0.008104665972
0	1964	18.337413995162	0.008103727715
0	1969	18.511791945811	0.00809622947
0	1975	18.660120919823	0.00808967988
0	1980	18.723793413206	0.008086876155
0	1986	18.784074621318	0.008084074373
0	1991	18.810462132476	0.008082207597
0	2000	18.902271523533	0.008086876155
0	2009	18.910359334047	0.008681396408
0	2012	18.918448079136	0.014441900758
0	2017	18.926536824225	0.021413466676
0	2020	18.934626504105	0.026640673226
0	2023	18.942717118992	0.022155659459
0	2028	18.996538688173	0.008094357077
0	2033	19.018601316822	0.00809622947
0	2038	19.036771870969	0.008097165992
0	2043	19.113114553555	0.008102789675
0	2049	19.149481982358	0.008105604447
0	2055	19.179322241763	0.008108421175
0	2060	19.187817930015	0.008108421175
0	2065	19.220222916381	0.008111239861
0	2072	19.410964644604	0.008125362739
0	2077	19.447280522268	0.008128193219
0	2082	19.482216578134	0.008131025671
0	2087	19.505199771878	0.008132915069
0	2094	19.593511292794	0.008139534884
0	2101	19.608731773579	0.008140481451
0	2104	19.616873201818	0.012435816655
0	2111	19.693768432917	0.008147113594
0	2117	19.726363426503	0.00814995925
0	2124	19.841888125629	0.008158508159
0	2127	19.850046633788	0.013101850005
0	2132	19.867504290964	0.008160410352
0	2137	19.975325288651	0.008168981211
0	2142	20.083069058865	0.008176614881
0	2147	20.112584325815	0.008179481187
0	2156	20.130858619665	0.008180437069
0	2159	20.139040012839	0.012811196044
0	2166	20.151093240132	0.008182349503
0	2171	20.159275589635	0.012385676407
0	2174	20.167458895691	0.008599343596
0	2179	20.205741108162	0.008186177055
0	2186	20.233002361108	0.008188092175
0	2191	20.241191411178	0.012448439385
0	2196	20.249381419368	0.01391493936
0	2199	20.257571427558	0.01195185063
0	2206	20.501377990062	0.008209217779
0	2211	20.530046634005	0.008211143695
0	2217	20.558465497439	0.008213070515
0	2224	20.592904521775	0.008215962441
0	2229	20.640855935821	0.008219821512
0	2234	20.684630664547	0.008223684211
0	2242	20.877991103498	0.008238201718
0	2247	20.926441688514	0.008242081714
0	2252	20.943803967726	0.008243052285
0	2257	20.967131317089	0.008244994111
0	2262	20.997419606222	0.008247908566
0	2267	21.045636733413	0.008251797713
0	2272	21.071024943702	0.008253743662
0	2277	21.079578872724	0.008253743662
0	2282	21.157283281636	0.008260561718
0	2287	21.173398517252	0.008261536646
0	2293	21.221447761645	0.008265438659
0	2299	21.301606107547	0.008271298594
0	2305	21.346376370105	0.008275209836
0	2312	21.354684371285	0.008275209836
0	2315	21.362960559509	0.009896438039
0	2322	21.373977822706	0.008277166844
0	2327	21.382255968401	0.014984432488
0	2330	21.390534114096	0.009344417881
0	2335	21.402673504256	0.008279124778
0	2344	21.435325414776	0.008282063417
0	2347	21.443608458203	0.015923229791
0	2355	21.45189150163	0.024168983305
0	2358	21.460175525299	0.016398821618
0	2361	21.468460529442	0.023144813445
0	2367	21.595902380985	0.008294821661
0	2372	21.626857207704	0.008296787958
0	2377	21.6430604303	0.008298755187
0	2384	21.651928366394	0.008298755187
0	2387	21.660228105545	0.012657793437
0	2393	21.712767921608	0.008303677343
0	2398	21.728804415046	0.008305647841
0	2405	21.808097520887	0.008311564949
0	2412	22.021643427485	0.008328375967
0	2417	22.064804250656	0.008332341388
0	2422	22.092269349858	0.008334325515
0	2427	22.151607975311	0.008339289969
0	2432	22.21710916455	0.008344260341
0	2437	22.241904558158	0.008346250149
0	2444	22.289658748608	0.008350232614
0	2449	22.298008981222	0.014330358038
0	2452	22.306360210046	0.012713877525
0	2457	22.330938856573	0.008353221957
0	2462	22.399039428271	0.008358208955
0	2467	22.422300612691	0.008360205422
0	2472	22.445047065446	0.008362202843
0	2477	22.490492401124	0.00836620055
0	2484	22.565474253137	0.008372204282
0	2487	22.573846457419	0.009538292112
0	2493	22.651517211533	0.008379219536
0	2498	22.66443815989	0.008380222674
0	2503	22.714739746931	0.008384237633
0	2508	22.799057982504	0.008391273076
0	2514	22.870552583163	0.008396305626
0	2519	22.885902975305	0.008398320336
0	2524	22.936719865589	0.008402352659
0	2529	22.963130663861	0.008404370273
0	2534	23.016364656244	0.008408408408
0	2542	23.153797660724	0.008419533317
0	2547	23.162218206857	0.016816132941
0	2550	23.17063875299	0.009119382558
0	2558	23.207849980635	0.008423586041
0	2561	23.216274580467	0.00899853586
0	2566	23.225535189206	0.008425613866
0	2573	23.286065575151	0.008419533317
0	2578	23.35934119423	0.008399328054
0	2585	23.401187680507	0.008387251378
0	2588	23.40957191814	0.015504302055
0	2597	23.449726005508	0.008373205742
0	2600	23.458097208569	0.013337431812
0	2603	23.466465409406	0.019558647243
0	2608	23.475018809923	0.00836620055
0	2613	23.50201211814	0.008358208955
0	2622	23.545845258648	0.008346250149
0	2625	23.554188524441	0.016475737549
0	2630	23.562529801848	0.019516883715
0	2633	23.570868098453	0.013701513705
0	2638	23.600347007197	0.008330358205
0	2643	23.661548519448	0.008313539192
0	2652	23.742247448595	0.008290891863
0	2655	23.750535395552	0.013403048253
0	2660	23.7588213804	0.018040614972
0	2663	23.767105404069	0.008868498206
0	2668	23.857783075461	0.008258612553
0	2676	24.079336584299	0.008197681227
0	2682	24.137924008371	0.008181393174
0	2691	24.315284089463	0.008133860098
0	2694	24.323415115134	0.009636431048
0	2699	24.35477539498	0.008122534231
0	2705	24.392901020031	0.008113120074
0	2710	24.459415465052	0.008095293165
0	2717	24.552428698367	0.008070094535
0	2722	24.602488489721	0.008057090239
0	2727	24.650506552381	0.008044127787
0	2732	24.681837482791	0.008035816783
0	2741	24.942102546239	0.00796812749
0	2746	25.039346897433	0.007943713118
0	2751	25.059678511239	0.007938308006
0	2756	25.06914422265	0.007935608208
0	2762	25.162104286389	0.007912286651
0	2768	25.25022074835	0.007889990983
0	2776	25.276280775753	0.007882882883
0	2779	25.284161883612	0.013614987162
0	2786	25.375517200888	0.007858105074
0	2791	25.476344602829	0.00783260602
0	2796	25.555887102798	0.007813372028
0	2803	25.612223235442	0.007799442897
0	2806	25.620020072154	0.01000825988
0	2811	25.6473243531	0.007790762382
0	2816	25.7101386294	0.007775186049
0	2822	25.765796451503	0.007761392616
0	2828	25.854334629129	0.00773993808
0	2833	25.885170373674	0.007732243455
0	2838	25.935520274647	0.007720304401
0	2843	26.011208706587	0.00770161734
0	2850	26.032004591852	0.007696536559
0	2853	26.039699436306	0.009370826882
0	2858	26.048636247006	0.007692307692
0	2863	26.084107633009	0.007683863886
0	2868	26.12587703023	0.007673755755
0	2875	26.228439962628	0.00764943722
0	2878	26.236087728388	0.013927005151
0	2886	26.361007986756	0.007618633
0	2891	26.368624132986	0.012513288805
0	2894	26.376238622271	0.007683145793
0	2900	26.460864333583	0.007594662038
0	2906	26.475373995325	0.007591367531
0	2911	26.562009605509	0.007580680095
0	2920	26.679172526506	0.007566749541
0	2923	26.686738458196	0.013968074121
0	2928	26.701530189854	0.00756429652
0	2935	26.711877567281	0.0075634792
0	2938	26.719440229338	0.01219844749
0	2943	26.770891504719	0.007556131261
0	2949	26.833627597025	0.007548797584
0	2954	26.953107074194	0.007534983854
0	2959	26.979862167929	0.007532551383
0	2964	27.042779092534	0.007525263384
0	2971	27.109233487981	0.007517182131
0	2977	27.18702996428	0.007508312775
0	2984	27.219444196666	0.007505092742
0	2987	27.226947680426	0.01037112131
0	2992	27.258790773142	0.007500267867
0	2997	27.28702686118	0.007497054728
0	3002	27.314050269747	0.007493844342
0	3008	27.436928731421	0.007480230819
0	3013	27.454085008553	0.007477833565
0	3018	27.526305891786	0.007469853804
0	3024	27.64177912009	0.007457121551
0	3029	27.653288429402	0.007455533071
0	3035	27.708531850027	0.00744918591
0	3040	27.721714476683	0.007447600809
0	3047	27.799460914229	0.007438894793
0	3052	27.912813521982	0.00742626777
0	3059	28.025844086101	0.007413683542
0	3064	28.093790356087	0.007405840034
0	3070	28.108185490584	0.007404273323
0	3075	28.135265745903	0.00740114189
0	3081	28.261426125844	0.007387083157
0	3087	28.445737199357	0.007366870133
0	3092	28.544971156479	0.007356031946
0	3097	28.725705483608	0.007335988262
0	3104	28.760971260391	0.007332146224
0	3107	28.76830263869	0.011744971559
0	3112	28.805840371458	0.007327541087
0	3119	28.844649082313	0.007323707889
0	3122	28.851972024043	0.008542096457
0	3127	28.950222790104	0.00731223232
0	3132	29.02201297045	0.007303839733
0	3137	29.066890923288	0.007299270073
0	3142	29.076401297037	0.007298509019
0	3147	29.190070585011	0.007285595337
0	3152	29.228227688469	0.007281805888
0	3159	29.267963099514	0.007277263749
0	3162	29.275239606791	0.007795002456
0	3169	29.367045700179	0.007266687429
0	3172	29.374311633332	0.010747006687
0	3177	29.420940332328	0.007261410788
0	3183	29.467890958604	0.007256141806
0	3188	29.546199400077	0.007247877407
0	3195	29.579980970825	0.007244127083
0	3198	29.587224348308	0.012263461526
0	3204	29.638366294206	0.007238134629
0	3209	29.654274160632	0.007236638065
0	3215	29.732501372961	0.007227671657
0	3220	29.7820525448	0.007222451506
0	3226	29.984848042156	0.007201646091
0	3234	30.030271962048	0.007196463452
0	3237	30.037467685732	0.010000837472
0	3242	30.237798084662	0.007175071751
0	3249	30.287669621602	0.007169927276
0	3255	30.335639497505	0.007164790174
0	3260	30.378651287731	0.007160392799
0	3265	30.420977623526	0.007156000818
0	3270	30.473554705267	0.007150153218
0	3275	30.535434393133	0.00714358608
0	3280	30.574603981988	0.00713994288
0	3285	30.593992736779	0.007137758744
0	3291	30.634739131174	0.007133394477
0	3297	30.661594637047	0.007130487929
0	3302	30.763042681044	0.007120333638
0	3307	30.80536476665	0.007115990648
0	3312	30.835436934238	0.007113098262
0	3317	30.845297124756	0.007111652951
0	3322	30.883576781923	0.007108042242
0	3327	30.943644498017	0.007101552196
0	3332	31.002353566286	0.007095793208
0	3339	31.032227899308	0.007092917216
0	3342	31.03932009789	0.009497321639
0	3347	31.063500187054	0.007089325501
0	3352	31.091772435562	0.007086454748
0	3360	31.261910542842	0.007069278934
0	3365	31.268979107923	0.008751109308
0	3370	31.276046959296	0.01304295594
0	3373	31.283114097105	0.012696119212
0	3380	31.341565716784	0.00706143448
0	3383	31.348626438995	0.014015765542
0	3388	31.391113621849	0.007056451613
0	3393	31.402879739821	0.007055029228
0	3398	31.429139171727	0.007052186178
0	3403	31.4413464329	0.007051475773
0	3408	31.450337216819	0.007050055393
0	3413	31.486642449653	0.007046506946
0	3418	31.509254446533	0.007044379591
0	3423	31.551472919451	0.007040128734
0	3429	31.566327331991	0.007038712921
0	3434	31.65319334111	0.007052186178
0	3439	31.699942199602	0.007060010086
0	3444	31.73329373049	0.007065711113
0	3452	31.889524820977	0.007092198582
0	3457	32.000572888261	0.007110930516
0	3462	32.10762882385	0.007129035543
0	3467	32.132764548032	0.007133394477
0	3472	32.181881847727	0.007141399714
0	3477	32.25014198119	0.007153075823
0	3482	32.305655299612	0.007162590811
0	3487	32.345894590741	0.007169192954
0	3492	32.459643926453	0.00718907261
0	3497	32.508537849302	0.007197943445
0	3502	32.565796016565	0.007207578254
0	3507	32.58156138008	0.007210548002
0	3512	32.61533871312	0.007216494845
0	3518	32.754068098646	0.007240380637
0	3526	32.823358921293	0.007252382926
0	3531	32.896780510835	0.007265179035
0	3537	32.91049377708	0.007268196449
0	3545	32.918362786442	0.007269706096
0	3548	32.925633247597	0.014044881032
0	3555	32.957413215994	0.007276507277
0	3558	32.964690479743	0.010217447012
0	3566	33.235269852071	0.007326007326
0	3573	33.270454503476	0.007332146224
0	3576	33.277788186032	0.0121508063
0	3581	33.306923997901	0.007339064793
0	3586	33.324962647728	0.007342143906
0	3591	33.375864593803	0.007351396765
0	3597	33.443386537984	0.007362995687
0	3608	33.486166780419	0.007370748657
0	3611	33.49353908163	0.012735196989
0	3614	33.500912936049	0.01622584195
0	3620	33.560725169931	0.007384745226
0	3625	33.585960609319	0.007389422569
0	3630	33.628566335964	0.007397231322
0	3636	33.652981225341	0.0074019245
0	3642	33.718776518342	0.007413683542
0	3647	33.739453725349	0.007417611529
0	3653	33.779478787718	0.007424692406
0	3658	33.816908718415	0.007431786814
0	3665	33.95711073786	0.007457916045
0	3671	33.995176226007	0.007465074118
0	3677	34.016443325408	0.007469056765
0	3682	34.055125578623	0.007476236249
0	3687	34.097854499902	0.007484229659
0	3694	34.161163817969	0.007496251874
0	3697	34.168660872697	0.012387573361
0	3702	34.190119854164	0.007501071582
0	3707	34.230436174023	0.007509118215
0	3712	34.2763595044	0.007517989475
0	3719	34.303548406263	0.007522837184
0	3722	34.31107286074	0.013231819977
0	3728	34.509775091777	0.00772882853
0	3733	34.536663058674	0.007927519819
0	3742	34.682866141455	0.008554319932
0	3749	34.805744710521	0.00848279205
0	3752	34.814222365844	0.009519236965
0	3762	34.92413269609	0.008414472893
0	3765	34.932542114639	0.014698572933
0	3772	35.022942220767	0.008358208955
0	3775	35.031296439648	0.010282388305
0	3781	35.04925074748	0.008344260341
0	3788	35.059950689775	0.008338296605
0	3791	35.068284023108	0.012162065784
0	3797	35.129183720872	0.008299739151
0	3803	35.150151088652	0.008287946957
0	3810	35.189390262789	0.008266414738
0	3813	35.197651799435	0.01622417835
0	3820	35.2279504812	0.008244994111
0	3824	35.23619062246	0.013869633189
0	3829	35.261778745073	0.008226583617
0	3838	35.417246325683	0.008143322476
0	3842	35.425384914219	0.015946074707
0	3847	35.493682389784	0.008102789675
0	3852	35.51858618885	0.008088745089
0	3857	35.557365961859	0.008069164265
0	3863	35.899591107562	0.007893549842
0	3870	36.204006651689	0.007744219493
0	3875	36.289786620596	0.007703312424
0	3881	36.399543468619	0.007651109411
0	3888	36.442055706135	0.007631091246
0	3893	36.4496834712	0.010937804628
0	3896	36.457307082614	0.007624815839
0	3901	36.469766340213	0.007617803896
0	3906	36.596288615151	0.007559395248
0	3911	36.691473975472	0.00751637496
0	3916	36.719056248748	0.00750348376
0	3923	36.826750674209	0.007454739084
0	3928	36.87502006281	0.007433365191
0	3933	36.90781422855	0.00741918389
0	3938	36.919160512669	0.007413683542
0	3944	36.932042057417	0.007408191343
0	3949	36.951913181959	0.007399577167
0	3954	37.024878192837	0.007367645511
0	3962	37.046025993037	0.007362995687
0	3965	37.053388988724	0.011588922756
0	3970	37.074268126228	0.007362221287
0	3977	37.083530516297	0.007362221287
0	3980	37.090892737584	0.013600305481
0	3985	37.102693072785	0.007362221287
0	3992	37.156683071306	0.007360672976
0	3997	37.164043744282	0.012829141286
0	4000	37.171404417258	0.010873936702
0	4008	37.488145519858	0.007354486237
0	4013	37.534373527931	0.007353713625
0	4018	37.584855009275	0.00735216889
0	4023	37.633178251136	0.007351396765
0	4028	37.66087757259	0.007350624803
0	4033	37.720727446066	0.007349853003
0	4039	37.748532231694	0.007349081365
0	4044	37.765792931193	0.007349081365
0	4049	37.802854914724	0.007348309889
0	4054	37.820121961472	0.007347538575
0	4059	37.887472769101	0.007345996432
0	4064	37.957905024732	0.007345225603
0	4069	38.045604848007	0.007342914088
0	4074	38.070174317999	0.007342914088
0	4079	38.099483129832	0.007342143906
0	4084	38.107754184361	0.007342143906
0	4089	38.141348536334	0.007341373886
0	4096	38.259179762933	0.007339064793
0	4105	38.276161082478	0.007338295419
0	4108	38.283499377897	0.01401813365
0	4111	38.290837673316	0.01995509345
0	4118	38.387010092228	0.007336757153
0	4121	38.39434608049	0.009238615588
0	4126	38.409727149863	0.007335988262
0	4132	38.440618536231	0.007335219533
0	4138	38.46466772396	0.007335219533
0	4145	38.488355448924	0.007334450964
0	4151	38.680116627008	0.007330610535
0	4157	38.728244683967	0.007329842932
0	4163	38.756938909548	0.007329075489
0	4169	38.866764160525	0.007326774126
0	4175	38.929681670893	0.007326007326
0	4182	38.990360694335	0.007324474207
0	4189	39.016943903885	0.007323707889
0	4192	39.024267611774	0.012397743269
0	4199	39.14159252648	0.007321409894
0	4204	39.150072631986	0.007321409894
0	4211	39.213628486059	0.007319878699
0	4214	39.220948364758	0.008157250367
0	4219	39.252873113132	0.007319113342
0	4226	39.315121538834	0.007318348144
0	4229	39.322439121941	0.010236885226
0	4234	39.343024970789	0.007317583107
0	4239	39.365623265852	0.007316818229
0	4244	39.407107715526	0.007316053512
0	4249	39.440833694255	0.007315288954
0	4254	39.574240323412	0.007312996239
0	4259	39.590934595298	0.007312996239
0	4264	39.663006496585	0.007311468561
0	4269	39.701252986311	0.007310704961
0	4274	39.733096974126	0.00730994152
0	4281	39.744861011733	0.00730994152
0	4284	39.752170189973	0.012363224915
0	4289	39.781209650769	0.00730917824
0	4294	39.817124300962	0.007308415118
0	4299	39.854662903147	0.007307652156
0	4304	39.909519612447	0.007306126709
0	4311	39.965463627052	0.007305364225
0	4314	39.972768991277	0.009962126956
0	4319	40.038507076208	0.007303839733
0	4324	40.05327298806	0.007303839733
0	4329	40.118733268889	0.007302315877
0	4334	40.127114599097	0.007302315877
0	4339	40.154706280114	0.007301554188
0	4344	40.194122779096	0.007300792657
0	4349	40.224557938049	0.007300031286
0	4355	40.382433542676	0.007296987387
0	4361	40.485809717159	0.007294706128
0	4366	40.525861277777	0.007293946025
0	4372	40.548393915086	0.007293946025
0	4380	40.610853327165	0.007292426294
0	4386	40.677828612079	0.007290907197
0	4391	40.749296693362	0.007290147886
0	4398	41.005654628956	0.007284837132
0	4403	41.024694433668	0.007284837132
0	4411	41.154077180944	0.007281805888
0	4414	41.161358986832	0.010736637535
0	4419	41.197744061594	0.007281048471
0	4424	41.235381377659	0.007280291212
0	4432	41.253581563362	0.007280291212
0	4435	41.260861097472	0.007410013619
0	4442	41.309414286804	0.007278777165
0	4445	41.316693063969	0.009864407558
0	4450	41.371755085591	0.007278020378
0	4455	41.38147019629	0.007277263749
0	4460	41.418898444779	0.007276507277
0	4466	41.464291723903	0.007275750961
0	4471	41.485179487563	0.007275750961
0	4476	41.525573432935	0.007274994804
0	4482	41.555960301424	0.007274238803
0	4490	41.612309916833	0.007272727273
0	4493	41.619582644106	0.010278956463
0	4499	41.676596182304	0.007271971743
0	4504	41.693810320132	0.007271216371
0	4510	41.765538152258	0.007269706096
0	4515	41.773364805582	0.007269706096
0	4520	41.787661647532	0.007269706096
0	4526	41.842562869323	0.007268196449
0	4531	41.872150123537	0.007268196449
0	4538	42.032142629602	0.007265179035
0	4543	42.039407054675	0.009411078126
0	4546	42.046671479748	0.008122165771
0	4556	42.174574968958	0.007262164125
0	4559	42.181837133083	0.013089225098
0	4562	42.189098543871	0.018320256205
0	4567	42.245654304841	0.007260657608
0	4572	42.355437478399	0.007258399005
0	4577	42.377298000512	0.007258399005
0	4582	42.385712260103	0.007257646449
0	4589	42.420969835083	0.007257646449
0	4594	42.428226729132	0.009552350277
0	4597	42.435483623181	0.013659694722
0	4604	42.578107215784	0.00725388601
0	4609	42.587893664641	0.00725388601
0	4614	42.603576542681	0.00725388601
0	4621	42.663030282089	0.007252382926
0	4626	42.681874232279	0.007252382926
0	4631	42.728343625102	0.007251631617
0	4636	42.748105761243	0.007250880464
0	4641	42.844110461565	0.007249378625
0	4646	42.863596733147	0.007248627938
0	4651	43.028331932981	0.007245626747
0	4657	43.18873228161	0.007242628039
0	4662	43.211015825876	0.00724187875
0	4667	43.251656687641	0.007241129616
0	4672	43.300067849391	0.007240380637
0	4677	43.322335336607	0.007239631813
0	4683	43.352015738124	0.007238883144
0	4688	43.359800660512	0.007238883144
0	4693	43.395020123452	0.007238134629
0	4699	43.443036882164	0.00723738627
0	4704	43.467874944985	0.00723738627
0	4709	43.507347042043	0.007235890014
0	4715	43.696821547849	0.007232899359
0	4720	43.731614432737	0.007232152082
0	4726	43.780470865232	0.007228418009
0	4732	43.93457431212	0.007215007215
0	4737	43.942224451197	0.00721426363
0	4742	44.004872800942	0.007209062822
0	4747	44.064689081635	0.007203869507
0	4752	44.074041626389	0.007203128216
0	4758	44.242740135613	0.00718907261
0	4763	44.296857765767	0.007184645386
0	4770	44.409466269153	0.007175071751
0	4775	44.452690550986	0.007171396373
0	4781	44.493510345369	0.007168458781
0	4788	44.510237142117	0.007166990888
0	4791	44.517403399283	0.013592042014
0	4796	44.603465739378	0.007158928206
0	4803	44.685337224811	0.007152344947
0	4809	44.715103900108	0.007149422939
0	4815	44.849403486718	0.007138486641
0	4820	44.949886996184	0.007130487929
0	4826	45.016080791614	0.007124681934
0	4831	45.049061805026	0.00712178248
0	4836	45.07707383144	0.007119609439
0	4841	45.086004807663	0.007118885386
0	4846	45.109972304101	0.007116714111
0	4851	45.127562009707	0.007115267331
0	4857	45.19580409927	0.007110208228
0	4864	45.246296539911	0.007105877576
0	4867	45.253401696224	0.008504922498
0	4872	45.264537347516	0.007104435197
0	4878	45.341316042721	0.007097951734
0	4883	45.419918193839	0.007091480093
0	4890	45.454453345032	0.007088607595
0	4895	45.461541234866	0.00747092978
0	4898	45.4686291247	0.010923886035
0	4903	45.514703190682	0.007083586319
0	4909	45.601289796712	0.007077140835
0	4914	45.658514661958	0.007075710098
0	4919	45.68336891646	0.007074994946
0	4927	45.735362934413	0.007073565077
0	4932	45.74243649949	0.00850185491
0	4937	45.749510064567	0.010470609991
0	4940	45.756582914926	0.007997634175
0	4945	45.774323712171	0.007072850359
0	4953	45.8724242716	0.00706999293
0	4958	45.87949426453	0.01102701749
0	4961	45.88656425746	0.008615089576
0	4966	45.982977449181	0.007067137809
0	4972	46.059657164781	0.007064997981
0	4977	46.11429629414	0.007063572149
0	4987	46.195805814729	0.00706143448
0	4990	46.202867249209	0.012459064429
0	4993	46.209928683689	0.014995910829
0	4998	46.341214340594	0.007057874571
0	5003	46.369794328594	0.00705716302
0	5008	46.38745561943	0.007056451613
0	5014	46.464813972407	0.007054318251
0	5021	46.677893574942	0.007048635586
0	5028	46.711566061975	0.007047925896
0	5031	46.718613987871	0.011148579422
0	5036	46.815012173978	0.007045088567
0	5041	46.861060941255	0.007043670759
0	5046	46.884939548138	0.007042962069
0	5051	46.91499140077	0.007042253521
0	5057	46.96447604205	0.007041545116
0	5063	47.036629244368	0.007039420756
0	5068	47.048637952466	0.007038712921
0	5077	47.143062637674	0.007036590269
0	5082	47.235399022196	0.007033762058
0	5087	47.25108383975	0.007033762058
0	5093	47.342509639165	0.007030936119
0	5099	47.504541309536	0.007026701466
0	5104	47.546257059104	0.007025996186
0	5110	47.628953711918	0.007023881196
0	5116	47.648463740405	0.007023176482
0	5121	47.662721138966	0.007023176482
0	5126	47.684072866887	0.00702247191
0	5134	47.804190468528	0.007018951168
0	5141	47.84934402338	0.007018247443
0	5149	47.88574194505	0.007016840417
0	5152	47.892758785467	0.007161926343
0	5157	47.929371547913	0.007016137115
0	5162	47.965085907918	0.007014730935
0	5168	48.031453259743	0.007029524001
0	5173	48.048976938828	0.007045088567
0	5179	48.156071088918	0.007145044401
0	5184	48.176987055991	0.007165523595
0	5189	48.228792653818	0.007215007215
0	5196	48.248229825189	0.007233646791
0	5199	48.255470205826	0.009068213796
0	5204	48.343679972384	0.007327541087
0	5210	48.40673201191	0.007390983001
0	5215	48.416390332558	0.007400359446
0	5221	48.446855658009	0.007431786814
0	5226	48.460357769807	0.00744522442
0	5231	48.485667578973	0.007471448394
0	5236	48.494661906895	0.007481030245
0	5243	48.514247788609	0.007501071582
0	5246	48.521756906824	0.014249392408
0	5251	48.547257050468	0.007535795026
0	5257	48.575008244006	0.007565114017
0	5262	48.675990288132	0.007673755755
0	5267	48.768971582635	0.007776913676
0	5272	48.91136681959	0.007939208348
0	5280	49.028029219818	0.00807847663
0	5285	49.044641826174	0.00809810273
0	5290	49.078091935711	0.008138588536
0	5297	49.171297813722	0.008188092175
0	5302	49.198648178893	0.008183306056
0	5307	49.232555118678	0.008177570093
0	5313	49.333847109658	0.008158508159
0	5318	49.349509761075	0.00815565653
0	5324	49.387093421316	0.008148061925
0	5329	49.40177419526	0.008146165484
0	5334	49.441544129819	0.008138588536
0	5339	49.49320421204	0.00812913715
0	5344	49.545587687951	0.008119707691
0	5352	49.571571628227	0.008114060508
0	5355	49.579684748301	0.012079143086
0	5361	49.665396512069	0.008097165992
0	5366	49.756543921755	0.008080341683
0	5373	49.785124504728	0.008075680665
0	5376	49.79319832249	0.010561392687
0	5383	49.88140399123	0.008058017728
0	5388	49.919396217084	0.008051529791
0	5393	49.958410107893	0.008044127787
0	5400	50.088578020365	0.008021083992
0	5405	50.198697064849	0.00800091439
0	5411	50.238471658442	0.007993605116
0	5416	50.31311138959	0.00798084597
0	5421	50.334051065421	0.007977207977
0	5426	50.350229576655	0.007974481659
0	5431	50.415064397145	0.007962689114
0	5436	50.423342161913	0.007960877971
0	5443	50.538961413644	0.007941009643
0	5448	50.630247676337	0.007924827352
0	5453	50.678125901847	0.007916760914
0	5461	50.745345020661	0.00790513834
0	5466	50.753248373941	0.012933065886
0	5469	50.761149942967	0.015385416467
0	5476	50.859168391779	0.007884658707
0	5483	50.886998583863	0.007880220646
0	5486	50.894877030683	0.014851616968
0	5491	50.94444335361	0.007870474477
0	5496	51.001130980645	0.007860752386
0	5501	51.029985789118	0.007855459544
0	5509	51.145169037321	0.007886435331
0	5514	51.164140606307	0.007891770011
0	5519	51.172709126297	0.007894440059
0	5526	51.271463323394	0.007924827352
0	5531	51.309031314116	0.007936507937
0	5536	51.374627309674	0.007956353717
0	5543	51.435694595595	0.007975390224
0	5549	51.443934854549	0.007978117164
0	5554	51.453587195684	0.00798084597
0	5559	51.463649694612	0.007983576642
0	5564	51.477719213161	0.007988131918
0	5572	51.539562098927	0.008007320979
0	5575	51.547572168729	0.012572926145
0	5580	51.598461440149	0.008025682183
0	5585	51.607122531739	0.008028443629
0	5593	51.635947521135	0.008037662189
0	5597	51.643987953021	0.009790744563
0	5602	51.676612780773	0.008050603795
0	5607	51.693788117458	0.008056162965
0	5614	51.83405273317	0.008099976857
0	5619	51.903504823199	0.008122534231
0	5625	52.097037251809	0.008185219832
0	5632	52.156213416594	0.008204406939
0	5637	52.210120617392	0.008221752408
0	5642	52.282045780532	0.008245965367
0	5648	52.307937408817	0.008254716981
0	5653	52.361846055102	0.008272276058
0	5660	52.428044427653	0.008293838863
0	5666	52.507121876921	0.008320456436
0	5673	52.540748284834	0.008332341388
0	5676	52.549083602767	0.008603068646
0	5681	52.618515950155	0.008358208955
0	5687	52.658899052073	0.008334325515
0	5694	52.667409254703	0.008320456436
0	5697	52.675715888143	0.015542421832
0	5702	52.684976371786	0.008290891863
0	5708	52.718752364604	0.00823626309
0	5713	52.731586845958	0.00821499824
0	5718	52.824149415458	0.008069164265
0	5726	53.010424267451	0.007889101769
0	5733	53.042383524931	0.007888212756
0	5739	53.094855411143	0.007887323944
0	5745	53.112374860846	0.007887323944
0	5750	53.124892609742	0.007887323944
0	5755	53.140947115057	0.007886435331
0	5760	53.154703810785	0.007886435331
0	5765	53.17970975538	0.007886435331
0	5770	53.226141950602	0.007885546919
0	5776	53.348706882678	0.007882882883
0	5781	53.451503309494	0.007881107859
0	5789	53.634555324403	0.007877560207
0	5792	53.64243288461	0.009829325209
0	5797	53.709472600601	0.007876673793
0	5803	53.82444560589	0.007874901564
0	5809	54.043582815978	0.007870474477
0	5814	54.069687483504	0.007870474477
0	5819	54.141510053769	0.007868705036
0	5824	54.150571224418	0.007868705036
0	5829	54.167291755548	0.007868705036
0	5834	54.189198623809	0.007867820614
0	5841	54.217752362258	0.007867820614
0	5844	54.225619298648	0.009096159004
0	5849	54.288603011906	0.007866052365
0	5854	54.304328223092	0.007866052365
0	5859	54.36610739643	0.007865168539
0	5864	54.419867795972	0.007864284912
0	5871	54.476545637589	0.007862518252
0	5876	54.51059694621	0.007862518252
0	5881	54.544056669707	0.00786163522
0	5888	54.601605606074	0.007860752386
0	5893	54.60946635846	0.007997927282
0	5896	54.617326228211	0.010375635817
0	5902	54.775301843713	0.007857223033
0	5908	54.900555487426	0.007855459544
0	5913	54.912985574853	0.007854578097
0	5918	54.938766221769	0.007854578097
0	5926	55.132847921591	0.007851054284
0	5936	55.17918297201	0.007850173825
0	5939	55.187033145835	0.008885085894
0	5942	55.19488331966	0.016352927055
0	5950	55.382824396843	0.007846653963
0	5955	55.41636459102	0.00784577449
0	5960	55.439954142652	0.00784577449
0	5965	55.584086396397	0.007843137255
0	5972	55.667368286126	0.007841380083
0	5983	55.698798671851	0.007841380083
0	5986	55.706639173643	0.015315939614
0	5989	55.714479675435	0.016077544549
0	5994	55.735682062326	0.007840501792
0	5999	55.754878507661	0.007839623698
0	6006	55.769192112779	0.007839623698
0	6009	55.777031736477	0.008288855577
0	6014	55.835876025809	0.007838745801
0	6019	55.891403080022	0.0078378681
0	6025	55.945789788617	0.007836990596
0	6030	56.041934682696	0.007835236176
0	6037	56.072921044971	0.007834359261
0	6040	56.080755404232	0.013329139445
0	6047	56.136576780872	0.007833482543
0	6050	56.144410263415	0.014574991661
0	6056	56.32909904265	0.007829977629
0	6063	56.341945621935	0.007829977629
0	6066	56.349774723825	0.010764787813
0	6071	56.3583311992	0.00782910189
0	6078	56.399684377511	0.007828226348
0	6081	56.407512603859	0.015443267042
0	6086	56.456241265388	0.007827351001
0	6092	56.477229430516	0.007827351001
0	6097	56.527378015001	0.00782647585
0	6102	56.536189830706	0.00782647585
0	6107	56.551396625096	0.007825600894
0	6112	56.634347355974	0.007824726135
0	6117	56.738298329966	0.007822103028
0	6123	56.765753874951	0.007822103028
0	6128	56.779840940233	0.007822103028
0	6133	56.79335754781	0.00782122905
0	6139	56.886559903279	0.00781948168
0	6145	57.014990423081	0.00781773509
0	6150	57.046802248131	0.007816862088
0	6157	57.063974269656	0.007816862088
0	6160	57.071791131744	0.007912458098
0	6165	57.255026151042	0.007813372028
0	6173	57.341924805659	0.007811628166
0	6178	57.349736433825	0.008240059585
0	6181	57.357548061991	0.011981297956
0	6187	57.439952953204	0.007809013833
0	6192	57.519181594971	0.007802920522
0	6197	57.595063207563	0.007796836712
0	6202	57.640875799181	0.007793364507
0	6208	57.690086565707	0.007789028597
0	6213	57.794718230537	0.007780371235
0	6218	57.825579042395	0.007778642071
0	6223	57.906851645674	0.007771733096
0	6229	57.932413917047	0.00777000777
0	6234	57.958117110973	0.007767421216
0	6243	58.125323441817	0.007754514235
0	6246	58.133077097112	0.008245772581
0	6251	58.183490442087	0.007749363445
0	6256	58.198964942896	0.007748505645
0	6263	58.320989197912	0.007739082366
0	6266	58.328727424753	0.015411138872
0	6272	58.360205286725	0.007735661399
0	6281	58.413180678531	0.007731389441
0	6288	58.440116059377	0.007729681979
0	6291	58.447844887907	0.010988941935
0	6296	58.456731607033	0.00772797527
0	6301	58.466609940357	0.007727122199
0	6306	58.497206754579	0.007724564114
0	6311	58.51125622384	0.007723711795
0	6317	58.656686947038	0.007712648744
0	6322	58.682736823877	0.007710100231
0	6327	58.719693902237	0.007707553402
0	6332	58.777735318309	0.007703312424
0	6337	58.824248457321	0.007699076111
0	6342	58.853637331932	0.007696536559
0	6348	58.909427107107	0.007692307692
0	6353	58.944460416323	0.007689772602
0	6361	59.020856701244	0.007683863886
0	6364	59.028539721769	0.010474786433
0	6369	59.10198531539	0.007677964243
0	6374	59.122621518106	0.007676280294
0	6379	59.151345548621	0.007673755755
0	6384	59.162920415749	0.007672914611
0	6389	59.200314142028	0.007669551879
0	6394	59.267497204623	0.007664513303
0	6401	59.297420193838	0.007661996497
0	6404	59.305082190335	0.014433478963
0	6410	59.388298500385	0.007655293088
0	6417	59.436254535138	0.00765194578
0	6424	59.574359323251	0.007641087218
0	6431	59.634202017468	0.007636085961
0	6436	59.675736931581	0.007632755425
0	6441	59.710858266073	0.007630259429
0	6450	59.722588705348	0.007629427793
0	6453	59.730217301686	0.012983175574
0	6458	59.737845898024	0.016170028679
0	6461	59.745473663089	0.009340801292
0	6467	59.840706238438	0.007620291748
0	6472	59.854284404144	0.007619462284
0	6477	59.906202589196	0.007615317668
0	6482	59.921784598761	0.007614489285
0	6487	60.023582274084	0.007606215365
0	6492	60.038852703331	0.007605388961
0	6497	60.20046528445	0.007593014427
0	6502	60.380523101401	0.007579038545
0	6508	60.427479155095	0.007575757576
0	6515	60.505783062655	0.00757002271
0	6522	60.568355038542	0.007565114017
0	6527	60.679126310067	0.007556946993
0	6532	60.693425121967	0.007555315704
0	6537	60.755922389503	0.007551240561
0	6543	60.789597282307	0.007557762902
0	6548	60.810887646903	0.007565114017
0	6553	60.929858370498	0.00760786871
0	6559	61.07214939859	0.007659481344
0	6564	61.102819430777	0.007670392286
0	6569	61.135958607686	0.007683020525
0	6574	61.169644980694	0.007694844454
0	6579	61.179904261199	0.007699076111
0	6584	61.199032548088	0.007705856451
0	6590	61.264431242009	0.007730535616
0	6596	61.354581949969	0.007763975155
0	6601	61.369595443969	0.007769145394
0	6606	61.429340346084	0.007791629564
0	6612	61.515893138404	0.007824726135
0	6617	61.572302877541	0.00784577449
0	6623	61.639775213307	0.007872244714
0	6628	61.695926342293	0.007893549842
0	6635	61.713072093842	0.007900677201
0	6638	61.720975447122	0.012267436601
0	6643	61.747398335146	0.007914075749
0	6648	61.814282499454	0.007940108893
0	6654	61.877087272693	0.007964501081
0	6659	61.96244105086	0.007998171846
0	6664	62.017596388294	0.008020164986
0	6672	62.141434588511	0.008070094535
0	6679	62.178816536084	0.008063587144
0	6684	62.186878265901	0.012097204392
0	6687	62.194939067375	0.008108989006
0	6692	62.23046065285	0.008053382421
0	6701	62.250064135123	0.008049678013
0	6704	62.258112887566	0.008268431484
0	6709	62.317219462026	0.00803673938
0	6714	62.330278478979	0.008034894399
0	6721	62.360802768487	0.008028443629
0	6724	62.368830291423	0.011201384715
0	6730	62.428912099884	0.008015573113
0	6735	62.467441486136	0.008008237044
0	6744	62.525049520616	0.007997258083
0	6752	62.636841456003	0.007976298997
0	6757	62.658812705065	0.007971757203
0	6764	62.667109249204	0.007970849465
0	6767	62.675078283812	0.010721935508
0	6772	62.707203908067	0.007962689114
0	6777	62.764287789366	0.007951834602
0	6783	62.81294722058	0.007942811755
0	6788	62.834914106344	0.007939208348
0	6795	62.984319714683	0.007911392405
0	6801	63.025928092985	0.00790335328
0	6809	63.074549303491	0.007894440059
0	6812	63.082441963317	0.009110805765
0	6817	63.127777629455	0.007884658707
0	6822	63.135668301748	0.007882882883
0	6827	63.143976693012	0.007881995271
0	6832	63.171539781783	0.007876673793
0	6837	63.19592022832	0.007872244714
0	6842	63.251248722928	0.00786163522
0	6849	63.27982241229	0.00785634119
0	6852	63.287677871834	0.009463977424
0	6857	63.315006104131	0.007850173825
0	6862	63.389452967423	0.007836990596
0	6867	63.425213899075	0.007829977629
0	6872	63.520509193901	0.0078125
0	6877	63.543271733416	0.007809013833
0	6883	63.599093418254	0.007798573975
0	6889	63.660122374089	0.007787295583
0	6894	63.729346848452	0.007775186049
0	6899	63.807761925368	0.007761392616
0	6905	63.821381305045	0.007758811793
0	6912	63.83414291869	0.007756232687
0	6915	63.841898292056	0.010228744074
0	6921	63.852359763799	0.007752796544
0	6926	63.872315300158	0.007749363445
0	6934	64.064828294132	0.007715198942
0	6939	64.072542642821	0.00872200932
0	6942	64.080255291565	0.015058771108
0	6947	64.09984044719	0.007709251101
0	6952	64.137806113804	0.007702464789
0	6961	64.209384030727	0.007689772602
0	6964	64.217072958671	0.012055368461
0	6971	64.229205432487	0.007686395081
0	6974	64.236890983651	0.009708997607
0	6979	64.331693824916	0.007668711656
0	6984	64.377412347107	0.007660319545
0	6989	64.407571244043	0.007655293088
0	6994	64.418482722806	0.007653619068
0	6999	64.427312253424	0.00765194578
0	7004	64.477760641343	0.007643590304
0	7009	64.529151709172	0.007634420329
0	7014	64.574847067304	0.007626103061
0	7019	64.603701405882	0.007621121394
0	7025	64.769771526909	0.007593014427
0	7030	64.789809243165	0.007589721349
0	7036	64.859556742791	0.007577397705
0	7041	64.895874339423	0.007571660357
0	7046	64.972208902029	0.007558578987
0	7053	65.208099693016	0.007518796992
0	7056	65.215616875147	0.010156779521
0	7061	65.282658754655	0.007505897491
0	7066	65.322130596276	0.007499464324
0	7072	65.339503891553	0.007497054728
0	7077	65.362769591787	0.007493042175
0	7082	65.493914144489	0.007470651014
0	7087	65.519997951043	0.007466666667
0	7092	65.530173561216	0.007465074118
0	7098	65.682377522309	0.007439685408
0	7105	65.70859800366	0.007435734013
0	7108	65.71603215829	0.008744631571
0	7113	65.738026632285	0.007430997877
0	7118	65.790385056739	0.007422330612
0	7123	66.002713807727	0.007387862797
0	7132	66.101874434327	0.007371524853
0	7135	66.109245182984	0.014515842928
0	7138	66.116614379742	0.015960226463
0	7143	66.160402675246	0.007362221287
0	7150	66.221884745979	0.00735216889
0	7155	66.257410420419	0.007346767422
0	7160	66.269827341741	0.007344454937
0	7165	66.278302825903	0.007343684431
0	7170	66.297433305223	0.007340604027
0	7175	66.348741028858	0.007332146224
0	7180	66.440271110143	0.007317583107
0	7190	66.522734205145	0.007304601899
0	7193	66.530037282871	0.012486049671
0	7198	66.597675563033	0.007292426294
0	7206	66.677362481753	0.007280291212
0	7209	66.684641258918	0.010518875311
0	7214	66.767979665377	0.007265933153
0	7220	66.847228388657	0.00725313439
0	7225	66.868880307047	0.007250129467
0	7230	66.890101864026	0.007246376812
0	7235	66.938756936396	0.007238883144
0	7243	67.034471163052	0.007223942208
0	7248	67.069896087032	0.007218727441
0	7253	67.11117783494	0.007212776919
0	7260	67.126079376053	0.007209805335
0	7263	67.133288438875	0.010253461423
0	7269	67.206620697584	0.007197943445
0	7276	67.274886063879	0.007187596262
0	7279	67.282072184401	0.013459683292
0	7284	67.317252619262	0.007180960197
0	7289	67.355843128921	0.007175071751
0	7294	67.385860499394	0.00717066175
0	7302	67.547996981334	0.007205352548
0	7307	67.598891946332	0.007231404959
0	7313	67.643914850708	0.007254637786
0	7318	67.673253022329	0.007269706096
0	7325	67.692548523103	0.007280291212
0	7330	67.699832602187	0.012683155084
0	7333	67.707120473088	0.008667446585
0	7338	67.827727230204	0.007351396765
0	7346	67.994768534852	0.007409759712
0	7351	68.011743446081	0.007414468806
0	7356	68.054169589148	0.007424692406
0	7365	68.070553201734	0.00742863207
0	7370	68.077983410841	0.014393133832
0	7373	68.085415986759	0.019275560561
0	7377	68.092850141389	0.017051301841
0	7382	68.146431749203	0.007447600809
0	7387	68.170260598961	0.007453945267
0	7393	68.290385019492	0.007483429549
0	7398	68.320242787045	0.007491438356
0	7403	68.351334413025	0.007499464324
0	7408	68.373684650634	0.007505092742
0	7415	68.457839465641	0.007526072465
0	7421	68.585667051287	0.007559395248
0	7426	68.605607491871	0.00756429652
0	7431	68.624287458788	0.007569204152
0	7436	68.648578321579	0.007574937777
0	7441	68.734249695634	0.007597134795
0	7446	68.751500702818	0.007602085143
0	7453	68.858697842568	0.007630259429
0	7458	68.876175517237	0.007634420329
0	7463	68.903536241635	0.007641921397
0	7471	68.944742838886	0.007652782333
0	7474	68.952397294873	0.014993750776
0	7479	68.964783273204	0.007657805492
0	7487	68.98535751539	0.007663674184
0	7490	68.993022867996	0.011925998688
0	7496	69.121662206804	0.007699923001
0	7502	69.180279909793	0.007715198942
0	7508	69.27332307463	0.00773993808
0	7513	69.291782776073	0.007745076344
0	7518	69.332803193051	0.007756232687
0	7523	69.357712554152	0.007763114118
0	7528	69.411581921308	0.007777777778
0	7534	69.421892272836	0.007780371235
0	7542	69.520545164314	0.007807271916
0	7545	69.528355049397	0.013085915976
0	7550	69.545615226148	0.007814244251
0	7555	69.598736825532	0.00782910189
0	7560	69.618199501778	0.007834359261
0	7565	69.645721431636	0.00784225857
0	7570	69.696027286768	0.00785634119
0	7575	69.830764764071	0.007893549842
0	7584	69.874531848402	0.007906031172
0	7587	69.882439665844	0.014858563519
0	7590	69.890350164205	0.018405031194
0	7595	69.966995884615	0.007932011331
0	7604	69.994505822137	0.007940108893
0	7607	70.002447732734	0.014946359951
0	7612	70.01039234742	0.016251370312
0	7615	70.018338765856	0.014702242234
0	7622	70.045183407725	0.007954545455
0	7625	70.053139761442	0.015214264353
0	7630	70.084957068662	0.007965407374
0	7635	70.120571735095	0.007975390224
0	7640	70.143154188675	0.007982666211
0	7645	70.164984587933	0.007988131918
0	7650	70.198690841089	0.007998171846
0	7655	70.217858172138	0.008003658815
0	7661	70.27752510652	0.008021083992
0	7669	70.460820131454	0.008074749106
0	7672	70.468896743892	0.008198276738
0	7677	70.511931281891	0.00808967988
0	7682	70.530491627378	0.008095293165
0	7687	70.660947167003	0.008133860098
0	7692	70.692939779281	0.008143322476
0	7698	70.802865169774	0.008175659893
0	7703	70.85504204794	0.008191925102
0	7708	70.875790792911	0.008197681227
0	7713	70.942641713936	0.008218856405
0	7719	70.9956574081	0.008234325373
0	7724	71.013425956989	0.00824014126
0	7729	71.024277856956	0.008243052285
0	7734	71.05567127248	0.008252770573
0	7739	71.078423846919	0.008259587021
0	7745	71.093551852029	0.00826446281
0	7752	71.15129462206	0.008282063417
0	7755	71.159579626203	0.009943069372
0	7761	71.199995935148	0.008297771456
0	7768	71.212997662292	0.00830170778
0	7771	71.221301339635	0.012166461349
0	7778	71.387527850796	0.008356213442
0	7781	71.395886059751	0.012646365419
0	7786	71.477119364486	0.008384237633
0	7792	71.550844614678	0.008407398511
0	7799	71.599964969287	0.008423586041
0	7804	71.660360149237	0.008442889881
0	7810	71.676237872493	0.008447984552
0	7815	71.728542277858	0.0084643289
0	7821	71.805575034253	0.008489993936
0	7826	71.818053809004	0.008493084203
0	7833	71.990303581251	0.008550140467
0	7842	72.066910531015	0.008575278697
0	7845	72.075488962388	0.009500909135
0	7853	72.11759235086	0.008592119799
0	7858	72.126187635732	0.012530097655
0	7863	72.134785031949	0.013171086342
0	7868	72.143385597129	0.012874691323
0	7871	72.151989333609	0.012391959273
0	7878	72.261539470043	0.008639842014
0	7883	72.3100414309	0.008656937917
0	7888	72.325234409195	0.00866122247
0	7896	72.516457385016	0.008423586041
0	7902	72.55565556132	0.008355216042
0	7907	72.599682575667	0.008279124778
0	7912	72.777884562538	0.007986309184
0	7917	72.79534614601	0.007958162801
0	7923	72.933865065163	0.007612833061
0	7928	72.996649872142	0.00744047619
0	7935	73.037151371958	0.007430209107
0	7940	73.048517716668	0.007438104346
0	7945	73.083565521758	0.007461891056
0	7952	73.134874551531	0.007497857755
0	7957	73.155606881591	0.007512341704
0	7966	73.182339069552	0.007530930608
0	7969	73.189874864578	0.013940632214
0	7972	73.197416342708	0.019917777874
0	7978	73.218271742627	0.007556131261
0	7984	73.254622703325	0.007582322357
0	7989	73.269162198153	0.007592190889
0	7997	73.304601932242	0.007617803896
0	8000	73.312225543656	0.014932272614
0	8008	73.426477554251	0.007706704833
0	8011	73.434190202995	0.012920538018
0	8016	73.491067894702	0.007754514235
0	8023	73.608584239607	0.007843137255
0	8029	73.626706517279	0.007857223033
0	8034	73.634753965832	0.007863401483
0	8039	73.686597268164	0.00790335328
0	8044	73.697397555215	0.007911392405
0	8049	73.71179342268	0.00792303339
0	8054	73.747404814858	0.007950931395
0	8059	73.800534109837	0.007992692396
0	8064	73.847025124361	0.008030285649
0	8072	73.893057181445	0.008067304368
0	8075	73.901130999207	0.008154083389
0	8080	73.948747967883	0.008112179859
0	8085	73.970196507079	0.008130081301
0	8090	73.978987861483	0.008136696501
0	8098	74.188890226493	0.007703312424
0	8104	74.251245662899	0.008046901943
0	8111	74.329415192366	0.008487935007
0	8116	74.367981439502	0.008474576271
0	8121	74.379705021746	0.008470474347
0	8127	74.447480426642	0.008446965126
0	8140	74.610111618516	0.008391273076
0	8144	74.618499874957	0.014494578812
0	8147	74.626885116931	0.021217938469
0	8152	74.680062274714	0.008367200574
0	8157	74.701333731029	0.008360205422
0	8164	74.851332120035	0.008309591643
0	8170	75.110017121253	0.008223684211
0	8175	75.154054983697	0.008209217779
0	8182	75.194981693391	0.00819576162
0	8185	75.203174577286	0.008838843019
0	8191	75.245251677052	0.008179481187
0	8196	75.37391202035	0.008137642409
0	8202	75.493011628464	0.008099039685
0	8207	75.533562182129	0.008086876155
0	8213	75.598759216832	0.008066374741
0	8218	75.614999741613	0.008060801474
0	8223	75.655404498441	0.008047827087
0	8231	75.704051356471	0.008033050264
0	8237	75.808019769657	0.008
0	8244	75.905901565945	0.007969941933
0	8249	75.913868786523	0.012559131853
0	8252	75.921834193897	0.014793331308
0	8257	75.985432233574	0.007945516459
0	8263	76.026430364787	0.007932910245
0	8268	76.058475240039	0.00792303339
0	8275	76.108543838641	0.007907817442
0	8278	76.116449869813	0.008170536167
0	8283	76.246409438882	0.007866052365
0	8290	76.280784119409	0.00785634119
0	8293	76.288637816256	0.013763230603
0	8300	76.376472842973	0.007827351001
0	8305	76.411868496937	0.007816862088
0	8311	76.474771588579	0.007798573975
0	8316	76.540706664992	0.007778642071
0	8321	76.569458758867	0.007770870337
0	8327	76.623337702139	0.007754514235
0	8332	76.689501930657	0.007735661399
0	8338	76.788288641057	0.007706704833
0	8343	76.802399205001	0.007702464789
0	8350	76.855803116544	0.007687239183
0	8353	76.863488667708	0.009319348375
0	8361	76.911773846978	0.007671232877
0	8364	76.919443398857	0.012398506746
0	8369	76.961769855288	0.007656967841
0	8374	76.973305158558	0.007653619068
0	8379	76.982300126794	0.007651109411
0	8387	77.131982006954	0.007608695652
0	8392	77.228396644853	0.007582322357
0	8397	77.296898007797	0.007562662057
0	8402	77.333157012125	0.007552870091
0	8410	77.42071880717	0.007528500753
0	8413	77.42824568889	0.013976265993
0	8418	77.495163845408	0.007508312775
0	8425	77.581009955789	0.00748502994
0	8431	77.5911121686	0.007481829842
0	8437	77.649420660894	0.007465870307
0	8442	77.697308814379	0.007453151618
0	8447	77.750855024221	0.007438894793
0	8455	77.818419606173	0.007420756917
0	8458	77.825838003799	0.012181639449
0	8464	77.865083484719	0.007408191343
0	8470	77.926181865156	0.007391763464
0	8475	77.946929381055	0.007386303683
0	8480	77.967549481663	0.007380851961
0	8486	78.004238001479	0.007371524853
0	8492	78.088444072521	0.007349081365
0	8499	78.170262939715	0.007327541087
0	8504	78.178744058323	0.007325240686
0	8510	78.197780955469	0.007320644217
0	8515	78.218206633053	0.007315288954
0	8522	78.260333572414	0.007304601899
0	8525	78.267635888291	0.009166053988
0	8534	78.313358191024	0.007296987387
0	8539	78.320654417832	0.013666880337
0	8542	78.32795064464	0.011452918286
0	8547	78.343339233903	0.007295466389
0	8552	78.356639701636	0.007294706128
0	8557	78.416732752581	0.007292426294
0	8565	78.499823145938	0.007288629738
0	8571	78.527039725896	0.007287870901
0	8576	78.597751818271	0.007284837132
0	8581	78.615438103376	0.007284079084
0	8586	78.623076676628	0.007283321194
0	8591	78.760711949346	0.007277263749
0	8596	78.804937561673	0.007275750961
0	8602	78.869793893257	0.007272727273
0	8607	78.891923900589	0.007271971743
0	8615	79.070029064856	0.007263671267
0	8620	79.080280588891	0.007263671267
0	8625	79.098324451377	0.007262917618
0	8630	79.165074248417	0.007259904584
0	8635	79.175858592014	0.007259151716
0	8640	79.284682371039	0.007254637786
0	8646	79.457336183847	0.007247127032
0	8653	79.490530727528	0.007245626747
0	8656	79.497776354275	0.010352039039
0	8661	79.519519542589	0.007244876837
0	8666	79.596486314965	0.007241129616
0	8671	79.608001566574	0.007241129616
0	8677	79.755135618994	0.007234394378
0	8682	79.858307483863	0.007229911175
0	8687	79.921609804181	0.007227671657
0	8692	79.948708354572	0.007226179416
0	8697	79.991424697085	0.00722468779
0	8704	80.013582975781	0.007223196781
0	8709	80.036601015171	0.007222451506
0	8714	80.044716962838	0.007221706386
0	8719	80.062231346134	0.007220961419
0	8726	80.120595785792	0.007218727441
0	8730	80.127814513233	0.010964803317
0	8735	80.166213215802	0.007216494845
0	8740	80.190023553209	0.007215750954
0	8745	80.222342986883	0.00721426363
0	8751	80.25729205995	0.007212776919
0	8756	80.292305868555	0.007211290821
0	8761	80.306609687058	0.007210548002
0	8766	80.420189861253	0.007206094297
0	8776	80.594875021182	0.007198683669
0	8781	80.619860974362	0.007197203372
0	8790	80.946540228853	0.007183908046
0	8798	81.110494550691	0.007176542957
0	8803	81.127581801154	0.007175807278
0	8809	81.181493824246	0.007173601148
0	8814	81.227338407745	0.007172131148
0	8819	81.239011019483	0.007171396373
0	8825	81.346194326215	0.007166990888
0	8830	81.419121432524	0.007164056903
0	8836	81.462937851706	0.007161857991
0	8841	81.494355980754	0.007160392799
0	8846	81.516038070597	0.007159660428
0	8851	81.540594307803	0.007158928206
0	8857	81.634087865941	0.007154538021
0	8862	81.663102440924	0.007153806847
0	8867	81.700716182293	0.007151614221
0	8872	81.731613325875	0.007150883645
0	8878	81.779894653338	0.00714869281
0	8883	81.915005083842	0.007142857143
0	8888	81.985724692024	0.00713994288
0	8894	82.016586314445	0.007138486641
0	8900	82.033589102036	0.007137758744
0	8905	82.048626818061	0.007137030995
0	8910	82.106573428715	0.007134848639
0	8918	82.215151395886	0.007130487929
0	8923	82.230649899706	0.007130487929
0	8928	82.307488153101	0.007128309572
0	8934	82.360330286642	0.007126858074
0	8939	82.405423049476	0.007125407166
0	8944	82.4202496895	0.007125407166
0	8949	82.45121047906	0.007124681934
0	8954	82.530749084938	0.007122507123
0	8959	82.590152664469	0.007121057986
0	8964	82.611485560097	0.007120333638
0	8969	82.726241591237	0.007117437722
0	8974	82.887715650444	0.007113098262
0	8979	82.899483979236	0.007113098262
0	8984	82.909004554924	0.007113098262
0	8990	82.983365054283	0.007110930516
0	8995	83.046009008713	0.007109486086
0	9000	83.093169285672	0.007108042242
0	9005	83.189709303043	0.007105877576
0	9010	83.230235442036	0.007104435197
0	9015	83.332730196872	0.007102272727
0	9020	83.431386895196	0.007099391481
0	9025	83.468087257881	0.007098671534
0	9031	83.751938184257	0.007091480093
0	9036	83.791791195737	0.007090043553
0	9041	83.838919734606	0.007089325501
0	9048	83.856340957569	0.007088607595
0	9052	83.863429565164	0.012947601166
0	9057	83.95468351447	0.007085737423
0	9062	84.006188200814	0.007085020243
0	9068	84.078019594184	0.007082869574
0	9073	84.125183799079	0.00708143652
0	9078	84.161195069334	0.00708072021
0	9083	84.169532742746	0.00708072021
0	9088	84.204488514524	0.007080004046
0	9094	84.28557297876	0.007077856421
0	9100	84.411519208137	0.007074279939
0	9106	84.436231552547	0.007073565077
0	9114	84.477381052797	0.007072850359
0	9119	84.484453903156	0.011542247888
0	9124	84.491526038941	0.013687034623
0	9129	84.498598174726	0.007400626871
0	9132	84.505670310511	0.008748533912
0	9137	84.514590889426	0.007072135785
0	9143	84.587342361997	0.00706999293
0	9149	84.678930783674	0.007067851373
0	9155	84.71623966916	0.007067137809
0	9160	84.762019357188	0.007065711113
0	9165	84.802655167056	0.007064284993
0	9170	84.828975078475	0.007064284993
0	9176	84.857337259919	0.007063572149
0	9183	84.875629231796	0.007062859449
0	9186	84.882692091245	0.012977720837
0	9191	84.897190625339	0.007062146893
0	9198	84.978476297143	0.007060010086
0	9201	84.985536307229	0.009184204754
0	9208	85.007437676889	0.007059298104
0	9211	85.014496974993	0.012779246441
0	9216	85.039975440608	0.007058586266
0	9221	85.112315897057	0.007056451613
0	9227	85.141369535411	0.007055740349
0	9232	85.208616279697	0.007054318251
0	9237	85.215792715969	0.007054318251
0	9242	85.242135889108	0.007053607416
0	9250	85.407267451012	0.007049345418
0	9253	85.41431679643	0.013545407367
0	9259	85.568032651682	0.007045088567
0	9266	85.630433122722	0.007043670759
0	9269	85.637476793481	0.013596194281
0	9276	85.760658735067	0.007040836854
0	9281	85.767698863801	0.011275363254
0	9287	85.88480456633	0.007037297678
0	9294	85.909206269776	0.007036590269
0	9297	85.916242860045	0.007908113763
0	9303	86.115633576641	0.007031642391
0	9308	86.135474380977	0.007030936119
0	9313	86.1683431488	0.007030229989
0	9318	86.183593396503	0.007030229989
0	9324	86.311568814433	0.007026701466
0	9330	86.368369059081	0.007025291048
0	9335	86.389272857735	0.007024586051
0	9340	86.423757602715	0.007023881196
0	9346	86.457949694793	0.007023176482
0	9351	86.509638365053	0.007021767479
0	9356	86.597884941727	0.007019655034
0	9361	86.718680080196	0.007016840417
0	9367	86.772437557493	0.007036590269
0	9372	86.811772213705	0.007073565077
0	9377	86.830093441581	0.00709076175
0	9382	86.841784610631	0.007101552196
0	9387	86.87231332011	0.007130487929
0	9394	86.933329011211	0.00718907261
0	9399	86.982300440922	0.00723738627
0	9404	87.006836171038	0.007261410788
0	9409	87.032476936041	0.007287112222
0	9414	87.094409030878	0.007349081365
0	9419	87.105468445607	0.007360672976
0	9424	87.115506155895	0.007370748657
0	9429	87.128248122956	0.007383966245
0	9434	87.158675397692	0.007415254237
0	9439	87.22621305261	0.00748502994
0	9444	87.237356790341	0.007497054728
0	9449	87.24918305803	0.007509118215
0	9454	87.289198996637	0.007552055238
0	9459	87.299468564542	0.0075634792
0	9465	87.453948753476	0.007732243455
0	9470	87.470899767802	0.007751937984
0	9475	87.4798106163	0.007761392616
0	9482	87.705788548753	0.008025682183
0	9487	87.724699292586	0.008048752443
0	9492	87.963020260236	0.008349236641
0	9497	87.977965036902	0.008369201339
0	9502	88.010687324895	0.008412450427
0	9507	88.037909711509	0.008449004225
0	9512	88.050221815005	0.008465352521
0	9517	88.091234018408	0.008520998174
0	9522	88.120569514624	0.008560596796
0	9527	88.166997639976	0.008624938393
0	9533	88.273723922263	0.008100914246
0	9539	88.331035786684	0.007758811793
0	9544	88.374334859964	0.007723711795
0	9549	88.39486601829	0.007722007722
0	9555	88.510284448832	0.007713498623
0	9560	88.561554140359	0.007710100231
0	9566	88.667698773385	0.007702464789
0	9571	88.696265693486	0.007699923001
0	9578	88.780404980922	0.007693998681
0	9581	88.788098134016	0.014008715124
0	9586	88.889456257692	0.007686395081
0	9591	88.948433664282	0.007682177349
0	9597	88.984393108761	0.007678806494
0	9603	89.043823934013	0.007674597084
0	9608	89.053068870596	0.007674597084
0	9613	89.071979338278	0.007672914611
0	9618	89.147562143213	0.007667031763
0	9623	89.231821386805	0.007661157929
0	9631	89.475472831396	0.00756429652
0	9636	89.490361901797	0.007556131261
0	9641	89.544609698574	0.007525263384
0	9648	89.586995659784	0.007501071582
0	9653	89.601181722627	0.007493042175
0	9658	89.627520413294	0.007478632479
0	9664	89.759087622214	0.007405056596
0	9670	89.80293398113	0.007381630286
0	9675	89.931528676439	0.007311468561
0	9680	89.979801126343	0.0072863537
0	9689	90.108642147526	0.007217983089
0	9692	90.115856411156	0.008141474853
0	9700	90.169282829796	0.007186858316
0	9703	90.176466000653	0.012268336138
0	9709	90.310624689178	0.007141399714
0	9714	90.375010075209	0.007154538021
0	9719	90.388261307767	0.007157464213
0	9724	90.400167199884	0.007159660428
0	9732	90.442958454074	0.007168458781
0	9735	90.45012838135	0.011614849562
0	9741	90.696780970086	0.007220961419
0	9747	90.794427738729	0.007241129616
0	9754	91.058168249735	0.007296226808
0	9759	91.068826195259	0.007298509019
0	9766	91.149564902349	0.007316053512
0	9771	91.251282088226	0.007337526205
0	9777	91.295504008028	0.007346767422
0	9782	91.307073237246	0.007349081365
0	9789	91.356483367169	0.007359899064
0	9792	91.363844814219	0.010798187107
0	9799	91.38531823775	0.007366094917
0	9804	91.392685883261	0.013604100258
0	9807	91.400055080019	0.008375754433
0	9814	91.487677723888	0.007388642601
0	9820	91.601113291874	0.007412898443
0	9825	91.66807520709	0.007416039835
0	9831	91.712060317775	0.007417611529
0	9836	91.82922530314	0.007420756917
0	9841	91.851449789011	0.007421543681
0	9847	91.909449870935	0.007423117709
0	9852	91.929273650146	0.007423904974
0	9857	91.942861555765	0.007424692406
0	9864	91.952326074407	0.007424692406
0	9869	91.959750766813	0.010274302409
0	9872	91.967176246817	0.007468517369
0	9877	92.044285265427	0.007427843803
0	9883	92.099364517358	0.007429420505
0	9888	92.107591984372	0.007429420505
0	9894	92.124460567532	0.007430209107
0	9899	92.234102067715	0.007433365191
0	9904	92.253155870513	0.00743415463
0	9909	92.294967411116	0.007434944238
0	9914	92.388215752671	0.007438104346
0	9921	92.405641064084	0.007438894793
0	9924	92.413079958877	0.009965224786
0	9929	92.480743037419	0.007441267141
0	9934	92.629677019232	0.00744522442
0	9939	92.704381245437	0.007447600809
0	9944	92.731190621224	0.007448393275
0	9951	92.838546538469	0.007452358139
0	9958	92.926402081656	0.007454739084
0	9961	92.93385682074	0.007857913432
0	9966	93.020296320778	0.007457916045
0	9971	93.068783953739	0.007459505541
0	9976	93.126152326807	0.007461095715
0	9983	93.153148174377	0.007461891056
0	9986	93.160610065433	0.012212031592
0	9992	93.218947004984	0.007464278098
0	9997	93.272116702283	0.007465870307
0	10002	93.302705654522	0.007466666667
0	10009	93.332286619392	0.007467463196
0	10014	93.439198443707	0.007470651014
0	10019	93.457784391872	0.007471448394
0	10024	93.587648777594	0.007475437847
0	10031	93.624231619461	0.007476236249
0	10034	93.631708654283	0.012831574836
0	10040	93.680972840629	0.007478632479
0	10045	93.68961501493	0.007478632479
0	10050	93.714339185541	0.007479431563
0	10055	93.762591442666	0.007481030245
0	10060	93.788875939733	0.007481829842
0	10066	93.803974660733	0.007481829842
0	10071	93.816105002586	0.00748262961
0	10076	93.865267914618	0.007484229659
0	10081	93.874372639122	0.007484229659
0	10086	93.903182400958	0.00748502994
0	10092	93.951927295191	0.007486631016
0	10097	93.979229593722	0.007487431811
0	10108	94.163131554033	0.007493042175
0	10111	94.170625398375	0.013771727183
0	10114	94.178119242717	0.016103016156
0	10120	94.367282342847	0.007499464324
0	10128	94.42077672096	0.007501071582
0	10131	94.428278596429	0.014391551183
0	10137	94.46716605584	0.007502679528
0	10142	94.483180871671	0.00750348376
0	10147	94.5520295173	0.007505897491
0	10152	94.561977707519	0.007505897491
0	10158	94.581198479632	0.007506702413
0	10163	94.617816708887	0.007507507508
0	10170	94.632982582845	0.007508312775
0	10173	94.64049089562	0.014996848427
0	10178	94.649924252653	0.007508312775
0	10183	94.662060282027	0.007509118215
0	10188	94.753013757816	0.007511535572
0	10193	94.781918162429	0.007513148009
0	10199	94.876386230792	0.007515567962
0	10207	95.02401931268	0.007520412548
0	10213	95.107791482361	0.007522837184
0	10219	95.163802394148	0.007525263384
0	10226	95.180130855978	0.007525263384
0	10229	95.187656119362	0.008813441898
0	10234	95.210096705815	0.007526072465
0	10240	95.296348599587	0.00752931053
0	10245	95.313490866638	0.00752931053
0	10250	95.382809386277	0.007531740908
0	10257	95.440787965199	0.007533362032
0	10262	95.486600668714	0.007534983854
0	10267	95.500002742975	0.007535795026
0	10272	95.560276231333	0.007537417896
0	10278	95.628219548501	0.007539853511
0	10284	95.726190079421	0.007542290701
0	10291	95.804931860818	0.00754554274
0	10296	95.851652464193	0.007547169811
0	10301	95.889762601275	0.00754798361
0	10306	95.921786851331	0.007549611734
0	10313	95.93137573694	0.007549611734
0	10316	95.938925348674	0.013403276477
0	10321	95.948298677154	0.00755042606
0	10329	96.08019466094	0.007554500324
0	10334	96.122071702113	0.007556131261
0	10339	96.141362239531	0.007556946993
0	10346	96.207793616785	0.007559395248
0	10351	96.215353012033	0.013996752677
0	10356	96.222913223719	0.0103474634
0	10359	96.230473435405	0.014644419904
0	10364	96.275626961194	0.00756184509
0	10370	96.300339663621	0.007562662057
0	10375	96.419969083939	0.007566749541
0	10380	96.57884695586	0.007572479446
0	10385	96.644730124236	0.007574937777
0	10391	96.660396178003	0.007574937777
0	10399	96.770049573257	0.007579038545
0	10402	96.777628611802	0.007713977063
0	10407	96.936935829	0.007584787084
0	10413	96.974217926425	0.007586431126
0	10420	96.990261426346	0.007586431126
0	10423	96.99784867976	0.00776077547
0	10428	97.009337386268	0.007587253414
0	10433	97.0529904568	0.007588898526
0	10440	97.168433705733	0.007593014427
0	10445	97.18295299007	0.007593014427
0	10450	97.207629249272	0.007593838143
0	10457	97.252967349475	0.007595486111
0	10460	97.260563659839	0.009482233618
0	10465	97.291948280891	0.007597134795
0	10470	97.340789759674	0.007598784195
0	10476	97.383008550249	0.007600434311
0	10482	97.415564915889	0.007601259637
0	10487	97.456055990307	0.007602910829
0	10492	97.466718671832	0.007603736693
0	10498	97.605674955011	0.00760786871
0	10504	97.72963394032	0.007612833061
0	10509	97.742519425816	0.007612833061
0	10514	97.77519953039	0.007614489285
0	10519	97.833061209651	0.00761614623
0	10524	98.069588818725	0.007624441782
0	10529	98.0918389571	0.007625272331
0	10534	98.108355565595	0.007626103061
0	10541	98.118015519545	0.007626103061
0	10544	98.125642453518	0.012178900459
0	10549	98.140981987409	0.007626933973
0	10556	98.260090651568	0.007631091246
0	10561	98.268287180024	0.007631923245
0	10566	98.28585326807	0.007631923245
0	10571	98.297922017377	0.007632755425
0	10577	98.426648263269	0.007636919049
0	10582	98.465253842658	0.00763858577
0	10587	98.498396687046	0.007639419404
0	10592	98.507576430721	0.00764025322
0	10597	98.566679329349	0.007641921397
0	10606	98.74372034506	0.007648601399
0	10610	98.751368946459	0.009118914747
0	10616	98.857128685435	0.007652782333
0	10621	98.872496137031	0.007652782333
0	10626	98.895243041849	0.007653619068
0	10631	98.952043025292	0.007656130373
0	10636	98.962553079852	0.007656130373
0	10642	99.114675774657	0.007661996497
0	10648	99.133028308766	0.007661996497
0	10654	99.218772235964	0.007665352606
0	10659	99.28709903061	0.007667871618
0	10665	99.404548120446	0.007672073652
0	10670	99.417819198718	0.007672914611
0	10676	99.49233590369	0.007675438596
0	10681	99.554065305365	0.007677122176
0	10687	99.732889455481	0.007683863886
0	10692	99.743912991533	0.007683863886
0	10697	99.757508799479	0.007684707432
0	10705	99.837414607372	0.007687239183
0	10710	99.845102690843	0.008848436743
0	10715	99.852790774314	0.014745441099
0	10719	99.860478857785	0.008677442683
0	10724	99.902442840078	0.007689772602
0	10729	99.945829307667	0.007691462477
0	10734	99.960392616023	0.007692307692
0	10744	99.983550675766	0.007693153094
0	10747	99.99124382886	0.011520334837
0	10750	99.998936981954	0.017423559162
0	10759	100.083623497022	0.007696536559
0	10764	100.091320033581	0.008733999564
0	10767	100.099017416471	0.009264686297
0	10772	100.113957719275	0.00769738289
0	10777	100.176058162855	0.007699923001
0	10784	100.196489195885	0.007700770077
0	10787	100.204189965962	0.010001513649
0	10793	100.220993686995	0.00770161734
0	10799	100.274378845231	0.007703312424
0	10804	100.316059731025	0.007705008255
0	10810	100.440955502022	0.007709251101
0	10817	100.494230684933	0.007710949548
0	10820	100.501942483986	0.012054352173
0	10826	100.590760076759	0.007715198942
0	10831	100.602024385658	0.007715198942
0	10836	100.625918828917	0.007716049383
0	10843	100.699850167901	0.007717750827
0	10849	100.838872954994	0.007713498623
0	10856	100.877278231055	0.007712648744
0	10861	100.901265296285	0.007711799053
0	10867	101.141231311638	0.007704160247
0	10872	101.168756041441	0.007703312424
0	10878	101.191362924408	0.007703312424
0	10883	101.218106180902	0.007702464789
0	10888	101.247016273714	0.00770161734
0	10894	101.319350283078	0.007699076111
0	10899	101.354097181019	0.007698229407
0	10907	101.421025295327	0.007695690413
0	10910	101.42872098574	0.008273199116
0	10915	101.455581597003	0.007694844454
0	10920	101.475472220847	0.007693998681
0	10925	101.496448388212	0.007693998681
0	10932	101.533177565277	0.007692307692
0	10935	101.540869872969	0.011081627311
0	10940	101.559046333274	0.007691462477
0	10945	101.573684666645	0.007691462477
0	10953	101.703659166294	0.007687239183
0	10956	101.711346405477	0.01144797402
0	10961	101.722004618517	0.007687239183
0	10966	101.742221725811	0.007686395081
0	10972	101.778017998119	0.007685551164
0	10977	101.788515650605	0.007684707432
0	10982	101.874401715972	0.007682177349
0	10987	101.926295627067	0.007680491551
0	10993	101.993119456275	0.007678806494
0	10998	102.061691552399	0.007677122176
0	11004	102.084856184029	0.007676280294
0	11010	102.118376952582	0.007675438596
0	11015	102.165662687508	0.007673755755
0	11021	102.198602818375	0.007672914611
0	11026	102.262329085121	0.007671232877
0	11031	102.283450621139	0.007670392286
0	11036	102.30467826844	0.007669551879
0	11045	102.464541310073	0.007664513303
0	11048	102.472205823376	0.008977873226
0	11055	102.721667147527	0.007656130373
0	11060	102.754309379903	0.00764609503
0	11065	102.80569938201	0.007631923245
0	11070	102.842176538394	0.007621121394
0	11075	102.935758382205	0.007594662038
0	11081	102.955904000953	0.007588898526
0	11086	102.979449625553	0.007582322357
0	11093	103.128130005244	0.007540665733
0	11098	103.172434416357	0.007528500753
0	11104	103.254272515134	0.007538229593
0	11109	103.277328015648	0.007543103448
0	11114	103.369613935097	0.007562662057
0	11121	103.518477094951	0.007594662038
0	11127	103.573224962341	0.007606215365
0	11132	103.620028103155	0.007616974973
0	11137	103.654803700596	0.007624441782
0	11143	103.767096535495	0.007648601399
0	11148	103.775154354489	0.007650273224
0	11154	103.823283754846	0.007661157929
0	11161	103.840400504226	0.007664513303
0	11164	103.848066696319	0.010901737025
0	11169	103.867714619927	0.007670392286
0	11176	103.886149702245	0.007674597084
0	11180	103.893825982539	0.014144780072
0	11185	103.93232684175	0.007684707432
0	11190	103.94813092044	0.007688927944
0	11196	104.071772079443	0.007716049383
0	11204	104.204130877045	0.007745933385
0	11210	104.257607541782	0.007757951901
0	11215	104.295459736157	0.007766559414
0	11222	104.317336810337	0.007770870337
0	11225	104.325109406384	0.012735806777
0	11231	104.373784941644	0.007783831869
0	11237	104.519099782698	0.007816862088
0	11242	104.569176618039	0.007828226348
0	11248	104.632785118641	0.007843137255
0	11253	104.811707612479	0.007884658707
0	11258	104.821322862869	0.007886435331
0	11267	104.868072430727	0.007897111913
0	11270	104.875972216304	0.010566355437
0	11273	104.88387378533	0.018062589737
0	11278	104.986583007166	0.007925724638
0	11286	105.204153762897	0.007977207977
0	11295	105.280666151396	0.007995431182
0	11298	105.288663409479	0.008117640449
0	11303	105.304522415786	0.00800091439
0	11310	105.32692462813	0.008006405124
0	11313	105.334932865174	0.008893557634
0	11319	105.50121527899	0.008047827087
0	11324	105.519066807772	0.008052455999
0	11330	105.574871708396	0.008066374741
0	11335	105.583696087506	0.008068234209
0	11340	105.641058316564	0.008082207597
0	11345	105.695068956187	0.008095293165
0	11350	105.723528315146	0.008102789675
0	11355	105.806655471643	0.008122534231
0	11360	105.832261559723	0.00812913715
0	11365	105.894509365245	0.008144269924
0	11372	105.912576626389	0.008149010477
0	11375	105.920727534633	0.009049877846
0	11383	105.991459432977	0.008165169719
0	11386	105.999624602696	0.013408724717
0	11391	106.017023527782	0.00816707502
0	11398	106.049461774386	0.008168981211
0	11403	106.057631709027	0.009716279217
0	11408	106.065801643668	0.01486471761
0	11411	106.07397253196	0.011682286465
0	11418	106.112937833245	0.008172796264
0	11423	106.121111583829	0.008577770352
0	11426	106.129286288956	0.012892864686
0	11431	106.238548692079	0.008181393174
0	11436	106.307463184786	0.008186177055
0	11442	106.323057820932	0.008187134503
0	11447	106.373885414392	0.008190966534
0	11452	106.387032318967	0.008191925102
0	11457	106.401420453569	0.008192883895
0	11464	106.454645105214	0.00819576162
0	11467	106.462841826525	0.01155732161
0	11472	106.477371549618	0.008197681227
0	11477	106.486231610527	0.008198641368
0	11482	106.567675400675	0.008203445447
0	11488	106.610322784036	0.008206330598
0	11495	106.6683822339	0.008210180624
0	11498	106.676593377595	0.008713265152
0	11503	106.72060927478	0.008214034264
0	11508	106.738630425775	0.00821499824
0	11515	106.770985476814	0.008217891524
0	11518	106.779203368338	0.010607755332
0	11524	106.800433053102	0.008219821512
0	11530	106.840980590325	0.008221752408
0	11535	106.870061593733	0.008224650452
0	11540	106.934221532165	0.008228517691
0	11545	106.995604944939	0.008232388569
0	11552	107.034889287453	0.008235294118
0	11555	107.043125550543	0.013430095728
0	11562	107.104380846548	0.00824014126
0	11567	107.117547871093	0.008241111373
0	11573	107.193749878576	0.008245965367
0	11578	107.253884898946	0.008249852681
0	11583	107.305041051681	0.008253743662
0	11588	107.366740709086	0.008257638315
0	11593	107.414930438519	0.008261536646
0	11599	107.457394698513	0.00826446281
0	11605	107.536422342135	0.008269344359
0	11610	107.551579696021	0.008270321361
0	11618	107.632833120744	0.008276188224
0	11623	107.645609884807	0.008277166844
0	11628	107.667191728038	0.008278145695
0	11633	107.705313044532	0.008281083639
0	11638	107.799288781435	0.008287946957
0	11643	107.814593264444	0.00828892836
0	11648	107.942846430168	0.008297771456
0	11656	108.01009905197	0.008302692445
0	11659	108.018401744415	0.012613172822
0	11665	108.087081422788	0.008307619274
0	11670	108.179536541926	0.008313539192
0	11677	108.243076932222	0.008318478907
0	11680	108.251395411129	0.015420301181
0	11685	108.29389199732	0.008321445554
0	11690	108.329819372533	0.008324414318
0	11697	108.4417443669	0.008332341388
0	11702	108.551457032284	0.008339289969
0	11708	108.591676952017	0.008342271481
0	11713	108.622428914483	0.008344260341
0	11718	108.638998765528	0.008346250149
0	11724	108.662983401539	0.008347245409
0	11729	108.676559388794	0.008348240906
0	11736	108.733403589591	0.008352225271
0	11741	108.741756811548	0.011432454773
0	11744	108.750110033505	0.014735624584
0	11750	108.791815105377	0.008356213442
0	11756	108.911497173108	0.008365200765
0	11761	108.983953064068	0.008370202081
0	11766	109.033304930552	0.008373205742
0	11772	109.080422903339	0.008377213978
0	11780	109.147698566145	0.008381226054
0	11783	109.156080795818	0.009661831455
0	11789	109.172569375387	0.008383233533
0	11794	109.232964698798	0.008387251378
0	11799	109.288182975626	0.008391273076
0	11805	109.355379821387	0.008396305626
0	11810	109.432127927663	0.008401344215
0	11815	109.455144281812	0.008403361345
0	11820	109.472440683482	0.008404370273
0	11825	109.51207282554	0.008407398511
0	11833	109.545396234231	0.008409418549
0	11838	109.553806663163	0.012808127789
0	11841	109.562217092095	0.01101934029
0	11846	109.605248695832	0.008413461538
0	11853	109.61638899992	0.008414472893
0	11856	109.624804484411	0.015888910756
0	11861	109.690667772741	0.008419533317
0	11866	109.712066337213	0.008421559192
0	11871	109.750177302285	0.008424599832
0	11876	109.832958307546	0.008429672447
0	11882	109.887939719434	0.00843373494
0	11887	109.93749145646	0.00843780135
0	11893	109.946444446275	0.00843780135
0	11898	109.969937862394	0.008439836026
0	11904	110.013297577458	0.008442889881
0	11910	110.135861822804	0.008452064719
0	11917	110.199342263588	0.008456148828
0	11923	110.248676620135	0.008460236887
0	11928	110.266539301761	0.008461259519
0	11934	110.399280002722	0.008470474347
0	11939	110.542032587071	0.008480736613
0	11947	110.575633598547	0.008483820143
0	11950	110.58411741869	0.011603221931
0	11957	110.634104037914	0.008487935007
0	11960	110.642591972921	0.012062072656
0	11965	110.690492246424	0.008492053864
0	11972	110.738646695069	0.008495145631
0	11975	110.747142871789	0.014331784294
0	11982	110.833720807552	0.008502368517
0	11985	110.842223176069	0.009480264414
0	11995	110.940680187367	0.008509603696
0	11998	110.949190825665	0.010387641784
0	12003	110.993635970866	0.008513743615
0	12008	111.005309734366	0.008514779224
0	12013	111.056725202132	0.008517887564
0	12019	111.275533862002	0.00853450378
0	12024	111.289593309285	0.008535544446
[...]
19	24366	222.194336068032	0.0072170719136642
19	24367	222.201553139946	1.6373543184343
19	24524	223.83890745838	0.028240176144182
19	24528	223.867147634524	0.77850334516752
19	24602	224.645650979692	0.26244881966323
19	24630	224.908099799355	3.1483779860393
19	24932	228.056477785394	2.1271464131901
19	25181	230.183624198584	0.97557514666721
19	25310	231.159199345251	0.12906703021
19	25329	231.288266375461	0.83441640377501
19	25404	232.122682779236	2.7019401048873
19	25661	234.824622884123	1.6549330901934
19	25829	236.479555974316	3.573971723211
19	26185	240.053527697527	3.4345862667725
19	26615	243.4881139643	0.48978025607035
19	26645	243.97789422037	0.11533174252275
19	26670	244.093225962893	1.2823902821707
19	26829	245.375616245064	1.7715124079384
19	27021	247.147128653002	0.41275210462579
19	27079	247.559880757628	2.1915713649924
19	27292	249.75145212262	1.0980559258877
19	27421	250.849508048508	3.4270753906885
19	27812	254.276583439197	2.4647961076927
19	28056	256.74137954689	2.3551164430051
19	28265	259.096495989895	0.90068611705383
19	28364	259.997182106949	0.4704939283204
19	28407	260.467676035269	0.20332995154173
19	28420	260.671005986811	1.2565761733173
19	28609	261.927582160128	0.86968737401788
19	28716	262.797269534146	3.7029530275389
19	29064	266.500222561685	0.16248635247426
19	29075	266.662708914159	2.7298030740373
19	29338	269.392511988196	2.4255198892287
19	29625	271.818031877425	2.495101248755
19	29867	274.31313312618	1.8495249654246
19	30041	276.162658091605	3.5637921036563
19	30394	279.726450195261	7.0762945727826
19	31131	286.802744768044	0.60712055326848
19	31192	287.409865321312	6.4280245096413
19	31901	293.837889830953	0.5021116403451
19	31964	294.340001471298	3.7062350765276
19	32291	298.046236547826	0.60760628601669
19	32333	298.653842833843	1.3924139864017
19	32513	300.046256820245	1.0941112225043
19	32611	301.140368042749	3.2622075088175
19	32927	304.402575551567	2.3715336169961
19	33190	306.774109168563	3.4101662561802
19	33532	310.184275424743	2.7003669243752
19	33845	312.884642349118	0.068593887724385
19	33851	312.953236236842	0.60700598596216
19	33917	313.560242222804	2.3603328690598
19	34103	315.920575091864	0.03001317770308
19	34104	315.950588269567	1.1264392739238
19	34198	317.077027543491	0.24085706036575
19	34222	317.317884603857	2.1835982141022
19	34454	319.501482817959	5.1770252769031
19	34949	324.678508094862	0.45255021020662
19	35019	325.131058305069	6.060910243033
19	35609	331.191968548102	5.0812816419046
19	36163	336.273250190007	2.3490797716731
19	36400	338.62232996168	1.4393911134941
19	36563	340.061721075174	2.5035862026246
19	36902	342.565307277799	1.626657919689
19	37103	344.191965197488	2.6626971312454
19	37392	346.854662328733	3.2057556018058
19	37729	350.060417930539	2.4465197872931
19	37999	352.506937717832	9.8869014006999
19	39069	362.393839118532	0.69841069243629
19	39152	363.092249810968	5.0891253783148
19	39625	368.181375189283	5.852749638231
19	40267	374.034124827514	4.303433409526
19	40730	378.33755823704	0.55713111208964
19	40773	378.89468934913	2.9515076204518
19	41087	381.846196969582	4.6234171917594
19	41540	386.469614161341	0.26361226663764
19	41558	386.733226427979	3.5628893900802
19	42002	390.296115818059	0.79916087400778
19	42064	391.095276692067	0.96961922185976
19	42206	392.064895913927	0.058029598345288
19	42212	392.122925512272	0.15924215878073
19	42234	392.282167671053	2.7282150464189
19	42531	395.010382717472	0.42541586556357
19	42560	395.435798583036	5.2137342892034
20	1716	15.991334320569	0.072309626507027
20	1723	16.063643947076	1.580895435866
20	1895	17.644539382942	3.17034418149
20	2238	20.814883564432	0.92887866367473
20	2402	21.743762228107	2.3919983659341
20	2681	24.135760594041	0.10978420443734
20	2686	24.245544798478	0.56560899544243
20	2736	24.81115379392	0.11094528982954
20	2738	24.92209908375	0.42262209730432
20	2782	25.344721181054	2.4276562399106
20	3044	27.772377420965	2.853291249442
20	3288	30.625668670407	4.6967795022086
20	3832	35.322448172616	3.3709324403975
20	4154	38.693380613014	0.22743406182029
20	4172	38.920814674834	5.378247343241
20	4766	44.299062018075	1.503358808173
20	4948	45.802420826248	4.6255962699491
20	5439	50.428017096197	1.8557315138389
20	5645	52.283748610036	0.94843530903324
20	5773	53.232183919069	2.0636288727467
20	5946	55.295812791816	1.6543003962008
20	6142	56.950113188017	0.30834487695135
20	6168	57.258458064968	7.5930177510835
20	7033	64.851475816052	1.3332328823078
20	7147	66.18470869836	11.419464956956
20	8434	77.604173655316	1.8277339190195
20	8643	79.431907574335	0.22088057862983
20	8674	79.652788152965	0.85503499185712
20	8771	80.507823144822	1.2684983925535
20	8877	81.776321537375	1.1641431106859
20	8987	82.940464648061	1.4968666611923
20	9109	84.437331309253	1.3257039128125
20	9279	85.763035222066	0.49762032914452
20	9321	86.260655551211	3.2862961380299
20	9645	89.546951689241	1.5063467011166
20	9753	91.053298390358	2.8881406870286
20	10089	93.941439077387	1.4669656457627
20	10254	95.40840472315	1.7011084306172
20	10437	97.109513153767	0.26537856920818
20	10473	97.374891722975	0.016859763071746
20	10479	97.391751486047	2.8280017991958
20	10792	100.219753285243	0.68800733715451
20	10864	100.907760622398	3.2614370347702
20	11200	104.169197657168	0.83651804597283
20	11281	105.005715703141	0.23990587709185
20	11290	105.245621580233	1.3597157188063
20	11487	106.605337299039	3.4333988157239
20	11907	110.038736114763	4.1013331757768
20	12287	114.14006929054	4.156391946848
20	12725	118.296461237388	0.19117615677656
20	12757	118.487637394165	2.7782044703612
20	13013	121.265841864526	2.2328283143858
20	13230	123.498670178912	1.9829192755618
20	13430	125.481589454474	1.7538088914038
20	13637	127.235398345878	0.19981097806181
20	13668	127.43520932394	1.503549894143
20	13769	128.938759218083	1.6421613096095
20	13991	130.580920527693	4.959772502623
20	14514	135.540693030316	0.34147120175036
20	14568	135.882164232066	0.16612229394957
20	14591	136.048286526016	2.6630100533066
20	14872	138.711296579323	1.2201848809037
20	14987	139.931481460227	1.2383197890106
20	15095	141.169801249238	0.0033603599120588
20	15096	141.17316160915	1.5918473596385
20	15320	142.765008968788	0.19685677046569
20	15352	142.961865739254	1.8021465294408
20	15552	144.764012268695	4.2941835109229
20	16131	149.058195779618	2.4020935408097
20	16349	151.460289320428	0.89133339513597
20	16487	152.351622715564	2.9229461842214
20	16851	155.274568899785	3.9179681142818
20	17271	159.192537014067	7.2234929903845
20	18071	166.416030004451	0.74650185097548
20	18165	167.162531855426	1.9564421446252
20	18384	169.118974000051	0.70831417823706
20	18494	169.827288178288	1.5510635075113
20	18678	171.378351685799	2.5088550094605
20	18951	173.88720669526	0.56015646650369
20	19006	174.447363161764	2.2992748198578
20	19313	176.746637981622	0.34967218708868
20	19358	177.096310168711	7.4791783175498
20	20151	184.575488486261	0.39845217717549
20	20187	184.973940663436	5.3655439064475
20	20710	190.339484569884	0.077394983432374
20	20718	190.416879553316	1.5818465359195
20	20946	191.998726089236	1.2166557450543
20	21084	193.21538183429	0.025487998928556
20	21088	193.240869833219	1.0086854047812
20	21201	194.249555238	5.8673189207838
20	21899	200.116874158784	1.5188725962387
20	22064	201.635746755023	0.48920757668666
20	22105	202.12495433171	0.9600977849417
20	22189	203.085052116652	0.63216796633111
20	22259	203.717220082983	0.20457941708776
20	22297	203.921799500071	1.307616010462
20	22414	205.229415510533	0.08287866602151
20	22434	205.312294176555	1.5302970661345
20	22585	206.842591242689	1.4572757227187
20	22766	208.299866965408	1.1067008180554
20	22877	209.406567783463	0.34953678242646
20	22930	209.756104565889	0.17424034207218
20	22938	209.930344907961	1.3032116023536
20	23094	211.233556510315	4.7577123507588
20	23628	215.991268861074	3.4633236265632
20	24068	219.454592487637	4.2485297524827
20	24508	223.70312224012	1.7819340841916
20	24717	225.485056324312	1.7273789941444
20	24870	227.212435318456	3.1448732525585
20	25192	230.357308571015	4.0884936874533
20	25605	234.445802258468	1.5981528143108
20	25780	236.043955072779	0.14015128345997
20	25791	236.184106356239	5.8464641915589
20	26427	242.030570547798	3.7582032623554
20	26867	245.788773810153	2.7531486834579
20	27190	248.541922493611	0.30696087498188
20	27231	248.848883368593	0.89575731228035
20	27291	249.744640680873	7.147773421211
20	28060	256.892414102084	0.86352058541339
20	28153	257.755934687497	3.3971897986097
20	28473	261.153124486107	0.57782973435736
20	28584	261.730954220464	1.3484002642503
20	28735	263.079354484714	0.66270580886551
20	28799	263.74206029358	0.74201293569214
20	28866	264.484073229272	3.6115657353524
20	29191	268.095638964624	2.711903310556
20	29520	270.80754227518	1.7739526824555
20	29686	272.581494957635	2.4837439348891
20	29928	275.065238892524	0.2237870756676
20	29954	275.289025968192	0.48891465571204
20	30006	275.777940623904	4.6710014841508
20	30445	280.448942108055	0.52427229652371
20	30505	280.973214404579	5.3915868058437
20	31076	286.364801210423	0.78325161336109
20	31166	287.148052823784	4.9939623421418
20	31714	292.142015165926	4.2051725770226
20	32159	296.347187742949	6.9640616835868
20	32799	303.311249426536	0.11666723748596
20	32806	303.427916664022	0.88285674521867
20	32915	304.310773409241	0.50508112013326
20	32956	304.815854529374	1.8231095180426
20	33183	306.638964047417	4.6513959372934
20	33647	311.29035998471	1.0383907538106
20	33799	312.328750738521	0.1973192693908
20	33813	312.526070007912	2.9237208686738
20	34069	315.449790876586	1.5485666582133
20	34191	316.998357534799	1.3999928296467
20	34336	318.398350364446	5.3505040119894
20	34848	323.748854376435	1.2233993750429
20	35005	324.972253751478	1.1966261607009
20	35122	326.168879912179	0.33495035438642
20	35159	326.503830266565	0.19019541460533
20	35181	326.69402568117	0.94143407443337
20	35274	327.635459755603	1.0826567384747
20	35370	328.718116494078	3.4133932368163
20	35710	332.131509730894	0.56369928512057
20	35781	332.695209016015	4.0911202483183
20	36211	336.786329264333	1.6101500096951
20	36373	338.396479274028	0.20078864401105
20	36399	338.597267918039	4.0221312072489
20	36903	342.619399125288	5.0162969550774
20	37467	347.635696080365	1.4872846439805
20	37615	349.122980724345	0.10986044972752
20	37636	349.232841174073	0.72298632797167
20	37702	349.955827502045	1.453490381893
20	37853	351.409317883938	3.781403227346
20	38287	355.190721111284	1.1311896705955
20	38431	356.32191078188	1.6574380422159
20	38610	357.979348824096	0.22776791195093
20	38638	358.207116736047	2.0364554618544
20	38810	360.243572197901	3.804848876412
20	39274	364.048421074313	1.1709207027258
20	39399	365.219341777039	0.5389920291706
20	39450	365.75833380621	2.5358739142688
20	39637	368.294207720479	5.1929099399898
20	40222	373.487117660469	1.5302292865739
20	40360	375.017346947043	3.9895334554339
20	40811	379.006880402477	0.075439691696109
20	40815	379.082320094173	0.64073107257453
20	40880	379.723051166748	0.92872586878633
20	40972	380.651777035534	0.52057794653018
20	41016	381.172354982064	4.4643061740532
20	41474	385.636661156117	2.133993957573
20	41653	387.77065511369	1.4952724915159
20	41887	389.265927605206	2.1579166814135
20	42117	391.42384428662	4.0198196385775
20	42561	395.443663925198	1.460221575642
20	42669	396.90388550084	2.4368611896767
20	42939	399.340746690517	0.18766696486606
20	42974	399.528413655383	1.8131708663668
21	1786	16.733112747561	0.34165045507123
21	1825	17.074763202632	3.7293731048069
21	2237	20.804136307439	0.071580817556199
21	2241	20.875717124995	0.3313138529262
21	2290	21.207030977921	0.024893097040519
21	2296	21.231924074962	0.77632193348589
21	2409	22.008246008448	3.1427561304
21	2759	25.151002138848	8.7957080799726
21	3662	33.946710218821	2.2501761585892
21	3869	36.19688637741	4.2252784105373
21	4358	40.422164787947	2.6726177508559
21	4654	43.094782538803	1.3731198868317
21	4778	44.467902425635	0.23121458974463
21	4806	44.69911701538	0.49307457487204
21	4856	45.192191590252	3.9186168089415
21	5293	49.110808399194	0.1258551135232
21	5310	49.236663512717	0.31520479318535
21	5347	49.551868305902	2.0913073869334
21	5596	51.643175692835	1.0437046804204
21	5705	52.686880373255	0.34794724460341
21	5732	53.034827617858	3.4302991405017
21	6089	56.46512675836	4.0103842881826
21	6512	60.475511046543	1.3709350161244
21	6651	61.846446062667	0.71476715320989
21	6748	62.561213215877	0.45388146862778
21	6798	63.015094684505	5.3869067705573
21	7411	68.402001455062	1.1090117781319
21	7537	69.511013233194	6.5021987367866
21	8260	76.013211969981	5.9952425568429
21	8891	82.008454526824	0.11849115543467
21	8913	82.126945682259	1.9362542161994
21	9065	84.063199898458	3.3408216488505
21	9462	87.404021547309	2.1420696774221
21	9644	89.546091224731	0.50640175373873
21	9684	90.05249297847	0.77574426115671
21	9750	90.828237239627	3.5683272684387
21	10123	94.396564508066	0.71044589171559
21	10212	95.107010399782	0.45605707609657
21	10275	95.563067475879	4.5190428559686
21	10756	100.082110331848	3.3716152746319
21	11118	103.45372560648	0.87564342629767
21	11228	104.329369032778	3.6775661208106
21	11655	108.006935153589	5.2379206607411
21	12184	113.24485581433	3.6524808814782
21	12600	116.897336695808	3.6639236523784
21	12927	120.561260348186	2.3072585882145
21	13166	122.868518936401	1.4545216633644
21	13301	124.323040599765	2.7190857698666
21	13611	127.042126369632	1.0719863937769
21	13710	128.114112763409	2.2871371162997
21	13964	130.401249879709	0.94666793283401
21	14094	131.347917812543	0.71121857208075
21	14170	132.059136384624	0.48506512734163
21	14217	132.544201511966	0.91421254758662
21	14309	133.458414059553	0.60003842409179
21	14363	134.058452483645	2.523228245891
21	14664	136.581680729536	1.7942012926101
21	14857	138.375882022146	4.6853809487038
21	15368	143.06126297085	0.76594664766334
21	15466	143.827209618513	2.9882237926113
21	15809	146.815433411124	1.1643101845939
21	16010	147.979743595718	3.3483342838303
21	16335	151.328077879548	0.055664531744957
21	16336	151.383742411293	0.71922396870054
21	16446	152.102966379994	0.38360159500024
21	16498	152.486567974994	1.3431671725462
21	16628	153.82973514754	3.6442372409959
21	17023	157.473972388536	1.3287134888084
21	17201	158.802685877344	3.7275554465364
21	17641	162.53024132388	2.2492826225454
21	17882	164.779523946425	1.3729194774139
21	18039	166.152443423839	0.35577740904261
21	18072	166.508220832882	3.9398208337327
21	18550	170.448041666615	0.67948930973147
21	18638	171.127530976346	2.9925404939077
21	18974	174.120071470254	1.0632473299613
21	19098	175.183318800215	0.98739179394302
21	19208	176.170710594158	0.06077987839131
21	19212	176.231490472549	0.052904441015377
21	19244	176.284394913564	5.3927769249996
21	19822	181.677171838564	0.85974147600531
21	19932	182.536913314569	1.2409051807468
21	20081	183.777818495316	4.3886419796438
21	20524	188.16646047496	0.25310669291341
21	20552	188.419567167873	1.3552856955267
21	20662	189.7748528634	1.0822956262245
21	20779	190.857148489624	0.24168241203236
21	20821	191.098830901656	1.1446799636247
21	20970	192.243510865281	1.9653017637554
21	21183	194.208812629036	2.7849938659278
21	21489	196.993806494964	0.31556726352982
21	21505	197.309373758494	0.25595716502508
21	21567	197.565330923519	0.59482659828801
21	21614	198.160157521807	4.8751388140661
21	22175	203.035296335873	0.12702728295348
21	22200	203.162323618826	0.12182788979977
21	22216	203.284151508626	1.5681355147166
21	22389	204.852287023343	0.31525533522203
21	22413	205.167542358565	1.6816422993487
21	22586	206.849184657914	0.37932395554417
21	22625	207.228508613458	5.7936779101682
21	23324	213.022186523626	0.35189692317794
21	23364	213.374083446804	2.2724775258421
21	23596	215.646560972646	2.704448352838
21	23941	218.351009325484	0.70149210343829
21	24022	219.052501428922	1.0586067324651
21	24170	220.111108161387	1.520613992234
21	24315	221.631722153621	6.131135015074
21	24911	227.762857168695	1.6536492815527
21	25073	229.416506450248	1.3823541004993
21	25249	230.798860550747	4.5133600536908
21	25708	235.312220604438	2.3998288919174
21	25964	237.712049496355	1.0471939708616
21	26074	238.759243467217	7.0293363930429
21	26866	245.78857986026	1.8416491731614
21	27087	247.630229033421	0.20102969861434
21	27113	247.831258732035	0.74326893676135
21	27191	248.574527668796	0.065993994567254
21	27205	248.640521663363	1.4211186758806
21	27325	250.061640339244	0.54245796443576
21	27376	250.60409830368	1.2020546683146
21	27535	251.806152971995	2.0699633332151
21	27752	253.87611630521	0.45609258966987
21	27826	254.33220889488	1.8195888193493
21	28007	256.151797714229	2.42860464998
21	28227	258.580402364209	0.9194755581083
21	28323	259.499877922317	0.71791951435095
21	28385	260.217797436668	0.13894288492495
21	28400	260.356740321593	0.076248045761902
21	28406	260.432988367355	1.4849320440129
21	28603	261.917920411368	0.22435094396165
21	28630	262.14227135533	1.1136051539689
21	28759	263.255876509299	0.0902772201821
21	28768	263.346153729481	2.478057662276
21	28996	265.824211391757	0.62120583808094
21	29063	266.445417229838	0.34717568889514
21	29091	266.792592918733	1.3027986593779
21	29190	268.095391578111	0.13614705351598
21	29207	268.231538631627	1.5436429554412
21	29389	269.775181587068	1.0902956009298
21	29527	270.865477187998	0.19890979611093
21	29559	271.064386984109	7.624437017501
21	30304	278.68882400161	5.4731146146241
21	30776	284.161938616234	0.2351970363115
21	30810	284.397135652546	0.70405115122502
21	30903	285.101186803771	1.3445582820992
21	31087	286.44574508587	1.7557422786782
21	31267	288.201487364548	0.22294494059906
21	31300	288.424432305147	0.19886718329344
21	31321	288.62329948844	1.5439892804173
21	31469	290.167288768857	0.18844682256414
21	31486	290.355735591421	1.7625689885592
21	31700	292.11830457998	0.98527176657622
21	31807	293.103576346556	1.8986833307087
21	32040	295.002259677265	0.36190975955536
21	32074	295.36416943682	7.5480990060105
21	32741	302.91226844283	1.4269163124105
21	32921	304.339184755241	0.42773980160882
21	32954	304.76692455685	0.48548609922126
21	33011	305.252410656071	0.5737001069414
21	33084	305.826110763012	0.13873625116857
21	33091	305.964847014181	1.4198920545645
21	33249	307.384739068746	6.3622257922299
21	33938	313.746964860976	4.7569855543845
21	34343	318.503950415361	2.5774488697862
21	34606	321.081399285147	0.37353262677211
21	34626	321.454931911919	0.5334831514275
21	34675	321.988415063347	2.6846946173804
21	34946	324.673109680727	0.79243801363962
21	35057	325.465547694367	0.10124393427381
21	35069	325.566791628641	2.1963902272296
21	35301	327.763181855871	0.037345405649505
21	35307	327.800527261521	1.9007704991908
21	35447	329.701297760712	1.2404516025709
21	35565	330.941749363283	0.88713409787818
21	35682	331.828883461161	0.31065368547934
21	35711	332.13953714664	2.9915159058059
21	36046	335.131053052446	0.4715958605042
21	36093	335.60264891295	0.53411334915041
21	36132	336.1367622621	5.7440039914172
21	36808	341.880766253517	4.7509043237726
21	37359	346.63167057729	0.34828868112108
21	37418	346.979959258411	0.5625373766943
21	37460	347.542496635105	0.16891192782408
21	37470	347.711408562929	1.0992871795778
21	37577	348.810695742507	1.7388456160079
21	37783	350.549541358515	3.0668336142275
21	38100	353.616374972742	1.9800244587955
21	38340	355.596399431537	7.8747047015971
21	39195	363.471104133134	2.2867834343991
21	39449	365.757887567533	1.4242353872731
21	39568	367.182122954806	4.6962360234205
21	40060	371.878358978227	6.1336374607965
21	40684	378.011996439023	0.6348435466828
21	40751	378.646839985706	5.373075798231
21	41313	384.019915783937	0.72054737507388
21	41368	384.740463159011	0.43817807936121
21	41422	385.178641238372	0.048214827940632
21	41428	385.226856066313	0.32907427655562
21	41463	385.555930342869	1.9322551443198
21	41625	387.488185487189	6.4352988614336
21	42386	393.923484348623	0.266771687238
21	42412	394.190256035861	4.3839324338016
21	42884	398.574188469663	1.4823484648849

