version 2
run Nonmonitoring-exponential-550-20210224-17:49:33-27075
attr configname Nonmonitoring-exponential
attr datetime 20210224-17:49:33
attr experiment Nonmonitoring-exponential
attr inifile aerocom.ini
attr iterationvars $0=50
attr iterationvarsf 50-
attr measurement $0=50
attr network Aerocom
attr processid 27075
attr repetition 50
attr replication #50
attr resultdir results
attr runnumber 550
attr seedset 50
param **.t 2s
param **.k 50ms
param **.X 0.05s
param **.m 1s
param **.tDistribution "\"exponential\""
param **.operationMode 1
param **.s "70 byte"
param **.dimPoolMax 10000
param **.dimPoolMin 8000
param **.nDL 16
param **.nA 1
param **.DLMaxCapacity 0
param **.trasmitting false

vector 0 Aerocom.aircraft[0].dataLink[8] tDistribution:vector ETV
attr "" ""
attr source computeTDistribution
vector 1 Aerocom.aircraft[0].packetGenerator arrivalTime:vector ETV
attr "" ""
attr source computeArrivalTime
vector 2 Aerocom.aircraft[0].linkSelector waitingTime:vector ETV
attr "" ""
attr source computeWaitingTime
vector 3 Aerocom.aircraft[0].linkSelector queueLength:vector ETV
attr "" ""
attr source computeQueueLength
vector 4 Aerocom.aircraft[0].dataLink[4] actualCapacity:vector ETV
attr "" ""
attr source computeActualCapacity
vector 5 Aerocom.aircraft[0].linkSelector serviceTime:vector ETV
attr "" ""
attr source computeServiceTime
vector 6 Aerocom.aircraft[0].linkSelector responseTime:vector ETV
attr "" ""
attr source computeResponseTime
vector 7 Aerocom.aircraft[0].dataLink[2] tDistribution:vector ETV
attr "" ""
attr source computeTDistribution
vector 8 Aerocom.aircraft[0].dataLink[5] tDistribution:vector ETV
attr "" ""
attr source computeTDistribution
vector 9 Aerocom.aircraft[0].dataLink[7] tDistribution:vector ETV
attr "" ""
attr source computeTDistribution
vector 10 Aerocom.aircraft[0].dataLink[0] tDistribution:vector ETV
attr "" ""
attr source computeTDistribution
vector 11 Aerocom.aircraft[0].dataLink[4] tDistribution:vector ETV
attr "" ""
attr source computeTDistribution
vector 12 Aerocom.aircraft[0].dataLink[3] tDistribution:vector ETV
attr "" ""
attr source computeTDistribution
vector 13 Aerocom.aircraft[0].dataLink[1] tDistribution:vector ETV
attr "" ""
attr source computeTDistribution
vector 14 Aerocom.aircraft[0].dataLink[9] tDistribution:vector ETV
attr "" ""
attr source computeTDistribution
vector 15 Aerocom.aircraft[0].dataLink[15] tDistribution:vector ETV
attr "" ""
attr source computeTDistribution
vector 16 Aerocom.aircraft[0].dataLink[6] tDistribution:vector ETV
attr "" ""
attr source computeTDistribution
vector 17 Aerocom.aircraft[0].dataLink[12] tDistribution:vector ETV
attr "" ""
attr source computeTDistribution
vector 18 Aerocom.aircraft[0].dataLink[11] tDistribution:vector ETV
attr "" ""
attr source computeTDistribution
vector 19 Aerocom.aircraft[0].dataLink[14] tDistribution:vector ETV
attr "" ""
attr source computeTDistribution
vector 20 Aerocom.aircraft[0].dataLink[13] tDistribution:vector ETV
attr "" ""
attr source computeTDistribution
vector 21 Aerocom.aircraft[0].dataLink[10] tDistribution:vector ETV
attr "" ""
attr source computeTDistribution
0	1106	10.009154818262	5.3407657893662
0	1682	15.349920607628	3.4700775013838
0	2073	18.819998109012	0.75354349354308
0	2141	19.573541602555	2.4195273723921
0	2397	21.993068974947	2.0129381858618
0	2601	24.006007160809	6.3717298163447
0	3362	30.377736977154	1.8094757692577
0	3542	32.187212746412	1.1037597549017
0	3696	33.290972501314	1.69895146293
0	3902	34.989923964244	2.467632207486
0	4178	37.45755617173	1.2097894130061
0	4316	38.667345584736	1.1272430451928
0	4442	39.794588629929	1.135768154681
0	4534	40.93035678461	0.80625386493412
0	4668	41.736610649544	0.051587498234796
0	4679	41.788198147779	3.6600073107099
0	5023	45.448205458489	0.53349296542701
0	5082	45.981698423916	4.603387175107
0	5528	50.585085599023	2.2708798000638
0	5797	52.855965399087	2.494310049589
0	6071	55.350275448676	1.7238431588559
0	6294	57.074118607532	2.1060715371136
0	6497	59.180190144646	0.18535908312323
0	6508	59.365549227769	0.58306191833108
0	6593	59.9486111461	3.0090700655651
0	6907	62.957681211665	0.035060087028923
0	6918	62.992741298694	0.13447107294641
0	6934	63.12721237164	0.18676454340956
0	6963	63.31397691505	4.7030976430182
0	7460	68.017074558068	0.22711963502993
0	7498	68.244194193098	0.70564235556473
0	7561	68.949836548663	3.5876993856064
0	7882	72.537535934269	4.8582810031921
0	8368	77.395816937461	1.20372337596
0	8485	78.599540313421	7.9258261786502
0	9336	86.525366492071	0.57320750137018
0	9374	87.098573993441	1.1670005368767
0	9478	88.265574530318	2.0581106982748
0	9742	90.323685228593	1.4217813463378
0	9905	91.745466574931	0.27107118950504
0	9935	92.016537764436	3.939417419621
0	10331	95.955955184057	5.47377417216
0	10935	101.429729356217	1.6207098985532
0	11041	103.05043925477	0.045632727277524
0	11047	103.096071982048	0.57447919621903
0	11103	103.670551178267	2.554956455666
0	11382	106.225507633933	0.85172820548759
0	11472	107.077235839421	0.69756521766213
0	11534	107.774801057083	0.84206597996717
0	11590	108.61686703705	1.0928368119028
0	11689	109.709703848953	0.30867850355461
0	11717	110.018382352508	0.5612307584784
0	11782	110.579613110986	0.39231766429546
0	11821	110.971930775281	3.5482252080456
0	12253	114.520155983327	2.4626961313163
0	12585	116.982852114643	0.056328734192615
0	12592	117.039180848836	4.0338061743524
0	13033	121.072987023188	0.75763501797077
0	13111	121.830622041159	0.81829556924112
0	13201	122.6489176104	0.075343992826199
0	13208	122.724261603226	1.1690929070659
0	13324	123.893354510292	0.8004126823961
0	13402	124.693767192688	0.74200589652338
0	13494	125.435773089211	1.1452965334087
0	13693	126.58106962262	0.41175229225266
0	13726	126.992821914873	0.81835993261675
0	13805	127.81118184749	0.27339255138712
0	13844	128.084574398877	1.2931758479053
0	13993	129.377750246782	1.5560150709721
0	14178	130.933765317754	1.2213083061203
0	14315	132.155073623874	1.6417607668339
0	14530	133.796834390708	1.2897075992765
0	14677	135.086541989984	1.2763917351538
0	14776	136.362933725138	2.3539049370618
0	15017	138.7168386622	1.7184179910134
0	15248	140.435256653213	0.097045228239743
0	15260	140.532301881453	0.52734836225694
0	15304	141.05965024371	0.36933610657516
0	15350	141.428986350285	2.5170857358273
0	15632	143.946072086112	5.4726022970794
0	16207	149.418674383191	2.8439510215168
0	16505	152.262625404708	0.90526635579865
0	16598	153.167891760507	0.071031369832716
0	16615	153.23892313034	0.35166674074645
0	16642	153.590589871086	0.21409458972847
0	16669	153.804684460814	1.6755537235893
0	16822	155.480238184403	0.54110739053073
0	16890	156.021345574934	1.4042980194672
0	17056	157.425643594401	1.6501361105311
0	17296	159.075779704932	0.29199074333225
0	17325	159.367770448264	3.5670655151325
0	17731	162.934835963396	0.0021977392807802
0	17732	162.937033702677	1.479640400855
0	17847	164.416674103532	4.1021051188078
0	18322	168.51877922234	4.1429035462981
0	18792	172.661682768638	0.3898750120337
0	18845	173.051557780672	1.8797473021782
0	19045	174.93130508285	0.058492054293332
0	19046	174.989797137143	0.75599045043733
0	19093	175.74578758758	1.3171463944276
0	19262	177.062933982008	1.18327012285
0	19375	178.246204104858	2.2727401359408
0	19659	180.518944240799	1.3718631231706
0	19774	181.89080736397	2.8227897651671
0	20049	184.713597129137	2.1931817315845
0	20283	186.906778860722	0.39236580713234
0	20327	187.299144667854	1.1447025591551
0	20472	188.443847227009	0.15365461386502
0	20486	188.597501840874	5.1266733437197
0	21104	193.724175184594	2.3946241282414
0	21302	196.118799312835	0.31757093397854
0	21328	196.436370246814	0.59321318593792
0	21386	197.029583432752	0.19637048911767
0	21413	197.22595392187	0.69253054670591
0	21482	197.918484468576	2.6895483346846
0	21865	200.608032803261	3.1654508517226
0	22172	203.773483654984	0.37128218404025
0	22221	204.144765839024	1.6637276705174
0	22427	205.808493509541	0.69633640700478
0	22500	206.504829916546	2.0661031471152
0	22738	208.570933063661	3.3540705378173
0	23136	211.925003601478	2.6914518577771
0	23359	214.616455459255	0.01674528127827
0	23360	214.633200740533	2.0041288823846
0	23597	216.637329622918	0.78458945817819
0	23691	217.421919081096	1.8267137223354
0	23854	219.248632803431	4.2502336407864
0	24280	223.498866444217	0.30673276151713
0	24299	223.805599205734	1.9146015929125
0	24478	225.720200798647	1.803696536048
0	24649	227.523897334695	0.15787914290355
0	24655	227.681776477599	0.53758749247654
0	24697	228.219363970076	2.007483967299
0	24911	230.226847937375	0.97181758859389
0	24983	231.198665525969	0.65589483114017
0	25050	231.854560357109	0.10460357290175
0	25062	231.959163930011	1.0597604587398
0	25123	233.018924388751	8.0204208458995
0	25925	241.03934523465	1.1496199315452
0	26033	242.188965166195	1.2549296822955
0	26164	243.44389484849	0.6119516830952
0	26197	244.055846531585	1.0013107843466
0	26324	245.057157315932	0.16795208064695
0	26345	245.225109396579	1.939086129382
0	26577	247.164195525961	0.20203497334778
0	26590	247.366230499309	3.2404793775605
0	26910	250.60670987687	9.7411812237478
0	27981	260.347891100618	0.4965469353219
0	28026	260.84443803594	0.52273277878076
0	28071	261.367170814721	1.5665729900098
0	28277	262.933743804731	2.3736354062055
0	28522	265.307379210936	2.2571860775882
0	28734	267.564565288524	0.7368371762724
0	28823	268.301402464796	0.33565175874606
0	28887	268.637054223542	1.6368421873483
0	29040	270.27389641089	1.7513597567261
0	29255	272.025256167616	0.95165581085935
0	29371	272.976911978475	8.3409817801049
0	30284	281.31789375858	3.3542052280681
0	30581	284.672098986648	1.2380867066649
0	30700	285.910185693313	2.3539362672804
0	30947	288.264121960593	2.1532846569226
0	31205	290.417406617516	0.29206057259123
0	31256	290.709467190107	2.2342470504829
0	31454	292.94371424059	1.4468490053497
0	31630	294.39056324594	1.135427580471
0	31756	295.525990826411	0.12391641545437
0	31763	295.649907241865	2.4749902162814
0	32078	298.124897458146	0.85703971953287
0	32139	298.981937177679	0.066722607370601
0	32144	299.04865978505	0.28991245996927
0	32170	299.338572245019	0.97111932974441
0	32278	300.309691574763	0.33323393742594
0	32336	300.642925512189	0.66241821248961
0	32436	301.305343724679	3.3702870982375
0	32779	304.675630822916	2.5041304131131
0	33106	307.179761236029	4.2822411897503
0	33628	311.462002425779	1.1834288819641
0	33765	312.645431307743	2.2938359587521
0	34094	314.939267266495	3.1465776094449
0	34449	318.08584487594	0.75660900104601
0	34553	318.842453876986	0.14639670931701
0	34575	318.988850586303	3.5227863191702
0	34995	322.511636905473	0.82654518364779
0	35060	323.338182089121	2.9498064258222
0	35374	326.287988514943	2.1204769103141
0	35581	328.408465425257	0.44235948113055
0	35625	328.850824906388	0.35633949616526
0	35654	329.207164402553	3.0559698202878
0	35986	332.263134222841	0.90217247858051
0	36084	333.165306701422	5.6024165722219
0	36634	338.767723273644	0.54474088425622
0	36694	339.3124641579	2.1096369443182
0	36875	341.422101102218	2.5380081800061
0	37183	343.960109282224	1.3280924304865
0	37323	345.28820171271	6.3257401420519
0	37898	351.613941854762	2.8128763613365
0	38260	354.426818216099	0.28679776158061
0	38308	354.71361597768	0.12847262231449
0	38325	354.842088599994	3.832970340586
0	38712	358.67505894058	2.1276936096049
0	38946	360.802752550185	0.54891626859168
0	39028	361.351668818777	6.1576833759198
0	39828	367.509352194697	0.054979121950554
0	39842	367.564331316648	0.95076975097913
0	39965	368.515101067627	0.080449550188948
0	39972	368.595550617816	0.93455110750111
0	40068	369.530101725317	7.7065572125617
0	40865	377.236658937879	2.1027168640375
0	41148	379.339375801916	3.9398966561456
0	41588	383.279272458062	0.26060265229577
0	41610	383.539875110358	2.5973137203348
0	41892	386.137188830693	0.51276692009164
0	41953	386.649955750785	2.4342233489572
0	42238	389.084179099742	3.9825962192311
0	42694	393.066775318973	0.46843019151937
0	42757	393.535205510492	2.8638159126296
0	43068	396.399021423122	0.79030724925738
0	43174	397.189328672379	3.4714099237759
1	1107	10.019880759161	0.04262848344
1	1113	10.062509242601	0.096907071311
1	1118	10.159416313912	0.074370856628
1	1123	10.23378717054	0.031153822816
1	1128	10.264940993356	0.031558797209
1	1133	10.296499790565	0.017689874466
1	1138	10.314189665031	0.173767310739
1	1147	10.48795697577	0.008474652205
1	1152	10.496431627975	0.056891668036
1	1159	10.553323296011	0.031768656788
1	1164	10.585091952799	0.125441753929
1	1169	10.710533706728	0.013996982999
1	1174	10.724530689727	0.135600742841
1	1180	10.860131432568	0.021910698111
1	1185	10.882042130679	0.149605795013
1	1190	11.031647925692	0.033101959644
1	1195	11.064749885336	0.02484605849
1	1200	11.089595943826	0.113318043061
1	1205	11.202913986887	0.073956838664
1	1210	11.276870825551	0.010478214352
1	1215	11.287349039903	0.065047798993
1	1221	11.352396838896	0.006166079721
1	1223	11.358562918617	0.004804058314
1	1228	11.363366976931	0.015823433486
1	1236	11.379190410417	0.035132766715
1	1242	11.414323177132	0.007943214761
1	1247	11.422266391893	0.010611174494
1	1252	11.432877566387	0.047749475816
1	1258	11.480627042203	0.244336843093
1	1267	11.724963885296	0.150652432765
1	1272	11.875616318061	0.007180835999
1	1274	11.88279715406	0.229658025981
1	1284	12.112455180041	0.062620239814
1	1289	12.175075419855	0.020980345552
1	1294	12.196055765407	0.099667899524
1	1300	12.295723664931	0.070619062522
1	1305	12.366342727453	0.05543442076
1	1311	12.421777148213	0.013872569977
1	1316	12.43564971819	0.02953521035
1	1321	12.46518492854	0.052182735866
1	1327	12.517367664406	0.069595738706
1	1333	12.586963403112	0.014314473383
1	1338	12.601277876495	0.006168943146
1	1340	12.607446819641	0.031727057677
1	1348	12.639173877318	0.015639680667
1	1353	12.654813557985	0.047940038341
1	1359	12.702753596326	0.185517915261
1	1364	12.888271511587	0.070410446217
1	1370	12.958681957804	0.002853376031
1	1372	12.961535333835	0.010125643711
1	1377	12.971660977546	0.104134896617
1	1385	13.075795874163	0.016007492037
1	1391	13.0918033662	0.011052111617
1	1396	13.102855477817	0.02440647884
1	1401	13.127261956657	0.040409619127
1	1406	13.167671575784	0.06050198337
1	1411	13.228173559154	0.024057491057
1	1416	13.252231050211	0.196888171395
1	1424	13.449119221606	0.039874089468
1	1429	13.488993311074	0.018066090609
1	1434	13.507059401683	0.045640561151
1	1440	13.552699962834	0.090328855359
1	1445	13.643028818193	0.025725805563
1	1450	13.668754623756	0.079296190616
1	1457	13.748050814372	0.085979015006
1	1462	13.834029829378	0.02709430528
1	1467	13.861124134658	0.001253036583
1	1469	13.862377171241	0.003074528718
1	1471	13.865451699959	0.004435382987
1	1476	13.869887082946	0.023530041482
1	1487	13.893417124428	0.00765286668
1	1492	13.901069991108	0.076199263266
1	1497	13.977269254374	0.01480342074
1	1502	13.992072675114	0.050862125382
1	1507	14.042934800496	0.026048330051
1	1512	14.068983130547	0.026467187009
1	1517	14.095450317556	0.22260573191
1	1523	14.318056049466	0.003540999746
1	1525	14.321597049212	1.3979907e-05
1	1527	14.321611029119	0.051297039118
1	1539	14.372908068237	0.001649800485
1	1541	14.374557868722	0.122746467439
1	1550	14.497304336161	0.015937279658
1	1555	14.513241615819	0.009617878016
1	1560	14.522859493835	0.029681418165
1	1565	14.552540912	0.09382275553
1	1571	14.64636366753	0.041150550659
1	1576	14.687514218189	0.03194547443
1	1581	14.719459692619	0.000926599802
1	1583	14.720386292421	0.047279584818
1	1591	14.767665877239	0.030869555002
1	1596	14.798535432241	0.027642174122
1	1601	14.826177606363	0.039315918087
1	1606	14.86549352445	0.06120638481
1	1611	14.92669990926	0.068382267697
1	1616	14.995082176957	0.025630667105
1	1621	15.020712844062	0.015279916726
1	1626	15.035992760788	0.062944816123
1	1631	15.098937576911	0.020261114325
1	1636	15.119198691236	0.003917924989
1	1638	15.123116616225	0.008186047157
1	1643	15.131302663382	0.017343802377
1	1651	15.148646465759	0.002495074042
1	1653	15.151141539801	0.096228268308
1	1662	15.247369808109	0.026209706828
1	1667	15.273579514937	0.02199019076
1	1672	15.295569705697	0.030389782558
1	1677	15.325959488255	0.034997524591
1	1683	15.360957012846	0.053453457801
1	1690	15.414410470647	0.041217784257
1	1696	15.455628254904	0.046912677888
1	1702	15.502540932792	0.040534939853
1	1707	15.543075872645	0.069266057879
1	1712	15.612341930524	0.046636978516
1	1717	15.65897890904	0.041973324267
1	1722	15.700952233307	0.015059288531
1	1727	15.716011521838	0.019989130431
1	1732	15.736000652269	0.006927832206
1	1734	15.742928484475	0.012572255865
1	1742	15.75550074034	0.035455189686
1	1747	15.790955930026	0.047021935399
1	1752	15.837977865425	0.030314471494
1	1757	15.868292336919	0.03343142769
1	1762	15.901723764609	0.02832255872
1	1768	15.930046323329	0.017805103268
1	1774	15.947851426597	0.043452725333
1	1780	15.99130415193	0.015449606548
1	1785	16.006753758478	0.058258457896
1	1790	16.065012216374	0.029275603883
1	1795	16.094287820257	0.01588272705
1	1800	16.110170547307	0.002108884007
1	1802	16.112279431314	0.036297481508
1	1810	16.148576912822	0.097895279504
1	1815	16.246472192326	0.370531295357
1	1822	16.617003487683	0.093041730461
1	1827	16.710045218144	0.122068836515
1	1832	16.832114054659	0.005426750855
1	1834	16.837540805514	0.027714949231
1	1842	16.865255754745	0.040982312344
1	1847	16.906238067089	0.021049034389
1	1852	16.927287101478	0.024872612459
1	1857	16.952159713937	0.020692248361
1	1863	16.972851962298	0.01626703575
1	1868	16.989118998048	0.012977205952
1	1874	17.002096204	0.002423960079
1	1876	17.004520164079	0.175743362835
1	1886	17.180263526914	0.015247703045
1	1891	17.195511229959	0.046446590041
1	1896	17.24195782	0.029648361615
1	1901	17.271606181615	0.036041862879
1	1906	17.307648044494	0.047419200977
1	1911	17.355067245471	0.009869068348
1	1916	17.364936313819	0.132757990043
1	1922	17.497694303862	0.088703373784
1	1929	17.586397677646	0.014811726551
1	1934	17.601209404197	0.006804799275
1	1936	17.608014203472	0.062473392898
1	1944	17.67048759637	0.169692561181
1	1951	17.840180157551	0.03763383488
1	1956	17.877813992431	0.012840953587
1	1961	17.890654946018	0.030277864276
1	1967	17.920932810294	0.06430119565
1	1972	17.985234005944	0.032891929325
1	1978	18.018125935269	0.027491822477
1	1983	18.045617757746	0.011889251944
1	1988	18.05750700969	0.063706168127
1	1993	18.121213177817	0.110326459838
1	1999	18.231539637655	0.077476770993
1	2005	18.309016408648	0.05907597813
1	2010	18.368092386778	0.01668748298
1	2015	18.384779869758	0.001593583585
1	2017	18.386373453343	0.088232534879
1	2026	18.474605988222	0.009498344869
1	2031	18.484104333091	0.000564449397
1	2033	18.484668782488	0.019614148974
1	2041	18.504282931462	0.099372070876
1	2046	18.603655002338	0.043911969699
1	2051	18.647566972037	0.021183891234
1	2056	18.668750863271	0.099624004513
1	2061	18.768374867784	0.037794237043
1	2066	18.806169104827	0.00668908848
1	2068	18.812858193307	0.010574652116
1	2077	18.823432845423	0.050497277524
1	2082	18.873930122947	0.015754418477
1	2088	18.889684541424	0.131910020117
1	2094	19.021594561541	0.054887451925
1	2099	19.076482013466	0.080735515585
1	2105	19.157217529051	0.018593038559
1	2110	19.17581056761	0.113932234046
1	2115	19.289742801656	0.09750054459
1	2120	19.387243346246	0.02710273973
1	2125	19.414346085976	0.069506997722
1	2131	19.483853083698	0.059291846781
1	2136	19.543144930479	0.0630268571
1	2142	19.606171787579	0.046328015891
1	2148	19.65249980347	0.048764095096
1	2154	19.701263898566	0.00840609584
1	2159	19.709669994406	0.001829203644
1	2161	19.71149919805	0.006301091804
1	2166	19.717800289854	0.107857368844
1	2174	19.825657658698	0.122169602182
1	2180	19.94782726088	0.010364233329
1	2185	19.958191494209	0.028058168972
1	2190	19.986249663181	0.0405694141
1	2196	20.026819077281	0.062457511316
1	2202	20.089276588597	0.046295457606
1	2207	20.135572046203	0.002157430345
1	2209	20.137729476548	0.061884424781
1	2218	20.199613901329	0.053769225558
1	2223	20.253383126887	0.006656436602
1	2225	20.260039563489	0.001983040288
1	2230	20.262022603777	0.007543598617
1	2235	20.269566202394	0.050524423552
1	2243	20.320090625946	0.064168127859
1	2248	20.384258753805	0.00828047976
1	2253	20.392539233565	0.100616489835
1	2259	20.4931557234	0.065224979223
1	2266	20.558380702623	0.063308722828
1	2271	20.621689425451	0.013546607283
1	2276	20.635236032734	0.06961213613
1	2282	20.704848168864	0.048497159989
1	2289	20.753345328853	0.012021480043
1	2294	20.765366808896	0.147256148595
1	2299	20.912622957491	0.069796294484
1	2304	20.982419251975	0.014837455966
1	2309	20.997256707941	0.036432296451
1	2315	21.033689004392	0.031191636033
1	2320	21.064880640425	0.098339414369
1	2327	21.163220054794	0.196409009146
1	2334	21.35962906394	0.092908879779
1	2339	21.452537943719	0.01095188016
1	2344	21.463489823879	0.056302265166
1	2349	21.519792089045	0.030242675463
1	2354	21.550034764508	0.101050403041
1	2359	21.651085167549	0.001002364773
1	2361	21.652087532322	0.0219637039
1	2369	21.674051236222	0.138650690989
1	2376	21.812701927211	0.085498394185
1	2382	21.898200321396	0.073931973733
1	2387	21.972132295129	0.009423778003
1	2392	21.981556073132	0.047614850706
1	2398	22.029170923838	0.034537343825
1	2403	22.063708267663	0.055703605604
1	2409	22.119411873267	0.028290776593
1	2414	22.14770264986	0.013685602923
1	2420	22.161388252783	0.054785649117
1	2426	22.2161739019	0.010191472727
1	2431	22.226365374627	0.04361222698
1	2436	22.269977601607	0.010143338029
1	2441	22.280120939636	0.002594533571
1	2443	22.282715473207	0.089711687841
1	2452	22.372427161048	0.018648488643
1	2457	22.391075649691	0.081430287878
1	2464	22.472505937569	0.04998141244
1	2469	22.522487350009	0.034164183409
1	2474	22.556651533418	0.03730468846
1	2479	22.593956221878	0.113985241184
1	2484	22.707941463062	0.071969982491
1	2489	22.779911445553	0.078982564041
1	2494	22.858894009594	0.147690506484
1	2500	23.006584516078	0.061172384373
1	2505	23.067756900451	0.035881795176
1	2510	23.103638695627	0.082936286333
1	2516	23.18657498196	0.084866984377
1	2521	23.271441966337	0.017203038413
1	2526	23.28864500475	0.004020551285
1	2528	23.292665556035	0.023890509239
1	2536	23.316556065274	0.148640813071
1	2542	23.465196878345	0.013515786992
1	2547	23.478712665337	0.075902211835
1	2553	23.554614877172	0.119261201422
1	2559	23.673876078594	0.074512814251
1	2564	23.748388892845	0.050639595437
1	2569	23.799028488282	0.104741619384
1	2574	23.903770107666	0.00494156988
1	2576	23.908711677546	0.002897823891
1	2578	23.911609501437	0.02195891455
1	2589	23.933568415987	0.040311453477
1	2594	23.973879869464	0.02729826646
1	2599	24.001178135924	0.191187404681
1	2605	24.192365540605	0.037756561624
1	2610	24.230122102229	0.049482664365
1	2615	24.279604766594	0.003808821704
1	2617	24.283413588298	0.000174414057
1	2619	24.283588002355	0.054488790126
1	2630	24.338076792481	0.01263762032
1	2635	24.350714412801	0.052358009327
1	2640	24.403072422128	0.114835533999
1	2646	24.517907956127	0.006187499157
1	2648	24.524095455284	0.01837467132
1	2656	24.542470126604	0.000679699417
1	2658	24.543149826021	0.028753572639
1	2666	24.57190339866	0.003921173277
1	2668	24.575824571937	0.171784004057
1	2676	24.747608575994	0.076128629036
1	2681	24.82373720503	0.173848278419
1	2686	24.997585483449	0.062624288616
1	2691	25.060209772065	0.002406097849
1	2693	25.062615869914	0.000768818793
1	2695	25.063384688707	0.032044066404
1	2706	25.095428755111	0.001396231725
1	2708	25.096824986836	0.010410695283
1	2713	25.107235682119	0.008480589804
1	2718	25.115716271923	0.035850134885
1	2726	25.151566406808	0.035956137619
1	2731	25.187522544427	0.003813744856
1	2733	25.191336289283	0.006970582132
1	2738	25.198306871415	0.059038265042
1	2746	25.257345136457	0.054808221328
1	2751	25.312153357785	0.001243776697
1	2753	25.313397134482	0.078613638835
1	2762	25.392010773317	0.06177661673
1	2769	25.453787390047	0.032966777576
1	2775	25.486754167623	0.013698710244
1	2781	25.500452877867	0.035269198783
1	2786	25.53572207665	0.009284991745
1	2791	25.545007068395	0.061133710617
1	2798	25.606140779012	0.044789184447
1	2803	25.650929963459	0.046791229512
1	2809	25.697721192971	0.023681436706
1	2814	25.721402629677	0.0045914701
1	2816	25.725994099777	0.038622526839
1	2825	25.764616626616	0.03046432435
1	2830	25.795080950966	0.032538361862
1	2835	25.827619312828	0.010779156798
1	2840	25.838398469626	0.127517950732
1	2845	25.965916420358	0.014147461423
1	2850	25.980063881781	0.022276754781
1	2855	26.002340636562	0.00693997419
1	2857	26.009280610752	0.059463616973
1	2866	26.068744227725	0.000234717351
1	2868	26.068978945076	0.009143842783
1	2873	26.078122787859	0.016264409016
1	2881	26.094387196875	0.09543612063
1	2886	26.189823317505	0.07043243665
1	2892	26.260255754155	0.025899948941
1	2897	26.286155703096	0.033101172682
1	2902	26.319256875778	0.036463499338
1	2907	26.355720375116	0.053048405784
1	2913	26.4087687809	0.033231367204
1	2918	26.442000148104	0.015891870863
1	2923	26.457892018967	0.054590776793
1	2929	26.51248279576	0.033951005793
1	2934	26.546433801553	0.022939880996
1	2939	26.569373682549	0.05747070012
1	2944	26.626844382669	0.076215392747
1	2950	26.703059775416	0.013234952506
1	2955	26.716294727922	0.006471282967
1	2957	26.722766010889	0.001332866185
1	2959	26.724098877074	0.055328655141
1	2970	26.779427532215	0.01793791265
1	2975	26.797365444865	0.001498785294
1	2977	26.798864230159	0.017995787503
1	2985	26.816860017662	0.101495886682
1	2990	26.918355904344	0.013804597194
1	2995	26.932160501538	0.004272044126
1	2997	26.936432545664	0.017489070925
1	3005	26.953921616589	0.130672367004
1	3011	27.084593983593	0.004017131487
1	3013	27.08861111508	0.036471087196
1	3022	27.125082202276	0.00920446686
1	3027	27.134286669136	0.0297175391
1	3032	27.164004208236	0.036716799521
1	3037	27.200721007757	0.00997716968
1	3042	27.210698177437	0.018054461319
1	3047	27.228752638756	0.031896978538
1	3053	27.260649617294	0.014611491905
1	3058	27.275261109199	0.02976903629
1	3063	27.305030145489	0.053626082724
1	3068	27.358656228213	0.127441744619
1	3074	27.486097972832	0.062227399511
1	3080	27.548325372343	0.120186417605
1	3085	27.668511789948	0.011258102545
1	3090	27.679769892493	0.088147640266
1	3095	27.767917532759	0.091077028308
1	3102	27.858994561067	0.085124838552
1	3108	27.944119399619	0.003308168845
1	3110	27.947427568464	0.133923501136
1	3119	28.0813510696	0.042562939222
1	3124	28.123914008822	0.002954455479
1	3126	28.126868464301	0.014259595891
1	3134	28.141128060192	0.082209760403
1	3139	28.223337820595	0.010721394024
1	3144	28.234059214619	0.101001595298
1	3149	28.335060809917	0.1487029268
1	3156	28.483763736717	0.052910551335
1	3161	28.536674288052	0.024045160232
1	3166	28.560719448284	0.0490568305
1	3171	28.609776278784	0.010572092892
1	3176	28.620348371676	0.252431401287
1	3183	28.872779772963	0.024561357448
1	3188	28.897341130411	0.022888503599
1	3193	28.92022963401	0.06726517168
1	3199	28.98749480569	0.020600431266
1	3205	29.008095236956	0.002651899912
1	3207	29.010747136868	0.077573549737
1	3215	29.088320686605	0.007072810617
1	3217	29.095393497222	0.01889349825
1	3225	29.114286995472	0.17458672098
1	3231	29.288873716452	0.056101540286
1	3238	29.344975256738	0.064741121394
1	3246	29.409716378132	0.037925362178
1	3251	29.44764174031	0.047372021973
1	3259	29.495013762283	0.026421387357
1	3264	29.52143514964	0.001713291699
1	3266	29.523148441339	0.043374915
1	3275	29.566523356339	0.002368651104
1	3277	29.568892007443	0.054492180664
1	3285	29.623384188107	0.001437699324
1	3287	29.624821887431	0.070308349333
1	3295	29.695130236764	0.005281635246
1	3297	29.70041187201	0.002427225074
1	3299	29.702839097084	0.031922110077
1	3311	29.734761207161	0.042933047368
1	3316	29.777694254529	0.074655280831
1	3321	29.85234953536	0.092671578926
1	3327	29.945021114286	0.047850792151
1	3332	29.992871906437	0.140615566376
1	3339	30.133487472813	0.080081303565
1	3345	30.213568776378	0.054139066957
1	3350	30.267707843335	0.001664743942
1	3352	30.269372587277	0.255555064053
1	3364	30.52492765133	0.003009442313
1	3366	30.527937093643	0.020435096825
1	3374	30.548372190468	0.030216861754
1	3379	30.578589052222	0.042315714952
1	3384	30.620904767174	0.025922434231
1	3389	30.646827201405	0.019911029402
1	3394	30.666738230807	0.141512850226
1	3400	30.808251081033	0.133843449433
1	3406	30.942094530466	0.004223780983
1	3408	30.946318311449	0.038180517352
1	3416	30.984498828801	0.150183017849
1	3422	31.13468184665	0.016070419972
1	3427	31.150752266622	0.015694023539
1	3432	31.166446290161	0.069494795258
1	3438	31.235941085419	0.032595781172
1	3443	31.268536866591	0.07314328707
1	3448	31.341680153661	0.008259655918
1	3451	31.349939809579	0.019055466071
1	3459	31.36899527565	0.072506774444
1	3464	31.441502050094	0.101185346081
1	3471	31.542687396175	0.052023719045
1	3478	31.59471111522	0.027070436527
1	3483	31.621781551747	0.011156476209
1	3488	31.632938027956	0.128069522919
1	3495	31.761007550875	0.004381126395
1	3497	31.76538867727	0.06497938731
1	3506	31.83036806458	0.029375664947
1	3511	31.859743729527	0.006461476606
1	3513	31.866205206133	0.049950204132
1	3521	31.916155410265	0.068497723073
1	3529	31.984653133338	0.156702290366
1	3535	32.141355423704	0.045483176987
1	3540	32.186838600691	0.013581206069
1	3546	32.20041980676	0.010878155604
1	3551	32.211297962364	0.047784974809
1	3556	32.259082937173	0.02742620709
1	3562	32.286509144263	0.025569212476
1	3568	32.312078356739	0.009138753225
1	3573	32.321217109964	0.016888540436
1	3578	32.3381056504	0.098436762824
1	3584	32.436542413224	0.080674981526
1	3590	32.51721739475	0.000901178216
1	3592	32.518118572966	0.118307633451
1	3600	32.636426206417	0.062131727243
1	3605	32.69855793366	0.052186779133
1	3610	32.750744712793	0.022452063766
1	3615	32.773196776559	0.016462392713
1	3620	32.789659169272	0.00729122464
1	3622	32.796950393912	0.085424871051
1	3630	32.882375264963	0.056357089261
1	3636	32.938732354224	0.033782927255
1	3641	32.972515281479	0.047773168228
1	3646	33.020288449707	0.000699104835
1	3648	33.020987554542	0.039201047989
1	3657	33.060188602531	0.006792946539
1	3659	33.06698154907	0.023240758433
1	3668	33.090222307503	0.025864864043
1	3674	33.116087171546	0.009322975106
1	3679	33.125410146652	0.03508249554
1	3684	33.160492642192	0.063828770757
1	3690	33.224321412949	0.116866938873
1	3699	33.341188351822	0.007917733512
1	3701	33.349106085334	0.008616187455
1	3709	33.357722272789	0.030524684471
1	3714	33.38824695726	0.037464445535
1	3719	33.425711402795	0.040102091447
1	3725	33.465813494242	0.073445134722
1	3730	33.539258628964	0.056886368233
1	3735	33.596144997197	0.041877196573
1	3740	33.63802219377	0.015228953084
1	3745	33.653251146854	0.013461429677
1	3751	33.666712576531	0.038053865122
1	3756	33.704766441653	0.090622021216
1	3763	33.795388462869	0.002713913951
1	3765	33.79810237682	0.047985156014
1	3774	33.846087532834	0.039430905789
1	3779	33.885518438623	0.050304430425
1	3784	33.935822869048	0.061997853045
1	3789	33.997820722093	0.022000787717
1	3794	34.01982150981	0.074545845656
1	3800	34.094367355466	0.047462114481
1	3806	34.141829469947	0.1181956336
1	3813	34.260025103547	0.029846412027
1	3818	34.289871515574	0.003507326604
1	3820	34.293378842178	0.0380382984
1	3828	34.331417140578	0.006283760657
1	3830	34.337700901235	0.052250141857
1	3839	34.389951043092	0.007372733079
1	3842	34.397323776171	0.115417666287
1	3852	34.512741442458	0.050470584628
1	3857	34.563212027086	0.027850225529
1	3862	34.591062252615	0.020783888316
1	3868	34.611846140931	0.121572960169
1	3875	34.7334191011	0.100971867297
1	3880	34.834390968397	0.025021105147
1	3886	34.859412073544	0.062500037125
1	3892	34.921912110669	0.056518108677
1	3897	34.978430219346	0.272907911227
1	3908	35.251338130573	0.068123682355
1	3915	35.319461812928	0.018374923176
1	3920	35.337836736104	0.026171245351
1	3925	35.364007981455	0.008793206709
1	3930	35.372801188164	0.05171833577
1	3935	35.424519523934	0.138489239136
1	3940	35.56300876307	0.068868075904
1	3945	35.631876838974	0.291890729378
1	3951	35.923767568352	0.024939465221
1	3956	35.948707033573	0.053182929185
1	3961	36.001889962758	0.008931987567
1	3966	36.010821950325	0.001407141107
1	3968	36.012229091432	0.011893517678
1	3973	36.02412260911	0.028163091147
1	3981	36.052285700257	0.020571857714
1	3987	36.072857557971	0.033858340358
1	3993	36.106715898329	0.109730634273
1	3999	36.216446532602	0.030100990326
1	4004	36.246547522928	0.016283055759
1	4009	36.262830578687	0.053397248025
1	4014	36.316227826712	0.04643071709
1	4019	36.362658543802	0.028647179006
1	4024	36.391305722808	0.001749472323
1	4026	36.393055195131	0.031184210604
1	4034	36.424239405735	0.055893452663
1	4039	36.480132858398	0.006126282594
1	4041	36.486259140992	0.057741547046
1	4049	36.544000688038	0.063806441983
1	4054	36.607807130021	0.009279044357
1	4059	36.617086174378	0.014836436632
1	4065	36.63192261101	0.018525000327
1	4070	36.650447611337	0.00569700582
1	4072	36.656144617157	0.035462620345
1	4080	36.691607237502	0.002219828895
1	4082	36.693827066397	0.009628294172
1	4088	36.703455360569	0.000822353654
1	4090	36.704277714223	0.089597005056
1	4102	36.793874719279	0.016543434146
1	4107	36.810418153425	0.057973065878
1	4113	36.868391219303	0.00961890495
1	4118	36.878010124253	0.058177145321
1	4123	36.936187269574	0.021947272402
1	4128	36.958134541976	0.095920105798
1	4135	37.054054647774	0.004576132061
1	4137	37.058630779835	0.059790184735
1	4146	37.11842096457	0.023191398178
1	4151	37.141612362748	0.037594064935
1	4156	37.179206427683	0.080236891562
1	4161	37.259443319245	0.068344121824
1	4167	37.327787441069	0.031957345436
1	4172	37.359744786505	0.140096389384
1	4180	37.499841175889	0.000993182255
1	4182	37.500834358144	0.000705036988
1	4184	37.501539395132	0.015992832986
1	4192	37.517532228118	0.003010258178
1	4194	37.520542486296	0.007531030528
1	4199	37.528073516824	0.044197229267
1	4210	37.572270746091	0.014587360302
1	4215	37.586858106393	0.005272855589
1	4217	37.592130961982	0.095738796028
1	4225	37.68786975801	0.084427803046
1	4231	37.772297561056	0.040116316463
1	4237	37.812413877519	0.018269194286
1	4242	37.830683071805	0.121092886204
1	4247	37.951775958009	0.077481753304
1	4252	38.029257711313	0.03458469012
1	4258	38.063842401433	0.006504807881
1	4260	38.070347209314	0.013983616443
1	4268	38.084330825757	0.075547322853
1	4273	38.15987814861	0.063545812452
1	4278	38.223423961062	0.114491992321
1	4283	38.337915953383	0.042453520885
1	4289	38.380369474268	0.083530368676
1	4296	38.463899842944	0.005929759239
1	4298	38.469829602183	0.043527313722
1	4306	38.513356915905	0.022629399511
1	4311	38.535986315416	0.191853081163
1	4317	38.727839396579	0.011253105908
1	4322	38.739092502487	0.002219590132
1	4324	38.741312092619	0.053010788339
1	4332	38.794322880958	0.018742397441
1	4337	38.813065278399	0.069825159468
1	4342	38.882890437867	0.004013875938
1	4345	38.886904313805	0.060770694113
1	4353	38.947675007918	0.004952266304
1	4355	38.952627274222	0.027534251808
1	4363	38.98016152603	0.139017200767
1	4370	39.119178726797	0.008720060192
1	4375	39.127898786989	0.021405315246
1	4380	39.149304102235	0.001828938507
1	4382	39.151133040742	0.122784058266
1	4392	39.273917099008	0.029482802358
1	4397	39.303399901366	0.069249585193
1	4402	39.372649486559	0.011584017969
1	4407	39.384233504528	0.092446718863
1	4414	39.476680223391	0.037739854673
1	4419	39.514420078064	0.004123510175
1	4421	39.518543588239	0.03698247293
1	4430	39.555526061169	0.160459201284
1	4435	39.715985262453	0.074160385599
1	4440	39.790145648052	0.09348816595
1	4446	39.883633814002	0.100672895039
1	4452	39.984306709041	0.028252893971
1	4457	40.012559603012	0.001061054822
1	4459	40.013620657834	0.079664443474
1	4469	40.093285101308	0.298468991379
1	4477	40.391754092687	0.035965233514
1	4483	40.427719326201	0.021191108499
1	4488	40.4489104347	0.016203830702
1	4494	40.465114265402	0.005692883443
1	4496	40.470807148845	0.052044806081
1	4505	40.522851954926	0.090212044312
1	4511	40.613063999238	0.135545354001
1	4517	40.748609353239	0.07574331467
1	4523	40.824352667909	0.098471871822
1	4529	40.922824539731	0.022812564756
1	4535	40.945637104487	0.041217121875
1	4540	40.986854226362	0.008462556919
1	4545	40.995316783281	0.016533098376
1	4550	41.011849881657	0.034211239828
1	4555	41.046061121485	0.006802920891
1	4557	41.052864042376	0.026236955604
1	4565	41.07910099798	0.002045944974
1	4567	41.081146942954	0.02856178042
1	4575	41.109708723374	0.044563933675
1	4580	41.154272657049	0.116955999555
1	4585	41.271228656604	0.086224792575
1	4591	41.357453449179	0.010611536185
1	4596	41.368064985364	0.008752312026
1	4601	41.37681729739	0.004428942244
1	4603	41.381246239634	0.02593168012
1	4611	41.407177919754	0.010617144766
1	4616	41.41779506452	0.001977951301
1	4618	41.419773015821	0.046733071813
1	4626	41.466506087634	0.017254821656
1	4631	41.48376090929	0.050355072157
1	4636	41.534115981447	0.052748560445
1	4641	41.586864541892	0.004159099909
1	4643	41.591023641801	0.069509905567
1	4651	41.660533547368	0.011200208523
1	4656	41.671733755891	0.007634105038
1	4661	41.679367860929	0.057243779393
1	4669	41.736611640322	0.009033292547
1	4674	41.745644932869	0.098038907033
1	4681	41.843683839902	0.032953647377
1	4686	41.876637487279	0.080704818077
1	4692	41.957342305356	0.047766699933
1	4697	42.005109005289	0.002715946166
1	4699	42.007824951455	0.067885306743
1	4707	42.075710258198	0.059783113078
1	4712	42.135493371276	0.214881352224
1	4719	42.3503747235	0.035987334279
1	4724	42.386362057779	0.00897692814
1	4729	42.395338985919	0.048675976321
1	4734	42.44401496224	0.050420451523
1	4740	42.494435413763	0.165155388153
1	4746	42.659590801916	0.0334769764
1	4751	42.693067778316	0.0788786045
1	4756	42.771946382816	0.016317996778
1	4761	42.788264379594	0.039238453596
1	4766	42.82750283319	0.023765859629
1	4772	42.851268692819	0.068799329181
1	4779	42.920068022	0.138930517423
1	4785	43.058998539423	0.026075728351
1	4790	43.085074267774	0.03116519154
1	4795	43.116239459314	0.058199432831
1	4801	43.174438892145	0.076663916295
1	4806	43.25110280844	0.032831345755
1	4811	43.283934154195	0.100905537627
1	4816	43.384839691822	0.112672415878
1	4823	43.4975121077	0.09034750837
1	4828	43.58785961607	0.116882375418
1	4834	43.704741991488	0.047046781644
1	4840	43.751788773132	0.025954517921
1	4846	43.777743291053	0.038424181833
1	4852	43.816167472886	0.007433537091
1	4854	43.823601009977	0.009460360987
1	4862	43.833061370964	0.052452671136
1	4867	43.8855140421	0.031238740059
1	4872	43.916752782159	0.04075723875
1	4877	43.957510020909	0.012903468145
1	4882	43.970413489054	0.054883469579
1	4887	44.025296958633	0.023954126241
1	4892	44.049251084874	0.075197324152
1	4897	44.124448409026	0.002963320597
1	4899	44.127411729623	0.030483606203
1	4907	44.157895335826	0.246114293774
1	4913	44.4040096296	0.009423819666
1	4918	44.413433449266	0.009635872836
1	4923	44.423069322102	0.080821656954
1	4928	44.503890979056	0.020475929774
1	4933	44.52436690883	0.024624691931
1	4938	44.548991600761	0.026344947534
1	4943	44.575336548295	0.045942704562
1	4948	44.621279252857	0.115132760457
1	4956	44.736412013314	0.042468366508
1	4962	44.778880379822	0.053879861617
1	4968	44.832760241439	0.124609417245
1	4975	44.957369658684	0.172931364159
1	4981	45.130301022843	0.021460391256
1	4986	45.151761414099	0.028472050686
1	4992	45.180233464785	0.04394941284
1	4997	45.224182877625	0.043058316046
1	5002	45.267241193671	0.007669122022
1	5004	45.274910315693	0.00094105537
1	5009	45.275851371063	0.127604195837
1	5018	45.4034555669	0.054256392733
1	5024	45.457711959633	0.009447331593
1	5029	45.467159291226	0.068817348369
1	5034	45.535976639595	0.043566470888
1	5039	45.579543110483	0.052357748554
1	5045	45.631900859037	0.015262824219
1	5050	45.647163683256	0.173220662465
1	5055	45.820384345721	0.004962369063
1	5057	45.825346714784	0.009938220467
1	5062	45.835284935251	0.093438277296
1	5070	45.928723212547	0.006333776267
1	5072	45.935056988814	0.04349706607
1	5080	45.978554054884	0.076575365268
1	5086	46.055129420152	0.029568851842
1	5091	46.084698271994	0.057673257111
1	5096	46.142371529105	0.034291403165
1	5101	46.17666293227	0.031877023984
1	5106	46.208539956254	0.022629859477
1	5111	46.231169815731	0.0232479465
1	5116	46.254417762231	0.001027180453
1	5118	46.255444942684	0.037914830419
1	5126	46.293359773103	0.007948363428
1	5131	46.301308136531	0.037659912617
1	5136	46.338968049148	0.029804678455
1	5142	46.368772727603	0.033695999905
1	5148	46.402468727508	0.177050368298
1	5155	46.579519095806	0.088813916489
1	5160	46.668333012295	0.061767582622
1	5165	46.730100594917	0.055545738337
1	5170	46.785646333254	0.180737270383
1	5176	46.966383603637	0.016074237872
1	5181	46.982457841509	0.042170452511
1	5186	47.02462829402	0.126686685321
1	5194	47.151314979341	0.007914197288
1	5199	47.159229176629	0.004202072072
1	5201	47.163431248701	0.065525080146
1	5211	47.228956328847	0.072328085145
1	5216	47.301284413992	0.017160149397
1	5221	47.318444563389	0.016069270052
1	5226	47.334513833441	0.021060683206
1	5231	47.355574516647	0.032894363821
1	5236	47.388468880468	0.103887949446
1	5243	47.492356829914	0.081973594284
1	5248	47.574330424198	0.00984406038
1	5253	47.584174484578	0.045379375681
1	5258	47.629553860259	0.017621176512
1	5263	47.647175036771	0.028548734586
1	5269	47.675723771357	0.083150189104
1	5274	47.758873960461	0.09935647044
1	5281	47.858230430901	0.007323744772
1	5286	47.865554175673	0.001002491634
1	5288	47.866556667307	0.022292547212
1	5296	47.888849214519	0.044193992876
1	5303	47.933043207395	0.015901155326
1	5308	47.948944362721	0.068353446683
1	5313	48.017297809404	0.00684881377
1	5315	48.024146623174	0.074658210914
1	5325	48.098804834088	0.017005585447
1	5330	48.115810419535	0.107532533165
1	5335	48.2233429527	0.053586767939
1	5340	48.276929720639	0.102965758049
1	5345	48.379895478688	0.006341909924
1	5347	48.386237388612	0.26200919451
1	5356	48.648246583122	0.044067109674
1	5362	48.692313692796	0.007263209634
1	5364	48.69957690243	0.044476188475
1	5372	48.744053090905	0.035119165486
1	5377	48.779172256391	0.208436287405
1	5383	48.987608543796	0.022841530009
1	5388	49.010450073805	0.001994549854
1	5390	49.012444623659	0.11465681125
1	5398	49.127101434909	0.076981267435
1	5403	49.204082702344	0.04202561473
1	5410	49.246108317074	0.00376879644
1	5412	49.249877113514	0.069568105723
1	5420	49.319445219237	0.029913006474
1	5425	49.349358225711	0.013940518689
1	5430	49.3632987444	0.16047228783
1	5435	49.52377103223	0.027838021024
1	5440	49.551609053254	0.056553040215
1	5446	49.608162093469	0.002749555127
1	5448	49.610911648596	0.092338492005
1	5456	49.703250140601	0.030642248244
1	5462	49.733892388845	0.129113535976
1	5470	49.863005924821	0.055593529981
1	5475	49.918599454802	0.074192122019
1	5481	49.992791576821	0.046496699455
1	5486	50.039288276276	0.045271331798
1	5491	50.084559608074	0.007400386298
1	5497	50.091959994372	0.108224067989
1	5505	50.200184062361	0.163757221078
1	5512	50.363941283439	0.139513170706
1	5518	50.503454454145	0.056453609242
1	5523	50.559908063387	0.082725401907
1	5529	50.642633465294	0.080812106932
1	5535	50.723445572226	0.025539812623
1	5540	50.748985384849	0.016702093799
1	5545	50.765687478648	0.036855352165
1	5550	50.802542830813	0.011498340382
1	5555	50.814041171195	0.036528680744
1	5560	50.850569851939	0.003197553706
1	5562	50.853767405645	0.04820951339
1	5571	50.901976919035	0.023110016575
1	5576	50.92508693561	0.007618171081
1	5581	50.932705106691	0.056309425699
1	5587	50.98901453239	0.018135679631
1	5592	51.007150212021	0.005618215009
1	5594	51.01276842703	0.153111729932
1	5603	51.165880156962	0.055926599715
1	5608	51.221806756677	0.348976089955
1	5616	51.570782846632	0.000103598973
1	5618	51.570886445605	0.039556428876
1	5626	51.610442874481	0.082609048022
1	5632	51.693051922503	0.127496042134
1	5638	51.820547964637	0.045533493402
1	5644	51.866081458039	0.027292566219
1	5649	51.893374024258	0.01896697143
1	5654	51.912340995688	0.026037919095
1	5659	51.938378914783	0.015034790466
1	5664	51.953413705249	0.111177810305
1	5670	52.064591515554	0.021533212744
1	5675	52.086124728298	0.016100783252
1	5681	52.10222551155	0.066207588385
1	5687	52.168433099935	0.005438808955
1	5689	52.17387190889	0.03557089361
1	5697	52.2094428025	0.007693894324
1	5702	52.217136696824	0.034046152864
1	5707	52.251182849688	0.024566475836
1	5712	52.275749325524	0.005796623622
1	5714	52.281545949146	0.016658638441
1	5722	52.298204587587	0.057841703217
1	5727	52.356046290804	0.05202482361
1	5732	52.408071114414	0.022342275453
1	5737	52.430413389867	0.00773654386
1	5742	52.438149933727	0.01822607541
1	5747	52.456376009137	0.028055679881
1	5752	52.484431689018	0.012854789167
1	5757	52.497286478185	0.001799359733
1	5759	52.499085837918	0.050788457287
1	5768	52.549874295205	0.095904292489
1	5774	52.645778587694	0.116802807774
1	5779	52.762581395468	0.006895254862
1	5781	52.76947665033	0.023975681009
1	5790	52.793452331339	0.055469045961
1	5795	52.8489213773	0.13417451518
1	5803	52.98309589248	0.058634461503
1	5808	53.041730353983	0.027522921777
1	5813	53.06925327576	0.041067188814
1	5819	53.110320464574	0.008986728622
1	5824	53.119307193196	0.084932689283
1	5829	53.204239882479	0.00347630658
1	5831	53.207716189059	0.012028051932
1	5839	53.219744240991	0.174967500975
1	5845	53.394711741966	0.021492079854
1	5851	53.41620382182	0.079545612265
1	5857	53.495749434085	0.020401309216
1	5862	53.516150743301	0.197966024828
1	5870	53.714116768129	0.053975153079
1	5875	53.768091921208	0.0060433299
1	5877	53.774135251108	0.034300710499
1	5885	53.808435961607	0.04955365358
1	5890	53.857989615187	0.056407034044
1	5896	53.914396649231	0.010315899898
1	5901	53.924712549129	0.030387375337
1	5906	53.955099924466	0.050559609596
1	5911	54.005659534062	0.018777092173
1	5916	54.024436626235	0.091160078034
1	5921	54.115596704269	0.027646714232
1	5926	54.143243418501	0.076351708024
1	5931	54.219595126525	0.016500483937
1	5936	54.236095610462	0.095741577121
1	5943	54.331837187583	0.008782560515
1	5948	54.340619748098	0.0601701625
1	5954	54.400789910598	0.035763870649
1	5959	54.436553781247	0.023148499238
1	5964	54.459702280485	0.027210904793
1	5970	54.486913185278	0.076865517372
1	5976	54.56377870265	0.062083640565
1	5981	54.625862343215	0.05260322276
1	5986	54.678465565975	0.006066631461
1	5988	54.684532197436	0.007011220043
1	5993	54.691543417479	0.000355680882
1	5995	54.691899098361	0.008463752928
1	6000	54.700362851289	0.006855219947
1	6005	54.707218071236	0.143126225146
1	6016	54.850344296382	0.00672848942
1	6018	54.857072785802	0.110227996016
1	6027	54.967300781818	0.003874695204
1	6029	54.971175477022	0.071614665567
1	6037	55.042790142589	0.028132974121
1	6042	55.07092311671	0.045682236396
1	6047	55.116605353106	0.017461326659
1	6052	55.134066679765	0.133668240331
1	6059	55.267734920096	0.071838086845
1	6064	55.339573006941	0.009625255644
1	6069	55.349198262585	0.042935271383
1	6076	55.392133533968	0.01140604431
1	6081	55.403539578278	0.021245063533
1	6086	55.424784641811	0.040252107399
1	6091	55.46503674921	0.04586274076
1	6096	55.51089948997	0.055510708024
1	6101	55.566410197994	0.090004706445
1	6106	55.656414904439	0.001824848775
1	6108	55.658239753214	0.013444466823
1	6113	55.671684220037	0.011858594097
1	6121	55.683542814134	0.08466669582
1	6126	55.768209509954	0.025579940207
1	6131	55.793789450161	0.030785935135
1	6136	55.824575385296	0.00997352422
1	6141	55.834548909516	0.002368662883
1	6143	55.836917572399	0.014230892263
1	6151	55.851148464662	0.020315765821
1	6156	55.871464230483	0.036384328017
1	6161	55.9078485585	0.015092055405
1	6166	55.922940613905	0.02108052996
1	6171	55.944021143865	0.008824299332
1	6176	55.952845443197	0.039394947942
1	6181	55.992240391139	0.033068605155
1	6186	56.025308996294	0.014696994741
1	6191	56.040005991035	0.155805753298
1	6199	56.195811744333	0.029498944202
1	6205	56.225310688535	0.025635642108
1	6210	56.250946330643	0.114010608818
1	6215	56.364956939461	0.021324748402
1	6220	56.386281687863	0.082330327263
1	6225	56.468612015126	0.025625680722
1	6231	56.494237695848	0.02991012588
1	6236	56.524147821728	0.062799952932
1	6241	56.58694777466	0.005346362405
1	6243	56.592294137065	0.160834685685
1	6254	56.75312882275	0.057310226676
1	6260	56.810439049426	0.015816614755
1	6265	56.826255664181	0.027167787145
1	6270	56.853423451326	0.000359050458
1	6272	56.853782501784	0.067663476828
1	6282	56.921445978612	0.012648323665
1	6287	56.934094302277	0.138062855881
1	6292	57.072157158158	0.128499005931
1	6298	57.200656164089	0.038819981351
1	6303	57.23947614544	0.068766085512
1	6308	57.308242230952	0.014804473196
1	6313	57.323046704148	0.148792322144
1	6320	57.471839026292	0.0442297216
1	6327	57.516068747892	0.041518578999
1	6332	57.557587326891	0.051282245065
1	6337	57.608869571956	0.090241459545
1	6343	57.699111031501	0.141115043532
1	6349	57.840226075033	0.009592678596
1	6354	57.849818753629	0.058385315606
1	6360	57.908204069235	0.016245867065
1	6365	57.9244499363	0.001276354624
1	6367	57.925726290924	0.007672491062
1	6372	57.933398781986	0.041655693644
1	6380	57.97505447563	0.123556774501
1	6385	58.098611250131	0.022872617839
1	6391	58.12148386797	0.111357180863
1	6396	58.232841048833	0.01236704984
1	6401	58.245208098673	0.000857251913
1	6403	58.246065350586	0.003935798924
1	6405	58.25000114951	0.005850805487
1	6410	58.255851954997	0.048585127316
1	6421	58.304437082313	0.011599781235
1	6426	58.316036863548	0.00376775069
1	6428	58.319804614238	0.146233911674
1	6437	58.466038525912	0.011829916693
1	6442	58.477868442605	0.022842652083
1	6447	58.500711094688	0.034986790992
1	6452	58.53569788568	0.081161844565
1	6458	58.616859730245	0.001974964153
1	6460	58.618834694398	0.047717116507
1	6468	58.666551810905	0.037352733194
1	6473	58.703904544099	0.091620331478
1	6479	58.795524875577	0.168788547343
1	6486	58.96431342292	0.049435930702
1	6491	59.013749353622	0.217580675672
1	6498	59.231330029294	0.034958770169
1	6503	59.266288799463	0.173552067335
1	6509	59.439840866798	0.011616467527
1	6514	59.451457334325	0.020044739934
1	6519	59.471502074259	0.013121407838
1	6524	59.484623482097	0.024472340511
1	6529	59.509095822608	0.036460961231
1	6534	59.545556783839	0.015139784519
1	6539	59.560696568358	0.080262736779
1	6544	59.640959305137	0.068841172412
1	6550	59.709800477549	0.01070840358
1	6555	59.720508881129	0.026455679947
1	6560	59.746964561076	0.004273039485
1	6562	59.751237600561	0.054252116101
1	6570	59.805489716662	0.042737062426
1	6575	59.848226779088	4.4583691e-05
1	6577	59.848271362779	0.085118661564
1	6586	59.933390024343	0.003100039163
1	6588	59.936490063506	0.045104608008
1	6597	59.981594671514	0.043545327694
1	6603	60.025139999208	0.058385205246
1	6609	60.083525204454	0.037428021106
1	6614	60.12095322556	0.02786665053
1	6619	60.14881987609	0.037890377398
1	6625	60.186710253488	0.008139042374
1	6630	60.194849295862	0.121377643395
1	6635	60.316226939257	0.02058136352
1	6640	60.336808302777	0.01428165326
1	6645	60.351089956037	0.043062956692
1	6651	60.394152912729	0.066318553759
1	6656	60.460471466488	0.074840995325
1	6661	60.535312461813	0.052977537917
1	6666	60.58828999973	0.00732661587
1	6668	60.5956166156	0.015652632062
1	6678	60.611269247662	0.055236489878
1	6684	60.66650573754	0.000748004287
1	6686	60.667253741827	0.003400739472
1	6688	60.670654481299	0.086951803939
1	6699	60.757606285238	0.006339096335
1	6701	60.763945381573	0.055942020751
1	6709	60.819887402324	0.065911007995
1	6715	60.885798410319	0.066445906671
1	6720	60.95224431699	0.017631686409
1	6725	60.969876003399	0.055908653281
1	6730	61.02578465668	0.00885205638
1	6735	61.03463671306	0.024607962809
1	6740	61.059244675869	0.030911457509
1	6745	61.090156133378	0.08859616693
1	6750	61.178752300308	0.093012498578
1	6755	61.271764798886	0.134485791181
1	6762	61.406250590067	0.151130309165
1	6771	61.557380899232	0.021727904548
1	6776	61.57910880378	0.08008939479
1	6783	61.65919819857	0.013163556677
1	6788	61.672361755247	0.029375450701
1	6793	61.701737205948	0.037516787447
1	6798	61.739253993395	0.002446559489
1	6801	61.741700552884	0.023859814215
1	6809	61.765560367099	0.006893875587
1	6811	61.772454242686	0.182458901583
1	6819	61.954913144269	0.017710918958
1	6824	61.972624063227	0.010189277988
1	6829	61.982813341215	0.042188310397
1	6834	62.025001651612	0.091057709451
1	6840	62.116059361063	0.220984415319
1	6846	62.337043776382	0.12225401657
1	6853	62.459297792952	0.026014803449
1	6858	62.485312596401	0.025542425149
1	6863	62.51085502155	0.018077447992
1	6868	62.528932469542	0.185799377299
1	6875	62.714731846841	0.01554805934
1	6880	62.730279906181	0.08246673038
1	6886	62.812746636561	0.004536450807
1	6888	62.817283087368	0.053277903574
1	6896	62.870560990942	0.001924930301
1	6898	62.872485921243	0.088238408384
1	6908	62.960724329627	0.022999154429
1	6913	62.983723484056	0.062629459096
1	6919	63.046352943152	0.028571436106
1	6924	63.074924379258	0.031769354576
1	6929	63.106693733834	0.05106826841
1	6935	63.157762002244	0.018363164342
1	6941	63.176125166586	0.01469147384
1	6946	63.190816640426	0.017850499943
1	6952	63.208667140369	0.065678386604
1	6958	63.274345526973	0.042879669578
1	6964	63.317225196551	0.097004786704
1	6969	63.414229983255	0.01045346243
1	6974	63.424683445685	0.00899329469
1	6979	63.433676740375	0.004270712993
1	6982	63.437947453368	0.048483604718
1	6990	63.486431058086	0.036389583991
1	6995	63.522820642077	0.176322423314
1	7000	63.699143065391	0.001003779862
1	7002	63.700146845253	0.050734131019
1	7010	63.750880976272	0.221507076093
1	7019	63.972388052365	0.097835462092
1	7024	64.070223514457	0.062786476518
1	7029	64.133009990975	0.06873182492
1	7034	64.201741815895	0.018123772745
1	7039	64.21986558864	0.059095915047
1	7045	64.278961503687	0.086283869825
1	7051	64.365245373512	0.037604561173
1	7056	64.402849934685	0.025971770923
1	7061	64.428821705608	0.022019307929
1	7066	64.450841013537	0.023926097081
1	7071	64.474767110618	0.072467757878
1	7076	64.547234868496	0.04213039012
1	7081	64.589365258616	0.087238159962
1	7086	64.676603418578	0.009791547132
1	7091	64.68639496571	0.002336812764
1	7093	64.688731778474	0.039582678287
1	7101	64.728314456761	0.058953995409
1	7106	64.78726845217	0.003155475339
1	7108	64.790423927509	0.014278304283
1	7116	64.804702231792	0.034444516979
1	7123	64.839146748771	0.047364226464
1	7128	64.886510975235	0.02470334505
1	7133	64.911214320285	0.036955359664
1	7138	64.948169679949	0.112072501448
1	7144	65.060242181397	0.081603450334
1	7149	65.141845631731	0.042094995954
1	7154	65.183940627685	0.009875261462
1	7159	65.193815889147	0.020667826324
1	7164	65.214483715471	0.056387159208
1	7169	65.270870874679	0.057649945759
1	7176	65.328520820438	0.04972220345
1	7182	65.378243023888	0.030458724494
1	7187	65.408701748382	0.01912842758
1	7194	65.427830175962	0.009710374144
1	7199	65.437540550106	0.111550060426
1	7206	65.549090610532	0.081215490767
1	7212	65.630306101299	0.054744037606
1	7217	65.685050138905	0.023994487268
1	7222	65.709044626173	0.065566015249
1	7227	65.774610641422	0.076509196332
1	7232	65.851119837754	0.043641583345
1	7238	65.894761421099	0.044337579578
1	7243	65.939099000677	0.104355681123
1	7248	66.0434546818	0.089736551705
1	7253	66.133191233505	0.016834936671
1	7258	66.150026170176	0.070419109399
1	7263	66.220445279575	0.002425864988
1	7265	66.222871144563	0.037215473097
1	7273	66.26008661766	0.003668691834
1	7275	66.263755309494	0.016077250846
1	7283	66.27983256034	0.038473304244
1	7288	66.318305864584	0.043028356182
1	7294	66.361334220766	0.148087201852
1	7299	66.509421422618	0.194483043701
1	7305	66.703904466319	0.024657766907
1	7310	66.728562233226	0.025109501474
1	7315	66.7536717347	0.052849218116
1	7321	66.806520952816	0.007288849017
1	7323	66.813809801833	0.072362187463
1	7331	66.886171989296	0.072726576259
1	7337	66.958898565555	0.054022472732
1	7342	67.012921038287	0.105303035242
1	7347	67.118224073529	0.009341318286
1	7352	67.127565391815	0.024788104108
1	7358	67.152353495923	0.012826979527
1	7363	67.16518047545	0.146678607143
1	7369	67.311859082593	0.000645426306
1	7371	67.312504508899	0.162760900485
1	7382	67.475265409384	0.068461969825
1	7388	67.543727379209	0.040422601953
1	7393	67.584149981162	0.046588359862
1	7398	67.630738341024	0.037807455691
1	7404	67.668545796715	0.095762634191
1	7410	67.764308430906	0.008876497519
1	7415	67.773184928425	0.007047570946
1	7417	67.780232499371	0.009134641464
1	7425	67.789367140835	0.010769805366
1	7430	67.800136946201	0.002418327675
1	7432	67.802555273876	0.0824973155
1	7440	67.885052589376	0.061242783271
1	7445	67.946295372647	0.040506486137
1	7450	67.986801858784	0.019720881799
1	7455	68.006522740583	0.062207810272
1	7461	68.068730550855	0.004973466625
1	7463	68.07370401748	0.033195135158
1	7471	68.106899152638	0.018092048204
1	7476	68.124991200842	0.026556003886
1	7481	68.151547204728	0.02393081947
1	7486	68.175478024198	0.03981093539
1	7491	68.215288959588	0.026125896438
1	7496	68.241414856026	0.119977582706
1	7502	68.361392438732	0.005364694015
1	7504	68.366757132747	0.163170710348
1	7513	68.529927843095	0.192952173102
1	7520	68.722880016197	0.045393600059
1	7525	68.768273616256	0.025773372248
1	7530	68.794046988504	0.054500825983
1	7536	68.848547814487	0.026284499328
1	7541	68.874832313815	0.019977449924
1	7546	68.894809763739	0.023226261801
1	7551	68.91803602554	0.016275804676
1	7556	68.934311830216	0.056791245127
1	7562	68.991103075343	0.013946926299
1	7567	69.005050001642	0.131015053455
1	7572	69.136065055097	0.047415060414
1	7577	69.183480115511	0.100509890578
1	7582	69.283990006089	0.043566105807
1	7587	69.327556111896	0.205900637413
1	7594	69.533456749309	0.038797256703
1	7600	69.572254006012	0.079471695025
1	7606	69.651725701037	0.032814971156
1	7611	69.684540672193	0.038184548572
1	7616	69.722725220765	0.074200169923
1	7621	69.796925390688	0.094348722775
1	7626	69.891274113463	0.012756806714
1	7631	69.904030920177	0.005372783307
1	7633	69.909403703484	0.054030928026
1	7641	69.96343463151	0.045626357713
1	7647	70.009060989223	0.084756780555
1	7653	70.093817769778	0.053100795275
1	7658	70.146918565053	0.035281253086
1	7663	70.182199818139	0.029457111462
1	7669	70.211656929601	0.00659142299
1	7671	70.218248352591	0.024394230519
1	7679	70.24264258311	0.023047312324
1	7684	70.265689895434	0.056951145392
1	7689	70.322641040826	0.062510303936
1	7695	70.385151344762	0.197528263351
1	7700	70.582679608113	0.04567227053
1	7705	70.628351878643	0.014804476107
1	7710	70.64315635475	0.052765606105
1	7715	70.695921960855	0.064886128216
1	7720	70.760808089071	0.008580017293
1	7725	70.769388106364	0.102377061987
1	7731	70.871765168351	0.104328265528
1	7738	70.976093433879	0.105987780615
1	7744	71.082081214494	0.017236362599
1	7749	71.099317577093	0.054038718982
1	7754	71.153356296075	0.045616502526
1	7759	71.198972798601	0.115615443309
1	7765	71.31458824191	0.097447977366
1	7771	71.412036219276	0.017930280093
1	7776	71.429966499369	0.006319346314
1	7778	71.436285845683	0.139221092425
1	7786	71.575506938108	0.22081942775
1	7792	71.796326365858	0.005284124272
1	7794	71.80161049013	0.034226959231
1	7802	71.835837449361	0.007432160621
1	7804	71.843269609982	0.004692440849
1	7809	71.847962050831	0.050724383803
1	7817	71.898686434634	0.006730975953
1	7819	71.905417410587	0.024748705473
1	7827	71.93016611606	0.014270512938
1	7832	71.944436628998	0.036431738263
1	7837	71.980868367261	0.222031540906
1	7846	72.202899908167	0.047643837269
1	7851	72.250543745436	0.092509774276
1	7856	72.343053519712	0.035217738695
1	7861	72.378271258407	0.030081140475
1	7867	72.408352398882	0.006904468233
1	7869	72.415256867115	0.070793646424
1	7877	72.486050513539	0.066982411003
1	7884	72.553032924542	0.005985941916
1	7886	72.559018866458	0.114524717994
1	7895	72.673543584452	0.042132455425
1	7900	72.715676039877	0.147495859182
1	7906	72.863171899059	0.111342204335
1	7911	72.974514103394	0.022934822394
1	7916	72.997448925788	0.036718703671
1	7922	73.034167629459	0.027157592513
1	7927	73.061325221972	0.083744264726
1	7932	73.145069486698	0.051838203859
1	7937	73.196907690557	0.009786447413
1	7942	73.20669413797	0.135365865943
1	7947	73.342060003913	0.015298210956
1	7952	73.357358214869	0.00097946296
1	7954	73.358337677829	0.048998766614
1	7962	73.407336444443	0.100207424282
1	7968	73.507543868725	0.105897823892
1	7974	73.613441692617	0.000974326723
1	7976	73.61441601934	0.007860696271
1	7981	73.622276715611	0.036106228387
1	7989	73.658382943998	0.091511321745
1	7996	73.749894265743	0.006141679804
1	7998	73.756035945547	0.002403801288
1	8003	73.758439746835	0.022009336708
1	8012	73.780449083543	0.048662660038
1	8019	73.829111743581	0.194937046542
1	8027	74.024048790123	0.102729338318
1	8033	74.126778128441	0.020706639016
1	8038	74.147484767457	0.080800522403
1	8043	74.22828528986	0.038338643297
1	8048	74.266623933157	0.178203077062
1	8055	74.444827010219	0.038866698561
1	8060	74.48369370878	0.005082976429
1	8062	74.488776685209	0.117227440696
1	8071	74.606004125905	0.004975960367
1	8073	74.610980086272	0.030743075137
1	8081	74.641723161409	0.086425464748
1	8086	74.728148626157	0.034552762589
1	8091	74.762701388746	0.010754263527
1	8096	74.773455652273	0.030376481381
1	8101	74.803832133654	0.006577047363
1	8103	74.810409181017	0.023029390463
1	8111	74.83343857148	0.038599601585
1	8116	74.872038173065	0.058177119904
1	8121	74.930215292969	0.020079566876
1	8127	74.950294859845	0.007684144731
1	8129	74.957979004576	0.024346100474
1	8137	74.98232510505	0.067814131306
1	8143	75.050139236356	0.101797128863
1	8148	75.151936365219	0.051670777322
1	8153	75.203607142541	0.150723834182
1	8163	75.354330976723	0.039950748601
1	8168	75.394281725324	0.071472573677
1	8173	75.465754299001	0.017754684776
1	8178	75.483508983777	0.046699909533
1	8184	75.53020889331	0.255408545306
1	8190	75.785617438616	0.008657935523
1	8195	75.794275374139	0.323618920665
1	8200	76.117894294804	0.009255702976
1	8205	76.12714999778	0.027310569206
1	8210	76.154460566986	0.032534820578
1	8215	76.186995387564	0.062011758162
1	8221	76.249007145726	0.011028148896
1	8226	76.260035294622	0.019118389361
1	8231	76.279153683983	0.034608152327
1	8236	76.31376183631	0.029628975953
1	8241	76.343390812263	0.006099098129
1	8244	76.349489910392	0.111651988942
1	8253	76.461141899334	0.039178123888
1	8258	76.500320023222	0.00783894384
1	8260	76.508158967062	0.01186666295
1	8268	76.520025630012	0.054389823643
1	8274	76.574415453655	0.073782907303
1	8280	76.648198360958	0.062111312987
1	8285	76.710309673945	0.049152804481
1	8291	76.759462478426	0.008638943994
1	8296	76.76810142242	0.047615989277
1	8302	76.815717411697	0.014774442819
1	8307	76.830491854516	0.006613451713
1	8309	76.837105306229	0.030661403115
1	8317	76.867766709344	0.015325456333
1	8322	76.883092165677	0.023820408671
1	8327	76.906912574348	0.16243815046
1	8333	77.069350724808	0.032730664358
1	8338	77.102081389166	0.065988233902
1	8344	77.168069623068	0.141671776321
1	8349	77.309741399389	0.040720864454
1	8354	77.350462263843	0.010773685614
1	8359	77.361235949457	0.027890620836
1	8364	77.389126570293	0.002324321287
1	8366	77.39145089158	0.061932611098
1	8375	77.453383502678	0.07674636022
1	8383	77.530129862898	0.012260241301
1	8389	77.542390104199	0.147050570679
1	8398	77.689440674878	0.139128422741
1	8404	77.828569097619	0.018535167224
1	8409	77.847104264843	0.033533759434
1	8414	77.880638024277	0.082137113157
1	8420	77.962775137434	0.076169668048
1	8425	78.038944805482	0.039195719625
1	8430	78.078140525107	0.053548294377
1	8435	78.131688819484	0.039709867564
1	8441	78.171398687048	0.00891363565
1	8446	78.180312322698	0.051281674948
1	8453	78.231593997646	0.054133646421
1	8458	78.285727644067	0.059492430927
1	8464	78.345220074994	0.000952336731
1	8466	78.346172411725	0.075131665116
1	8474	78.421304076841	0.169102940825
1	8480	78.590407017666	0.055428791228
1	8486	78.645835808894	0.181650893219
1	8493	78.827486702113	0.125203194182
1	8499	78.952689896295	0.081379481491
1	8504	79.034069377786	0.011331600128
1	8509	79.045400977914	6.4272421e-05
1	8511	79.045465250335	0.036021062886
1	8520	79.081486313221	0.011061249341
1	8525	79.092547562562	0.082696822434
1	8531	79.175244384996	0.023016747644
1	8536	79.19826113264	0.025639849338
1	8541	79.223900981978	0.003504913871
1	8543	79.227405895849	0.006728714675
1	8548	79.234134610524	0.025565548429
1	8557	79.259700158953	0.019223721877
1	8563	79.27892388083	0.056630005613
1	8568	79.335553886443	0.016739120689
1	8573	79.352293007132	0.021720191484
1	8578	79.374013198616	0.084203418865
1	8583	79.458216617481	0.047704239282
1	8589	79.505920856763	0.008820415048
1	8594	79.514741271811	0.025595599058
1	8599	79.540336870869	0.016863583144
1	8605	79.557200454013	0.071228708196
1	8611	79.628429162209	0.001281586013
1	8613	79.629710748222	0.006947139548
1	8618	79.63665788777	0.188153332643
1	8626	79.824811220413	0.05370950743
1	8632	79.878520727843	0.006938458999
1	8634	79.885459186842	0.016135753625
1	8642	79.901594940467	0.030680085663
1	8648	79.93227502613	0.030421781861
1	8653	79.962696807991	0.205552972627
1	8659	80.168249780618	0.008688038363
1	8664	80.176937818981	0.072542372239
1	8669	80.24948019122	0.078341433535
1	8675	80.327821624755	0.238026008049
1	8684	80.565847632804	0.023395841685
1	8689	80.589243474489	0.055217552577
1	8694	80.644461027066	0.049700970078
1	8699	80.694161997144	0.010711683066
1	8704	80.70487368021	0.027979762895
1	8709	80.732853443105	0.024029177769
1	8714	80.756882620874	0.030252809284
1	8719	80.787135430158	0.04245858321
1	8726	80.829594013368	0.014999509353
1	8731	80.844593522721	0.055365904918
1	8738	80.899959427639	0.072876837514
1	8743	80.972836265153	0.004176450729
1	8745	80.977012715882	0.112901745952
1	8754	81.089914461834	0.034481085722
1	8759	81.124395547556	0.041130369917
1	8764	81.165525917473	0.012026037874
1	8769	81.177551955347	0.022465597315
1	8775	81.200017552662	0.011818851867
1	8780	81.211836404529	0.07872890822
1	8786	81.290565312749	0.138923182411
1	8791	81.42948849516	0.015186723281
1	8796	81.444675218441	0.017030225117
1	8801	81.461705443558	0.001613349642
1	8803	81.4633187932	0.05152214158
1	8811	81.51484093478	0.057968873834
1	8816	81.572809808614	0.039034899717
1	8821	81.611844708331	0.026077801008
1	8826	81.637922509339	0.004093083499
1	8828	81.642015592838	0.00587327312
1	8833	81.647888865958	0.04565999801
1	8841	81.693548863968	0.007356402432
1	8843	81.7009052664	0.018457489585
1	8851	81.719362755985	0.14003518854
1	8857	81.859397944525	0.0250409519
1	8863	81.884438896425	0.121287756973
1	8868	82.005726653398	0.019534333753
1	8873	82.025260987151	0.000943708086
1	8875	82.026204695237	0.043514762087
1	8883	82.069719457324	0.005163451254
1	8885	82.074882908578	0.016978775349
1	8893	82.091861683927	0.046687173969
1	8898	82.138548857896	0.020626921173
1	8903	82.159175779069	0.007411788646
1	8905	82.166587567715	0.025308954615
1	8914	82.19189652233	0.057102090444
1	8919	82.248998612774	0.179602835589
1	8927	82.428601448363	0.052207757889
1	8933	82.480809206252	0.11843229737
1	8938	82.599241503622	0.022736807057
1	8943	82.621978310679	0.038467983366
1	8949	82.660446294045	0.002984547583
1	8951	82.663430841628	0.022317325019
1	8959	82.685748166647	0.01287256622
1	8964	82.698620732867	0.088738078423
1	8971	82.78735881129	0.027357813393
1	8976	82.814716624683	0.021952581141
1	8981	82.836669205824	0.200167429826
1	8989	83.03683663565	0.002692276904
1	8991	83.039528912554	0.059481566364
1	9000	83.099010478918	0.016672200602
1	9005	83.11568267952	0.021066906603
1	9010	83.136749586123	0.013871452332
1	9015	83.150621038455	0.137681269874
1	9022	83.288302308329	0.129314492562
1	9029	83.417616800891	0.172956679938
1	9035	83.590573480829	0.026486240556
1	9041	83.617059721385	0.000682978148
1	9043	83.617742699533	0.093255082504
1	9052	83.710997782037	0.033263704431
1	9057	83.744261486468	0.340818195229
1	9064	84.085079681697	0.077583414176
1	9069	84.162663095873	0.069689087967
1	9075	84.23235218384	0.065339899376
1	9080	84.297692083216	0.010346131556
1	9086	84.308038214772	0.033047277282
1	9091	84.341085492054	0.001587256931
1	9093	84.342672748985	0.040335979983
1	9101	84.383008728968	0.004358044855
1	9103	84.387366773823	0.002261342781
1	9105	84.389628116604	0.028433419909
1	9117	84.418061536513	0.018063664584
1	9122	84.436125201097	0.042705946171
1	9127	84.478831147268	0.000168688524
1	9129	84.478999835792	0.008165743267
1	9134	84.487165579059	0.034155973324
1	9142	84.521321552383	0.04003686997
1	9147	84.561358422353	0.010475921047
1	9152	84.5718343434	0.02988848494
1	9157	84.60172282834	0.057668676583
1	9162	84.659391504923	0.042879097744
1	9167	84.702270602667	0.008894033953
1	9172	84.71116463662	0.075115444235
1	9178	84.786280080855	0.251182935593
1	9184	85.037463016448	0.043876305465
1	9190	85.081339321913	0.027511806652
1	9195	85.108851128565	0.066784174796
1	9200	85.175635303361	0.021682361825
1	9205	85.197317665186	0.336943242993
1	9212	85.534260908179	0.046819356636
1	9217	85.581080264815	0.010897553734
1	9222	85.591977818549	0.00920806513
1	9227	85.601185883679	0.047141496331
1	9232	85.64832738001	0.032340852604
1	9238	85.680668232614	0.024837740914
1	9243	85.705505973528	0.032710796873
1	9249	85.738216770401	0.097089896615
1	9255	85.835306667016	0.01978311747
1	9260	85.855089784486	0.072420877336
1	9266	85.927510661822	0.041412650715
1	9271	85.968923312537	0.053016327448
1	9276	86.021939639985	0.015443754702
1	9281	86.037383394687	0.01227071804
1	9286	86.049654112727	0.087972612279
1	9291	86.137626725006	0.028117829254
1	9296	86.16574455426	0.017908405958
1	9301	86.183652960218	0.112853986551
1	9306	86.296506946769	0.019798039991
1	9311	86.31630498676	0.078478116373
1	9316	86.394783103133	0.029546569119
1	9321	86.424329672252	0.004658594135
1	9323	86.428988266387	0.001664977157
1	9325	86.430653243544	0.126921097428
1	9337	86.557574340972	0.081493062438
1	9342	86.63906740341	0.106226288969
1	9348	86.745293692379	0.012275479646
1	9353	86.757569172025	0.027782243653
1	9358	86.785351415678	0.081626141288
1	9363	86.866977556966	0.089662662289
1	9368	86.956640219255	0.201977094278
1	9375	87.158617313533	0.030575006388
1	9381	87.189192319921	0.004892108865
1	9383	87.194084428786	0.071481130518
1	9392	87.265565559304	0.149799459384
1	9401	87.415365018688	0.019820811036
1	9406	87.435185829724	0.03405415375
1	9412	87.469239983474	0.028156051359
1	9418	87.497396034833	0.032564156058
1	9423	87.529960190891	0.00400256696
1	9425	87.533962757851	0.153472253281
1	9433	87.687435011132	0.01127702486
1	9438	87.698712035992	0.054681814926
1	9443	87.753393850918	0.302006573336
1	9453	88.055400424254	0.006977546392
1	9455	88.062377970646	0.022911643514
1	9463	88.08528961416	0.052607536315
1	9468	88.137897150475	0.044460994335
1	9473	88.18235814481	0.269560447504
1	9481	88.451918592314	0.00792881811
1	9483	88.459847410424	0.038803073981
1	9491	88.498650484405	0.035421637062
1	9496	88.534072121467	0.015632902831
1	9502	88.549705024298	0.009414940213
1	9507	88.559119964511	0.042489875903
1	9512	88.601609840414	0.013278397498
1	9517	88.614888237912	0.017382873731
1	9522	88.632271111643	0.034322528612
1	9528	88.666593640255	0.018901701866
1	9533	88.685495342121	0.072113822999
1	9539	88.75760916512	0.00630469433
1	9541	88.76391385945	0.060878968144
1	9550	88.824792827594	0.138410660498
1	9556	88.963203488092	0.110866475029
1	9561	89.074069963121	0.010636432056
1	9566	89.084706395177	0.139493459359
1	9573	89.224199854536	0.008316008947
1	9578	89.232515863483	0.033276555925
1	9583	89.265792419408	0.03826482077
1	9588	89.304057240178	0.01394379262
1	9593	89.318001032798	0.001306700095
1	9595	89.319307732893	0.105351821164
1	9603	89.424659554057	0.013524314211
1	9608	89.438183868268	0.10193248061
1	9614	89.540116348878	0.012718768657
1	9619	89.552835117535	0.054443137334
1	9625	89.607278254869	0.017007968998
1	9630	89.624286223867	0.025162495514
1	9635	89.649448719381	0.106684336071
1	9641	89.756133055452	0.034033384127
1	9646	89.790166439579	0.006769169957
1	9648	89.796935609536	0.055994758237
1	9656	89.852930367773	0.012667714484
1	9661	89.865598082257	0.036739185291
1	9666	89.902337267548	0.136746803716
1	9671	90.039084071264	0.021800076316
1	9676	90.06088414758	0.010524720375
1	9682	90.071408867955	0.005665140191
1	9684	90.077074008146	0.012738666917
1	9692	90.089812675063	0.001327874454
1	9694	90.091140549517	0.021677129721
1	9702	90.112817679238	0.00023546709
1	9704	90.113053146328	0.019142774259
1	9712	90.132195920587	0.070202711453
1	9720	90.20239863204	0.00559635908
1	9722	90.20799499112	0.024729061736
1	9731	90.232724052856	0.043556784252
1	9737	90.276280837108	0.114340070904
1	9743	90.390620908012	0.057305908915
1	9748	90.447926816927	0.044782310475
1	9753	90.492709127402	0.062540204561
1	9758	90.555249331963	0.032472373599
1	9763	90.587721705562	0.067363565601
1	9769	90.655085271163	0.045154483988
1	9774	90.700239755151	0.107098273681
1	9779	90.807338028832	0.002104480537
1	9781	90.809442509369	0.013998771411
1	9786	90.82344128078	0.04878549585
1	9794	90.87222677663	0.031256117965
1	9800	90.903482894595	0.002096066053
1	9802	90.905578960648	0.039078819042
1	9810	90.94465777969	0.012073332504
1	9815	90.956731112194	0.016494046082
1	9820	90.973225158276	0.028798521877
1	9825	91.002023680153	0.071163524065
1	9830	91.073187204218	0.129456654143
1	9836	91.202643858361	0.010557749144
1	9842	91.213201607505	0.022067995584
1	9847	91.235269603089	0.01796185294
1	9852	91.253231456029	0.023004325866
1	9858	91.276235781895	0.10828556944
1	9863	91.384521351335	0.163993595381
1	9870	91.548514946716	0.00466399216
1	9872	91.553178938876	0.03905517753
1	9880	91.592234116406	0.002251664449
1	9882	91.594485780855	0.080568759344
1	9890	91.675054540199	0.00175803089
1	9892	91.676812571089	0.016929354973
1	9900	91.693741926062	0.101430351822
1	9907	91.795172277884	0.023158255723
1	9913	91.818330533607	0.013030912441
1	9918	91.831361446048	0.100641333685
1	9925	91.932002779733	0.003746853806
1	9927	91.935749633539	0.132778762339
1	9937	92.068528395878	0.028546494066
1	9942	92.097074889944	0.201816446493
1	9952	92.298891336437	0.057488024189
1	9957	92.356379360626	0.037652899087
1	9962	92.394032259713	0.110394231272
1	9968	92.504426490985	0.089953130791
1	9976	92.594379621776	0.089341618138
1	9981	92.683721239914	0.100589454769
1	9986	92.784310694683	0.007605249532
1	9991	92.791915944215	0.016147643696
1	9996	92.808063587911	0.001751094832
1	9998	92.809814682743	0.021007221762
1	10006	92.830821904505	0.032968930674
1	10011	92.863790835179	0.139550296314
1	10017	93.003341131493	0.183382294415
1	10025	93.186723425908	0.016998818582
1	10030	93.20372224449	0.00128201881
1	10032	93.2050042633	0.026341870465
1	10040	93.231346133765	0.011507299741
1	10045	93.242853433506	0.021003398971
1	10050	93.263856832477	0.038442554156
1	10055	93.302299386633	0.031152160291
1	10060	93.333451546924	0.031779181512
1	10067	93.365230728436	0.01710352378
1	10072	93.382334252216	0.019272038906
1	10077	93.401606291122	0.060150124773
1	10082	93.461756415895	0.02418474245
1	10087	93.485941158345	0.125808375877
1	10092	93.611749534222	0.088807635143
1	10097	93.700557169365	0.035497329753
1	10102	93.736054499118	0.007402723705
1	10107	93.743457222823	0.054759531082
1	10112	93.798216753905	0.185223474549
1	10117	93.983440228454	0.031126600359
1	10122	94.014566828813	0.004893428323
1	10124	94.019460257136	0.017092247208
1	10133	94.036552504344	0.013223187633
1	10138	94.049775691977	0.06461672113
1	10144	94.114392413107	0.016347251588
1	10149	94.130739664695	0.005883429845
1	10151	94.13662309454	0.036260456315
1	10159	94.172883550855	0.009638579477
1	10164	94.182522130332	0.021013680761
1	10170	94.203535811093	0.036851118345
1	10175	94.240386929438	0.080404344903
1	10180	94.320791274341	0.007683160576
1	10186	94.328474434917	0.121003884636
1	10192	94.449478319553	0.007648875457
1	10197	94.45712719501	0.127618108753
1	10202	94.584745303763	0.136323402961
1	10207	94.721068706724	0.057087666643
1	10213	94.778156373367	0.000674940802
1	10215	94.778831314169	0.073234891093
1	10224	94.852066205262	0.001947601506
1	10226	94.854013806768	0.113723400037
1	10234	94.967737206805	0.07529484407
1	10239	95.043032050875	0.004026731058
1	10241	95.047058781933	0.023212712809
1	10249	95.070271494742	0.004724718187
1	10251	95.074996212929	0.033435511962
1	10260	95.108431724891	0.072871525903
1	10265	95.181303250794	0.013606141615
1	10270	95.194909392409	0.019285771297
1	10275	95.214195163706	0.002819069642
1	10277	95.217014233348	0.043875949033
1	10285	95.260890182381	0.044603470467
1	10290	95.305493652848	0.039690619346
1	10295	95.345184272194	0.137804926146
1	10300	95.48298919834	0.068833327854
1	10305	95.551822526194	0.066194085029
1	10310	95.618016611223	0.216376276287
1	10315	95.83439288751	0.011239257192
1	10320	95.845632144702	0.039853284859
1	10325	95.885485429561	0.104545614542
1	10332	95.990031044103	0.043751097763
1	10337	96.033782141866	0.058028893009
1	10343	96.091811034875	0.010059514685
1	10348	96.10187054956	0.079727358852
1	10354	96.181597908412	0.046714333148
1	10360	96.22831224156	0.137901961156
1	10367	96.366214202716	0.043489236543
1	10373	96.409703439259	0.016670590463
1	10378	96.426374029722	0.019324039933
1	10383	96.445698069655	0.00728363593
1	10385	96.452981705585	0.001136103965
1	10390	96.45411780955	0.010837903293
1	10395	96.464955712843	0.029283070759
1	10403	96.494238783602	0.097212558807
1	10408	96.591451342409	0.038127496051
1	10414	96.62957883846	0.187939615451
1	10421	96.817518453911	0.000693674341
1	10423	96.818212128252	0.086893011861
1	10432	96.905105140113	0.03464897096
1	10438	96.939754111073	0.0108490299
1	10443	96.950603140973	0.0358996036
1	10448	96.986502744573	0.016426660213
1	10453	97.002929404786	0.011780105377
1	10458	97.014709510163	0.027259273467
1	10464	97.04196878363	0.120081780584
1	10469	97.162050564214	0.027920918069
1	10474	97.189971482283	0.000935675967
1	10476	97.19090715825	0.035163056824
1	10486	97.226070215074	0.069459922162
1	10491	97.295530137236	0.088120231364
1	10497	97.3836503686	0.062188369754
1	10502	97.445838738354	0.099229378355
1	10507	97.545068116709	0.051658381706
1	10512	97.596726498415	0.02028027998
1	10517	97.617006778395	0.074124426032
1	10522	97.691131204427	0.004983729257
1	10524	97.696114933684	0.020676990183
1	10532	97.716791923867	0.279354537977
1	10539	97.996146461844	0.0047019886
1	10541	98.000848450444	0.039336743909
1	10549	98.040185194353	0.002801418403
1	10551	98.042986612756	0.14279395076
1	10560	98.185780563516	0.000186204704
1	10562	98.18596676822	0.022701159644
1	10570	98.208667927864	0.04872738576
1	10575	98.257395313624	0.007830405153
1	10577	98.265225718777	0.101163727737
1	10585	98.366389446514	0.003198774961
1	10587	98.369588221475	0.032592540574
1	10595	98.402180762049	0.011857137421
1	10600	98.41403789947	0.009948322163
1	10605	98.423986221633	0.027230433657
1	10610	98.45121665529	0.018786904981
1	10616	98.470003560271	0.007796777581
1	10618	98.477800337852	0.004343320752
1	10623	98.482143658604	0.001172477149
1	10625	98.483316135753	0.045366375325
1	10637	98.528682511078	0.019012309067
1	10642	98.547694820145	0.010736319097
1	10648	98.558431139242	0.123905703914
1	10654	98.682336843156	0.020335243372
1	10660	98.702672086528	0.010498646109
1	10665	98.713170732637	0.039747297622
1	10670	98.752918030259	0.242739031236
1	10675	98.995657061495	0.0022026233
1	10677	98.997859684795	0.005046524351
1	10679	99.002906209146	0.029001813104
1	10690	99.03190802225	0.175517903716
1	10696	99.207425925966	0.013760625708
1	10701	99.221186551674	0.11022313062
1	10707	99.331409682294	0.005664800234
1	10709	99.337074482528	0.024753157318
1	10717	99.361827639846	0.035306911669
1	10722	99.397134551515	0.040422207517
1	10727	99.437556759032	0.054014114811
1	10733	99.491570873843	0.009846202623
1	10738	99.501417076466	0.040369091469
1	10743	99.541786167935	0.016716090073
1	10748	99.558502258008	0.001869207102
1	10750	99.56037146511	0.05576704507
1	10758	99.61613851018	0.018342023942
1	10763	99.634480534122	0.11163441637
1	10768	99.746114950492	0.092912565187
1	10773	99.839027515679	0.021407046889
[...]
19	24394	224.951857073872	6.9291811255974
19	25053	231.881038199469	3.069374185955
19	25323	234.950412385424	6.52780705486
19	25992	241.478219440284	3.1362406059203
19	26269	244.614460046204	2.3537708135576
19	26552	246.968230859762	0.40927215382573
19	26591	247.377503013588	2.087185285586
19	26792	249.464688299174	5.1768554297566
19	27339	254.641543728931	0.13044605621053
19	27353	254.771989785142	0.67563676071166
19	27430	255.447626545854	2.6352826736294
19	27698	258.082909219483	0.32053701032431
19	27763	258.403446229807	0.10761720987472
19	27781	258.511063439682	0.87276908861807
19	27864	259.3838325283	0.94737609101817
19	27980	260.331208619318	0.81127442191224
19	28049	261.14248304123	1.3406030777546
19	28202	262.483086118985	0.78773627554638
19	28326	263.270822394531	1.3316777252025
19	28452	264.602500119734	0.8822148501579
19	28534	265.484714969892	0.19284170911991
19	28564	265.677556679012	3.4030162461306
19	28941	269.080572925143	2.841793674381
19	29252	271.922366599524	0.69287322503628
19	29335	272.61523982456	2.8057066620182
19	29630	275.420946486578	0.93779634548223
19	29718	276.35874283206	4.3018226895956
19	30214	280.660565521656	0.43784131801645
19	30266	281.098406839672	2.5882141943144
19	30511	283.686621033986	0.47581528239595
19	30559	284.162436316382	3.8421152620669
19	30923	288.004551578449	8.4127530893377
19	31872	296.417304667787	2.5986838268796
19	32141	299.015988494667	2.5604769431262
19	32476	301.576465437793	0.17151670041033
19	32482	301.747982138203	1.8427484829594
19	32678	303.590730621162	1.1270944548423
19	32794	304.717825076004	2.1218842050974
19	33071	306.839709281101	2.1943700171985
19	33366	309.034079298299	3.3462982835714
19	33730	312.38037758187	1.8454868878927
19	34002	314.225864469763	0.1652506096548
19	34006	314.391115079418	0.028442303691206
19	34018	314.419557383109	4.8531112986707
19	34602	319.27266868178	1.5695931155493
19	34811	320.842261797329	1.3562174807418
19	34968	322.198479278071	1.8077839710703
19	35118	324.006263249141	3.6551831797493
19	35525	327.66144642889	0.39236125626168
19	35556	328.053807685152	0.70210787856466
19	35613	328.755915563717	2.3928350944165
19	35840	331.148750658133	0.95486516293768
19	35968	332.103615821071	7.9393567609633
19	36783	340.042972582034	0.096944059591244
19	36789	340.139916641625	0.38416901450905
19	36813	340.524085656134	1.8940490441918
19	36993	342.418134700326	1.5461479685784
19	37187	343.964282668904	1.2668226383377
19	37320	345.231105307242	0.38599919125618
19	37370	345.617104498498	0.6182024098846
19	37422	346.235306908383	1.0177372732036
19	37503	347.253044181587	0.31223086488943
19	37544	347.565275046476	0.88790728298591
19	37611	348.453182329462	0.35759003959104
19	37665	348.810772369053	0.36833746853716
19	37676	349.17910983759	1.5761328260967
19	37829	350.755242663687	0.55351038267977
19	37881	351.308753046367	7.0639502524178
19	38695	358.372703298785	3.8456246591263
19	39130	362.218327957911	0.66297831206957
19	39229	362.881306269981	4.9933413168478
19	39883	367.874647586829	0.20284562833364
19	39899	368.077493215163	2.2285874435874
19	40155	370.30608065875	4.1302487577516
19	40607	374.436329416502	3.2171838275455
19	40933	377.653513244048	0.91598316720243
19	41043	378.56949641125	0.8967387986699
19	41165	379.46623520992	4.6383917797673
19	41656	384.104626989687	0.032151534150912
19	41657	384.136778523838	2.4185602062969
19	41947	386.555338730135	2.7566071008357
19	42261	389.311945830971	3.2904801060696
19	42656	392.602425937041	4.7194742099958
19	43177	397.321900147037	1.4746465546538
19	43304	398.796546701691	0.35303170660826
19	43326	399.149578408299	1.9142788355821
20	1439	13.535115899918	3.9438340506171
20	1921	17.478949950535	2.6643241783633
20	2211	20.143274128898	0.94507114251081
20	2325	21.088345271409	1.7954699524693
20	2499	22.883815223878	2.5495922864672
20	2768	25.433407510345	0.24452558091111
20	2808	25.677933091256	0.34662193414257
20	2865	26.024555025399	2.9044230240705
20	3198	28.928978049469	0.45280917303071
20	3243	29.3817872225	0.024013925913255
20	3244	29.405801148413	0.067462229063403
20	3257	29.473263377476	1.648520150505
20	3421	31.121783527981	0.083395713288259
20	3437	31.205179241269	4.110206264164
20	3914	35.315385505433	1.6514381272081
20	4133	36.966823632641	1.9198053647075
20	4344	38.886628997349	0.30495411080614
20	4390	39.191583108155	0.01665566555604
20	4391	39.208238773711	1.2124536996257
20	4482	40.420692473337	0.073956594013979
20	4504	40.494649067351	1.9677493822267
20	4739	42.462398449578	1.3261839758106
20	4851	43.788582425389	6.863573916221
20	5534	50.65215634161	0.42035769282419
20	5602	51.072514034434	0.77884167392725
20	5643	51.851355708361	0.67842689121351
20	5767	52.529782599575	1.1125645399417
20	5868	53.642347139517	1.2980480222235
20	6026	54.94039516174	1.1154391729924
20	6196	56.055834334732	0.43495138470848
20	6230	56.49078571944	2.5793087393829
20	6496	59.070094458823	0.59791307906867
20	6549	59.668007537892	0.32502837081323
20	6602	59.993035908705	5.2931683015867
20	7174	65.286204210292	1.4826580769858
20	7320	66.768862287278	4.1124376719165
20	7736	70.881299959194	1.697414524133
20	7894	72.578714483327	1.1027399854845
20	7994	73.681454468811	0.2348345831125
20	8025	73.916289051923	1.3069153198879
20	8158	75.223204371811	0.12970643322979
20	8162	75.352910805041	2.1555862666214
20	8381	77.508497071662	6.1515617853196
20	9051	83.660058856982	5.5548838912048
20	9572	89.214942748187	3.047968155746
20	9951	92.262910903933	0.79043441104772
20	10023	93.053345314981	0.29602743602664
20	10065	93.349372751008	3.0020655422247
20	10366	96.351438293233	3.1161643196018
20	10732	99.467602612835	0.74220172638446
20	10821	100.209804339219	3.1662900067572
20	11075	103.376094345976	0.5538906244844
20	11115	103.92998497046	4.0602458558373
20	11536	107.990230826297	0.93583008074091
20	11622	108.926060907038	7.2836683262505
20	12472	116.209729233289	0.50075022077027
20	12541	116.710479454059	0.11394373406367
20	12555	116.824423188123	1.6719398434801
20	12742	118.496363031603	3.0786116366632
20	13074	121.574974668266	1.0461316341498
20	13195	122.621106302416	2.1471406789816
20	13418	124.768246981398	1.5281821081418
20	13658	126.29642908954	1.4707436627112
20	13804	127.767172752251	1.9130977459211
20	14026	129.680270498172	2.6060167794486
20	14332	132.286287277621	1.6680826172455
20	14551	133.954369894866	0.047103199722546
20	14563	134.001473094589	0.91487362332511
20	14670	134.916346717914	6.4676541761688
20	15347	141.384000894083	0.34288068192082
20	15380	141.726881576004	0.21951434240564
20	15397	141.94639591841	1.415365846098
20	15575	143.361761764508	0.15059381979654
20	15589	143.512355584305	0.11816635218952
20	15610	143.630521936495	0.39967155596656
20	15633	144.030193492462	1.8928953651295
20	15854	145.923088857592	0.13019958157073
20	15890	146.053288439163	1.7030959868748
20	16033	147.756384426038	1.7216162114535
20	16219	149.478000637492	4.9133828745233
20	16737	154.391383512015	0.85701079177726
20	16801	155.248394303792	3.5177354961066
20	17242	158.766129799899	2.0798386109759
20	17479	160.845968410875	1.8333355014861
20	17700	162.679303912361	0.80820187400037
20	17792	163.487505786361	2.8021071471192
20	18053	166.28961293348	0.11584623040455
20	18065	166.405459163885	2.253747382293
20	18331	168.659206546178	7.5632021118359
20	19178	176.222408658014	3.6670468712424
20	19587	179.889455529256	3.8886994118586
20	19957	183.778154941115	1.0894389653972
20	20080	184.867593906512	1.1463553652437
20	20187	186.013949271756	2.5067431335694
20	20481	188.520692405325	0.65333603163413
20	20580	189.174028436959	1.8432194302616
20	20755	191.017247867221	0.62163345774644
20	20830	191.638881324967	4.5051588855344
20	21304	196.144040210501	2.6564493627373
20	21591	198.800489573238	4.3079989306843
20	22106	203.108488503922	0.041302436679661
20	22107	203.149790940602	0.02409150159201
20	22113	203.173882442194	0.46765372142033
20	22161	203.641536163614	5.0927762494948
20	22782	208.734312413109	5.0598477489286
20	23278	213.794160162038	1.4631054795337
20	23436	215.257265641572	0.44668415192931
20	23500	215.703949793501	1.0042505821333
20	23603	216.708200375634	0.036977647433081
20	23604	216.745178023067	3.0214842855823
20	23915	219.766662308649	0.035218985090005
20	23916	219.801881293739	0.09972420265304
20	23917	219.901605496392	0.19690171543056
20	23953	220.098507211823	0.8190662437083
20	24035	220.917573455531	2.3357759941287
20	24268	223.25334944966	8.1884170738216
20	24994	231.441766523482	3.6371431669512
20	25339	235.078909690433	0.012729745697458
20	25342	235.09163943613	3.9779343842543
20	25740	239.069573820384	2.5697134944576
20	26005	241.639287314842	1.7105991207214
20	26153	243.349886435563	0.3656781062428
20	26185	243.715564541806	2.018981623793
20	26422	245.734546165599	0.2242130601858
20	26429	245.958759225785	2.0063981628937
20	26659	247.965157388679	0.19896683219157
20	26670	248.164124220871	0.70765255623174
20	26723	248.871776777103	0.25063306321806
20	26754	249.122409840321	1.3013247740217
20	26899	250.423734614343	2.7144347618801
20	27147	253.138169376223	1.0960823543558
20	27291	254.234251730579	0.8304347767662
20	27371	255.064686507345	2.5923320345066
20	27639	257.657018541852	0.32297952470772
20	27686	257.97999806656	3.3045933852985
20	28067	261.284591451859	4.6882573793573
20	28617	265.972848831216	0.38778390706731
20	28636	266.360632738283	0.72000529330014
20	28709	267.080638031583	3.7116790185364
20	29091	270.792317050119	1.0244225059779
20	29224	271.816739556097	3.6285507514521
20	29634	275.445290307549	0.034250335627528
20	29642	275.479540643177	1.1192495701517
20	29744	276.598790213329	1.5856158630013
20	29933	278.18440607633	1.0574653643751
20	30076	279.241871440705	2.0376283296401
20	30283	281.279499770345	0.76352312154048
20	30343	282.043022891885	3.8347374560368
20	30694	285.877760347922	0.24457719491313
20	30712	286.122337542835	2.2076599312423
20	30949	288.329997474077	8.0873566845725
20	31873	296.417354158649	0.18936266602586
20	31892	296.606716824675	4.8114026866037
20	32453	301.418119511279	4.3592631584342
20	32922	305.777382669713	0.31678355332048
20	32945	306.094166223033	0.44597133981994
20	33027	306.540137562853	0.48569869739251
20	33094	307.025836260246	1.3102940385904
20	33250	308.336130298836	0.51403153386343
20	33331	308.850161832699	2.4893858865057
20	33617	311.339547719205	0.20643149891686
20	33636	311.545979218122	1.3358273563829
20	33799	312.881806574505	0.26514787646362
20	33845	313.146954450969	1.539487922015
20	34052	314.686442372984	0.55531392312968
20	34132	315.241756296114	1.5979435467461
20	34341	316.83969984286	2.1661272692342
20	34576	319.005827112094	3.5704309054338
20	35003	322.576258017528	1.7169402458758
20	35156	324.293198263404	2.1407822714978
20	35398	326.433980534902	7.6524648992096
20	36150	334.086445434112	2.9622190436298
20	36440	337.048664477742	3.6602973653172
20	36815	340.708961843059	0.55833926739693
20	36859	341.267301110456	1.9266660115202
20	37117	343.193967121976	2.3634359732955
20	37354	345.557403095272	5.7456714641237
20	37880	351.303074559396	4.0348783857892
20	38381	355.337952945185	6.1060642207991
20	39033	361.444017165984	2.454703156533
20	39373	363.898720322517	0.44511711865366
20	39431	364.343837441171	8.6308856304203
20	40462	372.974723071591	0.087113346075097
20	40463	373.061836417666	0.86822821003603
20	40570	373.930064627702	1.1120278743324
20	40647	375.042092502034	0.18587384735124
20	40666	375.227966349385	16.740132087503
20	42592	391.968098436888	0.19173901474324
20	42614	392.159837451631	0.58758968441545
20	42665	392.747427136046	1.5312002999103
20	42827	394.278627435956	1.7765027824885
20	43023	396.055130218445	1.1241608180013
20	43170	397.179291036446	2.3793895101992
20	43370	399.558680546645	5.6778755979336
21	1570	14.597060303153	1.3141122528694
21	1767	15.911172556022	1.084285038207
21	1870	16.995457594229	0.52216094771828
21	1928	17.517618541947	1.4192184987012
21	2093	18.936837040648	3.4350797195634
21	2451	22.371916760211	5.6683861976724
21	3118	28.040302957883	1.2850977769009
21	3236	29.325400734784	2.3515485054661
21	3494	31.67694924025	2.3703947309632
21	3799	34.047343971213	3.9843883557139
21	4254	38.031732326927	2.1531179012303
21	4475	40.184850228157	3.4926692710263
21	4833	43.677519499183	1.194168075434
21	4973	44.871687574617	6.5362388301239
21	5615	51.407926404741	9.8985773526564
21	6760	61.306503757397	2.5485713935968
21	7016	63.855075150994	3.8987014040591
21	7409	67.753776555053	0.90858214382085
21	7519	68.662358698874	2.5915367519119
21	7764	71.253895450786	0.12731730755535
21	7770	71.381212758341	2.5717676880645
21	8026	73.952980446406	4.3387262606754
21	8460	78.291706707081	2.6896970470943
21	8750	80.981403754175	1.6458055723673
21	8945	82.627209326542	0.63541703762073
21	9020	83.262626364163	0.10603947381824
21	9027	83.368665837981	0.02944274228822
21	9028	83.398108580269	0.21401563987853
21	9040	83.612124220148	1.4341735032995
21	9189	85.046297723447	4.615802944398
21	9640	89.662100667845	0.47121901432382
21	9714	90.133319682169	3.2213288890944
21	10066	93.354648571263	0.70941626608065
21	10143	94.064064837344	2.1098555160117
21	10353	96.173920353356	0.51424627899571
21	10419	96.688166632352	1.8360023338345
21	10636	98.524168966186	2.3961003095579
21	10902	100.920269275744	3.4044261166518
21	11157	104.324695392396	2.9106131335686
21	11483	107.235308525965	1.1355216383717
21	11563	108.370830164337	1.4798501947382
21	11706	109.850680359075	3.371944234286
21	12096	113.222624593361	0.77150726282195
21	12191	113.994131856183	0.3573284646615
21	12241	114.351460320845	4.4893179774521
21	12774	118.840778298297	3.4527077763083
21	13167	122.293486074605	0.50079668642987
21	13216	122.794282761035	1.1981980755229
21	13325	123.992480836558	2.4532555654609
21	13681	126.445736402019	0.77692825685825
21	13769	127.222664658877	0.74771179769406
21	13827	127.970376456571	2.6347967141752
21	14124	130.605173170746	2.9980681483702
21	14492	133.603241319116	1.0201351748147
21	14627	134.623376493931	3.8552459968084
21	15012	138.478622490739	1.0156701515815
21	15097	139.49429264232	0.89079359592056
21	15236	140.385086238241	0.10001505046856
21	15254	140.48510128871	2.5104545566297
21	15544	142.99555584534	0.00565962516431
21	15545	143.001215470504	6.8389030994047
21	16262	149.840118569909	2.1510602673297
21	16461	151.991178837239	0.65360780279339
21	16549	152.644786640032	2.2823865613017
21	16774	154.927173201334	2.9763851126207
21	17126	157.903558313955	0.042475735895215
21	17137	157.94603404985	0.84111257165586
21	17248	158.787146621506	6.1887425480906
21	17899	164.975889169597	0.61949933381746
21	17956	165.595388503414	1.2014778501774
21	18094	166.796866353591	4.0179703346969
21	18595	170.814836688288	1.3874398284177
21	18750	172.202276516706	0.32956330672914
21	18786	172.531839823435	1.1294885440934
21	18893	173.661328367528	2.7250856587399
21	19190	176.386414026268	0.39073358714289
21	19231	176.777147613411	0.35108190223057
21	19276	177.128229515642	0.7289942328948
21	19331	177.857223748537	1.234787681662
21	19492	179.092011430199	2.2655055257413
21	19761	181.35751695594	0.056794611361468
21	19762	181.414311567301	2.243197720515
21	19955	183.657509287816	2.3029465912991
21	20181	185.960455879115	2.230814395661
21	20435	188.191270274776	3.7257710217141
21	20855	191.91704129649	0.21553854430931
21	20876	192.132579840799	1.1934247484592
21	21043	193.326004589258	2.0953889835479
21	21236	195.421393572806	0.046101261890651
21	21243	195.467494834697	5.9764855807616
21	21945	201.443980415459	1.4973582510844
21	22099	202.941338666543	1.6470095325803
21	22261	204.588348199123	2.2528206178578
21	22541	206.841168816981	2.1976277474657
21	22833	209.038796564447	8.0266094399406
21	23632	217.065406004388	2.1519808252524
21	23848	219.21738682964	2.9268063942393
21	24161	222.144193223879	2.5452895087448
21	24378	224.689482732624	2.190359980141
21	24593	226.879842712765	0.98198951720389
21	24663	227.861832229969	0.53741289650769
21	24716	228.399245126477	2.1036405668666
21	24928	230.502885693344	0.75906848813294
21	24985	231.261954181477	0.8064163271696
21	25069	232.068370508647	1.6549471797451
21	25185	233.723317688392	1.4281236332596
21	25356	235.151441321652	1.7237582897382
21	25546	236.87519961139	1.5172070692425
21	25669	238.392406680633	5.7199548678927
21	26203	244.112361548526	0.80630256214863
21	26296	244.918664110675	0.42206438511496
21	26361	245.34072849579	0.09670644217631
21	26382	245.437434937966	0.093611590336256
21	26384	245.531046528302	1.6362478362217
21	26578	247.167294364524	1.200375431635
21	26694	248.367669796159	1.2444996299872
21	26809	249.612169426146	2.8915626745818
21	27093	252.503732100728	1.2551581210454
21	27233	253.758890221773	0.83656585206635
21	27338	254.595456073839	4.4656208558906
21	27837	259.06107692973	2.623430115974
21	28117	261.684507045704	0.70007640716406
21	28190	262.384583452868	3.4336857681075
21	28594	265.818269220976	5.3253158705109
21	29143	271.143585091487	0.77997614921504
21	29253	271.923561240702	0.04966806194246
21	29254	271.973229302644	1.6111545930092
21	29441	273.584383895653	2.5855791818167
21	29711	276.16996307747	0.76979255030642
21	29780	276.939755627776	0.21102075306688
21	29804	277.150776380843	3.4907132640281
21	30213	280.641489644871	1.6822536185758
21	30357	282.323743263447	0.13610599592847
21	30363	282.459849259375	1.8805877538131
21	30568	284.340437013188	1.7249467995777
21	30711	286.065383812766	0.25055118889548
21	30738	286.315935001661	0.5654584642925
21	30819	286.881393465954	0.68783639485123
21	30889	287.569229860805	0.84557778350315
21	30966	288.414807644308	0.67821759624796
21	31040	289.093025240556	1.8894399887227
21	31289	290.982465229279	0.41337933424975
21	31321	291.395844563529	1.3505037075585
21	31431	292.746348271087	0.60983513856967
21	31495	293.356183409657	0.29690277258396
21	31538	293.653086182241	0.69099399265787
21	31618	294.344080174899	1.2575123369117
21	31757	295.601592511811	1.1765586306796
21	31919	296.778151142491	3.9857190018659
21	32360	300.763870144357	1.3703993785002
21	32525	302.134269522857	1.4473145362883
21	32677	303.581584059145	1.7608983055799
21	32883	305.342482364725	0.27669960568757
21	32901	305.619181970413	1.3830757236977
21	33092	307.002257694111	1.1921894751485
21	33243	308.19444716926	1.8693656271166
21	33479	310.063812796377	4.5299514373551
21	34035	314.593764233732	0.099746677226455
21	34053	314.693510910958	0.57739919648564
21	34143	315.270910107444	1.7357855418943
21	34353	317.006695649338	3.2499582712452
21	34733	320.256653920583	0.73502386096402
21	34829	320.991677781547	0.16042622823593
21	34858	321.152104009783	0.35518602552835
21	34899	321.507290035311	0.88346233175045
21	34991	322.390752367061	5.8296049401803
21	35567	328.220357307241	1.0507444677855
21	35666	329.271101775027	3.2857174248509
21	36029	332.556819199878	1.6043618554013
21	36163	334.161181055279	7.5425566614201
21	36920	341.703737716699	1.3697910377907
21	37090	343.07352875449	0.59894255053768
21	37159	343.672471305028	4.2369088781106
21	37573	347.909380183139	1.7660368173546
21	37708	349.675417000494	1.1604371506199
21	37835	350.835854151114	0.35463668132604
21	37864	351.19049083244	6.071829591298
21	38621	357.262320423738	5.1495510591743
21	39155	362.411871482912	2.8266605702357
21	39530	365.238532053148	1.3383943782953
21	39715	366.576926431443	0.62099948464612
21	39778	367.197925916089	2.4535567120405
21	40078	369.65148262813	0.45139609082092
21	40148	370.102878718951	0.40632500843773
21	40178	370.509203727389	0.29972953210266
21	40204	370.808933259492	4.3687995922827
21	40660	375.177732851775	1.7647442126985
21	40826	376.942477064474	0.11311332017152
21	40833	377.055590384646	0.76042772012104
21	40939	377.816018104767	5.3370662065631
21	41580	383.15308431133	2.8227720901957
21	41866	385.975856401526	0.49653639368441
21	41940	386.47239279521	2.7435940537102
21	42249	389.21598684892	1.1113296396751
21	42387	390.327316488595	3.0852056828033
21	42731	393.412522171398	3.836683153414
21	43175	397.249205324812	3.2082706496343

