version 2
run Nonmonitoring-exponential-557-20210224-17:49:32-27080
attr configname Nonmonitoring-exponential
attr datetime 20210224-17:49:32
attr experiment Nonmonitoring-exponential
attr inifile aerocom.ini
attr iterationvars $0=50
attr iterationvarsf 50-
attr measurement $0=50
attr network Aerocom
attr processid 27080
attr repetition 57
attr replication #57
attr resultdir results
attr runnumber 557
attr seedset 57
param **.t 2s
param **.k 50ms
param **.X 0.05s
param **.m 1s
param **.tDistribution "\"exponential\""
param **.operationMode 1
param **.s "70 byte"
param **.dimPoolMax 10000
param **.dimPoolMin 8000
param **.nDL 16
param **.nA 1
param **.DLMaxCapacity 0
param **.trasmitting false

vector 0 Aerocom.aircraft[0].dataLink[6] tDistribution:vector ETV
attr "" ""
attr source computeTDistribution
vector 1 Aerocom.aircraft[0].packetGenerator arrivalTime:vector ETV
attr "" ""
attr source computeArrivalTime
vector 2 Aerocom.aircraft[0].linkSelector waitingTime:vector ETV
attr "" ""
attr source computeWaitingTime
vector 3 Aerocom.aircraft[0].linkSelector queueLength:vector ETV
attr "" ""
attr source computeQueueLength
vector 4 Aerocom.aircraft[0].dataLink[2] actualCapacity:vector ETV
attr "" ""
attr source computeActualCapacity
vector 5 Aerocom.aircraft[0].linkSelector serviceTime:vector ETV
attr "" ""
attr source computeServiceTime
vector 6 Aerocom.aircraft[0].linkSelector responseTime:vector ETV
attr "" ""
attr source computeResponseTime
vector 7 Aerocom.aircraft[0].dataLink[1] tDistribution:vector ETV
attr "" ""
attr source computeTDistribution
vector 8 Aerocom.aircraft[0].dataLink[11] tDistribution:vector ETV
attr "" ""
attr source computeTDistribution
vector 9 Aerocom.aircraft[0].dataLink[10] tDistribution:vector ETV
attr "" ""
attr source computeTDistribution
vector 10 Aerocom.aircraft[0].dataLink[8] tDistribution:vector ETV
attr "" ""
attr source computeTDistribution
vector 11 Aerocom.aircraft[0].dataLink[2] tDistribution:vector ETV
attr "" ""
attr source computeTDistribution
vector 12 Aerocom.aircraft[0].dataLink[5] tDistribution:vector ETV
attr "" ""
attr source computeTDistribution
vector 13 Aerocom.aircraft[0].dataLink[3] tDistribution:vector ETV
attr "" ""
attr source computeTDistribution
vector 14 Aerocom.aircraft[0].dataLink[0] tDistribution:vector ETV
attr "" ""
attr source computeTDistribution
vector 15 Aerocom.aircraft[0].dataLink[9] tDistribution:vector ETV
attr "" ""
attr source computeTDistribution
vector 16 Aerocom.aircraft[0].dataLink[4] tDistribution:vector ETV
attr "" ""
attr source computeTDistribution
vector 17 Aerocom.aircraft[0].dataLink[7] tDistribution:vector ETV
attr "" ""
attr source computeTDistribution
vector 18 Aerocom.aircraft[0].dataLink[13] tDistribution:vector ETV
attr "" ""
attr source computeTDistribution
vector 19 Aerocom.aircraft[0].dataLink[15] tDistribution:vector ETV
attr "" ""
attr source computeTDistribution
vector 20 Aerocom.aircraft[0].dataLink[14] tDistribution:vector ETV
attr "" ""
attr source computeTDistribution
vector 21 Aerocom.aircraft[0].dataLink[12] tDistribution:vector ETV
attr "" ""
attr source computeTDistribution
0	1087	10.016587665113	4.5399179176463
0	1601	14.556505582759	0.05024376461235
0	1613	14.606749347371	0.3892050179114
0	1688	14.995954365282	0.22069457701967
0	1715	15.216648942302	0.45786534699384
0	1770	15.674514289296	0.18401365368807
0	1793	15.858527942984	3.4862931529378
0	2231	19.344821095922	0.62188564684256
0	2286	19.966706742765	0.32918933130183
0	2298	20.295896074067	0.88520532192411
0	2399	21.181101395991	0.2068460548725
0	2417	21.387947450864	1.9305821114537
0	2645	23.318529562318	0.55434211684376
0	2713	23.872871679162	10.734078092273
0	3792	34.606949771435	1.9879877011548
0	4019	36.59493747259	1.8153819445462
0	4237	38.410319417136	0.93237794197434
0	4312	39.34269735911	3.8398179983638
0	4649	43.182515357474	0.26494636423412
0	4675	43.447461721708	1.1643165332459
0	4799	44.611778254954	0.41579627716308
0	4837	45.027574532117	0.67552344563749
0	4910	45.703097977754	2.3733952698835
0	5195	48.076493247638	0.34572415248379
0	5216	48.422217400122	0.20543952239681
0	5224	48.627656922519	4.9652117040225
0	5755	53.592868626542	4.6116924146484
0	6188	58.20456104119	0.44658263474489
0	6227	58.651143675935	3.5129916913848
0	6621	62.16413536732	2.4635041922348
0	6869	64.627639559555	2.6744458676136
0	7183	67.302085427169	4.5935576106687
0	7729	71.895643037838	4.3802967823077
0	8215	76.275939820146	3.8447388978568
0	8596	80.120678718003	4.0285777016761
0	9005	84.149256419679	0.79427911888908
0	9105	84.943535538568	0.26456970974658
0	9141	85.208105248315	1.0076492998785
0	9227	86.215754548193	0.32765476550498
0	9253	86.543409313698	9.9602198934705
0	10367	96.503629207168	1.797719587132
0	10552	98.3013487943	3.0049508137127
0	10840	101.306299608013	3.8938475776777
0	11190	105.200147185691	1.3008235722246
0	11362	106.500970757916	1.3551115365292
0	11520	107.856082294445	2.0870293793377
0	11703	109.943111673783	2.9527984981287
0	12010	112.895910171912	0.88735989434099
0	12146	113.783270066253	0.22444603644228
0	12174	114.007716102695	4.354039001688
0	12698	118.361755104383	0.79831177895146
0	12776	119.160066883334	0.028160325055255
0	12782	119.188227208389	4.9660259560572
0	13311	124.154253164446	1.5459155156056
0	13476	125.700168680052	0.2741857552527
0	13507	125.974354435305	0.94364148186709
0	13627	126.917995917172	0.55007961579218
0	13721	127.468075532964	4.8154805753894
0	14236	132.283556108353	4.2883717658815
0	14676	136.571927874235	1.5563527898853
0	14884	138.12828066412	0.4271750492096
0	14912	138.55545571333	0.38732679663473
0	14947	138.942782509965	2.2828722620897
0	15152	141.225654772055	3.349669986859
0	15536	144.575324758914	1.4473122962008
0	15748	146.022637055115	0.68357443365414
0	15816	146.706211488769	1.2279501568419
0	15945	147.934161645611	1.4077455663877
0	16088	149.341907211999	3.6749358373005
0	16424	153.016843049299	5.2845551793685
0	17020	158.301398228668	1.6581879196076
0	17231	159.959586148276	1.3828507354436
0	17381	161.34243688372	1.1795993099102
0	17518	162.52203619363	0.18581114343617
0	17525	162.707847337066	1.4064908790536
0	17708	164.11433821612	8.6555198307665
0	18695	172.769858046887	0.28976242220005
0	18726	173.059620469087	0.070597101385834
0	18737	173.130217570473	0.49049042067575
0	18780	173.620707991149	4.4172368815214
0	19201	178.03794487267	4.2270289720808
0	19693	182.264973844751	2.573818189005
0	19952	184.838792033756	13.503233018153
0	21490	198.342025051909	0.470955227232
0	21541	198.812980279141	0.77240876363544
0	21622	199.585389042776	2.2107806313918
0	21856	201.796169674168	0.38314604789133
0	21883	202.179315722059	1.8359000001327
0	22007	204.015215722192	1.3956586394852
0	22154	205.410874361677	0.95272980756755
0	22254	206.363604169245	0.20161308339198
0	22272	206.565217252637	0.26835095942291
0	22302	206.83356821206	0.36821250232948
0	22360	207.201780714389	2.6655951995443
0	22606	209.867375913933	0.92660980191725
0	22703	210.79398571585	1.8380463960784
0	22912	212.632032111928	1.524502279243
0	23049	214.156534391171	7.1824593494385
0	23839	221.33899374061	2.3168462741794
0	24052	223.655840014789	2.2814212571232
0	24261	225.937261271912	0.17093458218917
0	24279	226.108195854101	2.7372273117313
0	24563	228.845423165832	5.8394604684914
0	25213	234.684883634323	2.9551603336517
0	25532	237.640043967975	0.62540042485469
0	25579	238.26544439283	1.1773220429435
0	25692	239.442766435773	0.080375422310114
0	25702	239.523141858083	8.8914795073381
0	26727	248.414621365421	1.3876621490308
0	26885	249.802283514452	0.56744391251449
0	26951	250.369727426966	3.7946976815065
0	27372	254.164425108473	4.4013964920258
0	27814	258.565821600499	1.671076556778
0	27998	260.236898157277	5.5133836034379
0	28683	265.750281760715	1.2052809252478
0	28817	266.955562685963	1.7265131718567
0	28948	268.68207585782	0.37678778397932
0	28962	269.058863641799	0.077657061675691
0	28969	269.136520703475	5.2189398356856
0	29489	274.355460539161	0.57522620836936
0	29604	274.93068674753	0.78279793307829
0	29688	275.713484680608	5.5656673486083
0	30304	281.279152029216	0.96885545534112
0	30384	282.248007484557	2.8218483482194
0	30694	285.069855832776	6.8457399236832
0	31356	291.915595756459	3.3458845407284
0	31756	295.261480297187	4.0862070925401
0	32164	299.347687389727	1.74511086668
0	32367	301.092798256407	3.4907875412014
0	32746	304.583585797608	2.3443273039885
0	33006	306.927913101596	1.152109268823
0	33101	308.080022370419	6.607028467611
0	33786	314.68705083803	1.7384989284725
0	33965	316.425549766503	0.33749258175502
0	33992	316.763042348258	0.036764148745498
0	33998	316.799806497003	3.1131463539932
0	34319	319.912952850996	1.0641318825387
0	34496	320.977084733535	0.93862751670238
0	34589	321.915712250237	0.22404971877115
0	34622	322.139761969008	2.4669118782128
0	34900	324.606673847221	2.3061719634783
0	35184	326.912845810699	5.251613412503
0	35664	332.164459223202	1.9928755051464
0	35868	334.157334728348	2.0306465792794
0	36055	336.187981307627	2.3036457504818
0	36288	338.491627058109	2.7343704750174
0	36596	341.225997533126	4.3120878783139
0	37055	345.53808541144	3.4481622246351
0	37388	348.986247636075	1.0787785067655
0	37496	350.06502614284	1.7225445550419
0	37669	351.787570697882	0.44977997712049
0	37707	352.237350675002	0.45098628664345
0	37737	352.688336961645	2.9944505480862
0	38083	355.682787509731	3.5057057887225
0	38448	359.188493298454	1.3346732024178
0	38605	360.523166500872	0.28329325212111
0	38660	360.806459752993	1.4439048271563
0	38804	362.250364580149	0.46732826107156
0	38869	362.717692841221	2.1943553405478
0	39060	364.912048181769	2.0652910732022
0	39286	366.977339254971	11.370499545126
0	40549	378.347838800097	1.503116434535
0	40694	379.850955234632	3.710618757732
0	41181	383.561573992364	5.1344109927392
0	41739	388.695984985103	3.0882060604078
0	42071	391.784191045511	0.75498078661473
0	42128	392.539171832126	3.0427093632097
0	42500	395.581881195336	1.0662908336416
0	42594	396.648172028978	2.3959144839164
0	42838	399.044086512894	1.5902119098162
1	1088	10.069580423647	0.015719104588
1	1093	10.085299528235	0.126390116931
1	1099	10.211689645166	0.045152156485
1	1104	10.256841801651	0.052608462516
1	1109	10.309450264167	0.074810254275
1	1114	10.384260518442	0.037070471306
1	1119	10.421330989748	0.027884967369
1	1124	10.449215957117	0.006657061577
1	1126	10.455873018694	0.000168474379
1	1128	10.456041493073	0.036316623157
1	1139	10.49235811623	0.032284678392
1	1144	10.524642794622	0.002159608978
1	1146	10.5268024036	0.074421839231
1	1154	10.601224242831	0.005726234561
1	1157	10.606950477392	0.096491411768
1	1165	10.70344188916	0.014545825419
1	1170	10.717987714579	0.018207992549
1	1175	10.736195707128	0.009922827011
1	1180	10.746118534139	0.035986288795
1	1185	10.782104822934	0.086373146607
1	1191	10.868477969541	0.049042461752
1	1197	10.917520431293	0.048074491724
1	1202	10.965594923017	0.082369959742
1	1208	11.047964882759	0.009887151247
1	1213	11.057852034006	0.054352858524
1	1219	11.11220489253	0.013282842297
1	1224	11.125487734827	0.041065589585
1	1229	11.166553324412	0.015031456061
1	1234	11.181584780473	0.095594272845
1	1240	11.277179053318	0.006475208117
1	1242	11.283654261435	0.121599471446
1	1252	11.405253732881	0.096922859069
1	1257	11.50217659195	0.045200835191
1	1262	11.547377427141	0.01192888274
1	1267	11.559306309881	0.038444613807
1	1273	11.597750923688	0.165436531844
1	1279	11.763187455532	0.18609969973
1	1285	11.949287155262	0.111808754106
1	1290	12.061095909368	0.111407413779
1	1295	12.172503323147	0.111134375268
1	1302	12.283637698415	0.048175781312
1	1307	12.331813479727	0.079588479247
1	1312	12.411401958974	0.001516960654
1	1314	12.412918919628	0.007031669225
1	1319	12.419950588853	0.028947157746
1	1327	12.448897746599	0.02728137909
1	1333	12.476179125689	0.001051229336
1	1335	12.477230355025	0.013518910862
1	1340	12.490749265887	0.058972756853
1	1350	12.54972202274	0.010403405977
1	1355	12.560125428717	0.063215642497
1	1360	12.623341071214	0.18077801668
1	1366	12.804119087894	0.014789052801
1	1371	12.818908140695	0.051349717306
1	1376	12.870257858001	0.012048146749
1	1381	12.88230600475	0.03094634894
1	1386	12.91325235369	0.038920271387
1	1391	12.952172625077	0.088770066839
1	1396	13.040942691916	0.025403003214
1	1401	13.06634569513	0.055579590776
1	1407	13.121925285906	0.003934781931
1	1409	13.125860067837	0.09820414663
1	1417	13.224064214467	0.01187683026
1	1422	13.235941044727	0.021124064111
1	1427	13.257065108838	0.023514361797
1	1432	13.280579470635	0.031351034437
1	1437	13.311930505072	0.022142186657
1	1442	13.334072691729	0.008897602078
1	1447	13.342970293807	0.096985842467
1	1455	13.439956136274	0.008322372528
1	1460	13.448278508802	0.00704055002
1	1462	13.455319058822	0.056144002812
1	1470	13.511463061634	0.063447627259
1	1475	13.574910688893	0.026630619656
1	1480	13.601541308549	0.035579102843
1	1485	13.637120411392	0.027392319648
1	1491	13.66451273104	0.02594668213
1	1496	13.69045941317	0.022183893964
1	1501	13.712643307134	0.034565438356
1	1506	13.74720874549	0.060367828389
1	1513	13.807576573879	0.007685716044
1	1518	13.815262289923	0.017265690389
1	1523	13.832527980312	0.106298100182
1	1528	13.938826080494	0.024406900577
1	1533	13.963232981071	0.018273857322
1	1538	13.981506838393	0.058052027736
1	1543	14.039558866129	0.043891569778
1	1548	14.083450435907	0.148221806206
1	1554	14.231672242113	0.020430123523
1	1559	14.252102365636	0.035242100567
1	1564	14.287344466203	0.018552894015
1	1569	14.305897360218	0.014426827543
1	1574	14.320324187761	0.05204061691
1	1580	14.372364804671	0.010602569671
1	1586	14.382967374342	0.03214626501
1	1591	14.415113639352	0.064750007087
1	1596	14.479863646439	0.090229132555
1	1603	14.570092778994	0.000120969957
1	1605	14.570213748951	0.067848516957
1	1615	14.638062265908	0.125340955983
1	1620	14.763403221891	0.027044737965
1	1625	14.790447959856	0.003732440313
1	1627	14.794180400169	0.002484495771
1	1629	14.79666489594	0.070397236269
1	1642	14.867062132209	0.006759138181
1	1644	14.87382127039	0.019186501003
1	1652	14.893007771393	0.011073316673
1	1657	14.904081088066	0.00267730413
1	1659	14.906758392196	0.000721850962
1	1661	14.907480243158	0.021131153723
1	1672	14.928611396881	0.044947783794
1	1678	14.973559180675	0.007569632954
1	1680	14.981128813629	0.082373697867
1	1689	15.063502511496	0.048169070665
1	1695	15.111671582161	0.039979395555
1	1700	15.151650977716	0.001686098005
1	1702	15.153337075721	0.019897504536
1	1710	15.173234580257	0.235819788132
1	1717	15.409054368389	0.007959029297
1	1722	15.417013397686	0.030754891794
1	1728	15.44776828948	0.006605706455
1	1730	15.454373995935	0.111046131859
1	1739	15.565420127794	0.023646926304
1	1744	15.589067054098	0.039453229906
1	1750	15.628520284004	0.010733467691
1	1755	15.639253751695	0.003909005851
1	1757	15.643162757546	0.004629917726
1	1762	15.647792675272	0.073133063228
1	1771	15.7209257385	0.022973788145
1	1776	15.743899526645	0.070257151572
1	1781	15.814156678217	0.031201496906
1	1786	15.845358175123	0.011983763946
1	1791	15.857341939069	0.007532217887
1	1794	15.864874156956	0.11499601184
1	1803	15.979870168796	0.022958113236
1	1809	16.002828282032	0.033986647785
1	1814	16.036814929817	0.059985181024
1	1822	16.096800110841	0.014152618746
1	1827	16.110952729587	0.006161170939
1	1829	16.117113900526	0.012980692784
1	1837	16.13009459331	0.02251153719
1	1842	16.1526061305	0.020566470307
1	1847	16.173172600807	0.166827350809
1	1855	16.339999951616	0.034352332289
1	1860	16.374352283905	0.008079770925
1	1865	16.38243205483	0.200357010131
1	1873	16.582789064961	0.003481321297
1	1875	16.586270386258	0.056341374984
1	1883	16.642611761242	0.046218074138
1	1888	16.68882983538	0.004999011159
1	1890	16.693828846539	0.025656297944
1	1898	16.719485144483	0.001680872655
1	1900	16.721166017138	0.009047950712
1	1905	16.73021396785	0.028468149546
1	1913	16.758682117396	0.009361698648
1	1918	16.768043816044	0.023345962245
1	1924	16.791389778289	0.013444909772
1	1930	16.804834688061	0.057209135854
1	1935	16.862043823915	0.017446030963
1	1940	16.879489854878	0.004604899532
1	1942	16.88409475441	0.017262706391
1	1950	16.901357460801	0.00687055019
1	1952	16.908228010991	0.016298001786
1	1960	16.924526012777	0.043750638503
1	1965	16.96827665128	0.031605230512
1	1971	16.999881881792	0.008534222214
1	1976	17.008416104006	0.134642130614
1	1982	17.14305823462	0.00797107175
1	1987	17.15102930637	0.074392404715
1	1992	17.225421711085	0.136822663036
1	1997	17.362244374121	0.019951245941
1	2003	17.382195620062	0.05506524535
1	2008	17.437260865412	0.020756254717
1	2013	17.458017120129	0.02666588523
1	2018	17.484683005359	0.020315198778
1	2023	17.504998204137	0.057816196767
1	2028	17.562814400904	0.048882169836
1	2034	17.61169657074	0.018122963107
1	2039	17.629819533847	0.001639847806
1	2041	17.631459381653	0.00612643208
1	2043	17.637585813733	0.031945886729
1	2054	17.669531700462	0.005346702897
1	2056	17.674878403359	0.065733540708
1	2064	17.740611944067	0.114271686729
1	2071	17.854883630796	0.003437029029
1	2073	17.858320659825	0.073490366433
1	2081	17.931811026258	0.096271808203
1	2088	18.028082834461	0.000776119799
1	2090	18.02885895426	0.129818727395
1	2099	18.158677681655	0.017664033295
1	2104	18.17634171495	0.016810687962
1	2109	18.193152402912	0.015592854386
1	2115	18.208745257298	0.023475173287
1	2120	18.232220430585	0.338936248281
1	2127	18.571156678866	0.006704384077
1	2129	18.577861062943	0.017668699921
1	2137	18.595529762864	0.039925887448
1	2143	18.635455650312	0.019690583835
1	2148	18.655146234147	0.046108476297
1	2153	18.701254710444	0.105054954091
1	2159	18.806309664535	0.001628049729
1	2161	18.807937714264	0.034248636154
1	2169	18.842186350418	0.002336506545
1	2171	18.844522856963	0.010998812891
1	2176	18.855521669854	0.082651289547
1	2185	18.938172959401	0.120073918353
1	2193	19.058246877754	0.024324810369
1	2198	19.082571688123	0.046237742921
1	2203	19.128809431044	0.005809195454
1	2205	19.134618626498	0.114343191807
1	2214	19.248961818305	0.017502122488
1	2219	19.266463940793	0.014734340526
1	2225	19.281198281319	0.109233397256
1	2233	19.390431678575	0.089018674902
1	2239	19.479450353477	0.068046140188
1	2245	19.547496493665	0.024475524058
1	2250	19.571972017723	0.025949758095
1	2255	19.597921775818	0.0796415348
1	2261	19.677563310618	0.014304940451
1	2266	19.691868251069	0.002153825203
1	2268	19.694022076272	0.074580140374
1	2276	19.768602216646	0.152262397402
1	2281	19.920864614048	0.152612005687
1	2288	20.073476619735	0.147398568012
1	2293	20.220875187747	0.100674571991
1	2299	20.321549759738	0.076906760237
1	2305	20.398456519975	0.011229102576
1	2310	20.409685622551	0.008832117213
1	2315	20.418517739764	0.012708996964
1	2320	20.431226736728	0.038402667654
1	2325	20.469629404382	0.002564169371
1	2327	20.472193573753	0.125759311222
1	2338	20.597952884975	0.021849337562
1	2343	20.619802222537	0.018111690588
1	2349	20.637913913125	0.013101449462
1	2354	20.651015362587	0.065677893552
1	2359	20.716693256139	0.051197314755
1	2365	20.767890570894	0.049511735214
1	2370	20.817402306108	0.007847364268
1	2375	20.825249670376	0.125912665814
1	2380	20.95116233619	0.025260083984
1	2385	20.976422420174	0.19558429089
1	2391	21.172006711064	0.000964140154
1	2393	21.172970851218	0.145397970401
1	2405	21.318368821619	0.03770064473
1	2410	21.356069466349	0.03095873991
1	2415	21.387028206259	0.041422439013
1	2421	21.428450645272	0.023894366352
1	2426	21.452345011624	0.086342039782
1	2432	21.538687051406	0.05738124527
1	2439	21.596068296676	0.010628477741
1	2444	21.606696774417	0.014592361834
1	2449	21.621289136251	0.035020038228
1	2454	21.656309174479	0.015581291699
1	2459	21.671890466178	0.104667814658
1	2464	21.776558280836	0.017646933703
1	2469	21.794205214539	0.018605400572
1	2474	21.812810615111	0.074157764242
1	2480	21.886968379353	0.029765788395
1	2486	21.916734167748	0.016115906408
1	2491	21.932850074156	0.072123053937
1	2496	22.004973128093	0.010574641314
1	2501	22.015547769407	0.005598751037
1	2503	22.021146520444	0.060034972355
1	2511	22.081181492799	0.008372706849
1	2516	22.089554199648	0.061352389076
1	2522	22.150906588724	0.025174099
1	2527	22.176080687724	0.03042257307
1	2532	22.206503260794	0.022532599857
1	2537	22.229035860651	0.016770050678
1	2542	22.245805911329	0.016472788404
1	2547	22.262278699733	0.000346402018
1	2549	22.262625101751	0.034058040932
1	2557	22.296683142683	0.039076497372
1	2562	22.335759640055	0.12096555475
1	2569	22.456725194805	0.093102393525
1	2576	22.54982758833	0.061517138847
1	2581	22.611344727177	0.00136182651
1	2583	22.612706553687	0.006249734552
1	2585	22.618956288239	0.061642497143
1	2596	22.680598785382	0.153638586738
1	2601	22.83423737212	0.016400279934
1	2606	22.850637652054	0.025898713555
1	2611	22.876536365609	0.027603975455
1	2616	22.904140341064	0.006203189664
1	2618	22.910343530728	0.177654108383
1	2626	23.087997639111	0.008380312976
1	2631	23.096377952087	0.104722020969
1	2637	23.201099973056	0.210666854262
1	2646	23.411766827318	0.003648943837
1	2648	23.415415771155	0.009507975457
1	2653	23.424923746612	0.041401362831
1	2661	23.466325109443	0.0013220117
1	2663	23.467647121143	0.004094213362
1	2665	23.471741334505	0.066084180283
1	2677	23.537825514788	0.074301824124
1	2683	23.612127338912	0.004497937178
1	2685	23.61662527609	0.144415649165
1	2696	23.761040925255	0.062474781256
1	2703	23.823515706511	0.033342801229
1	2708	23.85685850774	0.127191598168
1	2714	23.984050105908	0.116993004027
1	2719	24.101043109935	0.182866167964
1	2725	24.283909277899	0.021969538083
1	2731	24.305878815982	0.034194863658
1	2736	24.34007367964	0.014479350399
1	2741	24.354553030039	0.007360179469
1	2746	24.361913209508	0.032234740288
1	2752	24.394147949796	0.188705825405
1	2759	24.582853775201	0.028425618695
1	2764	24.611279393896	0.073221505929
1	2769	24.684500899825	0.028004788068
1	2775	24.712505687893	0.031348927358
1	2780	24.743854615251	0.03901936437
1	2785	24.782873979621	0.036948055633
1	2790	24.819822035254	0.076646024629
1	2795	24.896468059883	0.106486902993
1	2801	25.002954962876	0.027549564313
1	2806	25.030504527189	0.049767188849
1	2812	25.080271716038	0.079615493699
1	2818	25.159887209737	0.083768693717
1	2823	25.243655903454	0.00541498478
1	2825	25.249070888234	0.02294629748
1	2833	25.272017185714	0.017088828807
1	2838	25.289106014521	0.058487212084
1	2843	25.347593226605	0.03994125099
1	2848	25.387534477595	0.02166338595
1	2853	25.409197863545	0.047633403003
1	2858	25.456831266548	0.010450745479
1	2863	25.467282012027	0.142193980204
1	2869	25.609475992231	0.218846686389
1	2875	25.82832267862	0.004432130825
1	2877	25.832754809445	0.000508233935
1	2879	25.83326304338	0.042158905157
1	2891	25.875421948537	0.047490376648
1	2899	25.922912325185	0.032488290865
1	2904	25.95540061605	0.110795941433
1	2910	26.066196557483	0.112378365869
1	2915	26.178574923352	0.019056927846
1	2920	26.197631851198	0.003876194697
1	2922	26.201508045895	0.043613419074
1	2930	26.245121464969	0.006154020213
1	2932	26.251275485182	0.013658084537
1	2940	26.264933569719	0.005302542062
1	2942	26.270236111781	0.057490268131
1	2950	26.327726379912	0.013224219798
1	2955	26.34095059971	0.000127682744
1	2957	26.341078282454	0.003625040893
1	2959	26.344703323347	0.092639628483
1	2971	26.43734295183	0.002414489867
1	2973	26.439757441697	0.036665069648
1	2981	26.476422511345	0.009315881951
1	2986	26.485738393296	0.18277152848
1	2994	26.668509921776	0.044402782621
1	3000	26.712912704397	0.013011923569
1	3005	26.725924627966	0.029630223946
1	3010	26.755554851912	0.001652304251
1	3012	26.757207156163	0.025131354414
1	3020	26.782338510577	0.019615528562
1	3025	26.801954039139	0.037018988085
1	3032	26.838973027224	0.000348821042
1	3034	26.839321848266	0.069622476595
1	3043	26.908944324861	0.001553378953
1	3045	26.910497703814	0.004171685362
1	3047	26.914669389176	0.065384033215
1	3058	26.980053422391	0.158281844998
1	3063	27.138335267389	0.104393095279
1	3068	27.242728362668	0.049322168567
1	3073	27.292050531235	0.047318606086
1	3078	27.339369137321	0.021540592732
1	3083	27.360909730053	0.026704537057
1	3088	27.38761426711	0.002144457803
1	3090	27.389758724913	0.024567680205
1	3098	27.414326405118	0.102071672929
1	3104	27.516398078047	0.06496676373
1	3109	27.581364841777	0.120480732594
1	3114	27.701845574371	0.046866991005
1	3120	27.748712565376	0.036861598719
1	3125	27.785574164095	0.165082386338
1	3130	27.950656550433	0.013179637207
1	3135	27.96383618764	0.026711643082
1	3141	27.990547830722	0.092317910819
1	3146	28.082865741541	0.09609912089
1	3153	28.178964862431	0.004805047608
1	3155	28.183769910039	0.010780528822
1	3163	28.194550438861	0.014024726439
1	3168	28.2085751653	0.024166414712
1	3173	28.232741580012	0.032311273804
1	3180	28.265052853816	0.07643308022
1	3187	28.341485934036	0.08761900034
1	3192	28.429104934376	0.004512236644
1	3194	28.43361717102	1.3092349e-05
1	3196	28.433630263369	0.092056034659
1	3209	28.525686298028	0.061194421259
1	3215	28.586880719287	0.058638194805
1	3220	28.645518914092	0.004887224405
1	3222	28.650406138497	0.310131318033
1	3234	28.96053745653	0.123778494512
1	3239	29.084315951042	0.014435670543
1	3244	29.098751621585	0.057064203246
1	3249	29.155815824831	0.081440885484
1	3254	29.237256710315	0.094678263438
1	3260	29.331934973753	0.070785593763
1	3265	29.402720567516	0.042332327566
1	3270	29.445052895082	0.084568224681
1	3276	29.529621119763	0.004728320011
1	3278	29.534349439774	0.0068305752
1	3283	29.541180014974	0.010325285858
1	3288	29.551505300832	0.026744817665
1	3297	29.578250118497	0.082948002162
1	3303	29.661198120659	0.062398662087
1	3308	29.723596782746	0.032090092864
1	3313	29.75568687561	0.013971358043
1	3319	29.769658233653	0.040844368613
1	3324	29.810502602266	0.045182043625
1	3329	29.855684645891	0.121725549996
1	3334	29.977410195887	0.128235735214
1	3341	30.105645931101	0.109699933933
1	3346	30.215345865034	0.015588224583
1	3352	30.230934089617	0.064445276381
1	3357	30.295379365998	0.063591819241
1	3362	30.358971185239	0.102954633402
1	3367	30.461925818641	0.016798187532
1	3372	30.478724006173	0.136916751107
1	3377	30.61564075728	0.027033302309
1	3382	30.642674059589	0.112673853628
1	3389	30.755347913217	0.044377745569
1	3394	30.799725658786	0.038851848922
1	3401	30.838577507708	0.023925958442
1	3406	30.86250346615	0.057273582454
1	3412	30.919777048604	0.01521474418
1	3417	30.934991792784	0.02443383523
1	3422	30.959425628014	0.123841230494
1	3427	31.083266858508	0.038895698232
1	3432	31.12216255674	0.001060024327
1	3434	31.123222581067	0.058669801417
1	3442	31.181892382484	0.099685370022
1	3448	31.281577752506	0.067056892974
1	3454	31.34863464548	0.000757974481
1	3456	31.349392619961	0.006728655834
1	3458	31.356121275795	0.023789737304
1	3469	31.379911013099	0.029122297512
1	3474	31.409033310611	0.038023690461
1	3479	31.447057001072	0.012216875148
1	3484	31.45927387622	0.026492060248
1	3489	31.485765936468	0.136370126416
1	3494	31.622136062884	0.012489965568
1	3499	31.634626028452	0.004470020126
1	3501	31.639096048578	0.057327000885
1	3509	31.696423049463	0.089218517239
1	3515	31.785641566702	0.087501403243
1	3520	31.873142969945	0.151601005377
1	3527	32.024743975322	0.020425195485
1	3532	32.045169170807	0.103918953804
1	3538	32.149088124611	0.053961525889
1	3543	32.2030496505	0.089769545103
1	3548	32.292819195603	0.006633201811
1	3550	32.299452397414	0.042674232323
1	3558	32.342126629737	0.025122462607
1	3563	32.367249092344	0.078727837645
1	3568	32.445976929989	0.014372836339
1	3573	32.460349766328	0.181347622488
1	3579	32.641697388816	0.019693583935
1	3584	32.661390972751	0.01411077208
1	3589	32.675501744831	0.007331482002
1	3591	32.682833226833	0.059006319656
1	3599	32.741839546489	0.040528119289
1	3605	32.782367665778	0.062332630742
1	3610	32.84470029652	0.081792683687
1	3615	32.926492980207	0.093659631288
1	3622	33.020152611495	0.031644900657
1	3627	33.051797512152	0.001854341538
1	3629	33.05365185369	0.043829283212
1	3638	33.097481136902	0.058353689931
1	3645	33.155834826833	0.004841691171
1	3647	33.160676518004	0.011148718799
1	3652	33.171825236803	0.064244731243
1	3660	33.236069968046	0.089573529664
1	3665	33.32564349771	0.080351836647
1	3672	33.405995334357	0.062377850746
1	3677	33.468373185103	0.013548193504
1	3682	33.481921378607	0.162980924568
1	3688	33.644902303175	0.028236668742
1	3693	33.673138971917	0.053683188642
1	3698	33.726822160559	0.095497459469
1	3705	33.822319620028	0.047317255716
1	3711	33.869636875744	0.031229415952
1	3716	33.900866291696	0.023332484705
1	3721	33.924198776401	0.051731867435
1	3728	33.975930643836	0.00010283728
1	3730	33.976033481116	0.016766333314
1	3738	33.99279981443	0.118817279917
1	3743	34.111617094347	0.012711019478
1	3748	34.124328113825	0.077528928031
1	3754	34.201857041856	0.102040761729
1	3759	34.303897803585	0.019180201718
1	3764	34.323078005303	0.004492132841
1	3766	34.327570138144	0.040187703156
1	3775	34.3677578413	0.02120320348
1	3780	34.38896104478	0.024441720504
1	3785	34.413402765284	0.317282477259
1	3795	34.730685242543	0.078381746843
1	3800	34.809066989386	0.02088916788
1	3805	34.829956157266	0.03867078093
1	3810	34.868626938196	0.048982541062
1	3815	34.917609479258	0.101952884658
1	3821	35.019562363916	0.000949689051
1	3823	35.020512052967	0.01698916135
1	3831	35.037501214317	0.042884108624
1	3836	35.080385322941	0.109941274959
1	3842	35.1903265979	0.027083505613
1	3847	35.217410103513	0.015982749875
1	3852	35.233392853388	0.114331156419
1	3858	35.347724009807	0.006662437358
1	3860	35.354386447165	0.016099050418
1	3868	35.370485497583	0.003128504532
1	3870	35.373614002115	0.056958688099
1	3878	35.430572690214	0.060265559014
1	3883	35.490838249228	0.021958451412
1	3888	35.51279670064	0.064123081996
1	3894	35.576919782636	0.018696768688
1	3899	35.595616551324	0.008988642403
1	3904	35.604605193727	0.001378502266
1	3906	35.605983695993	0.033346517373
1	3914	35.639330213366	0.038717327743
1	3919	35.678047541109	0.003429235111
1	3921	35.68147677622	0.020609311079
1	3929	35.702086087299	0.06340831474
1	3934	35.765494402039	0.056094976911
1	3941	35.82158937895	0.041808718894
1	3946	35.863398097844	0.095498994555
1	3952	35.958897092399	0.081251680543
1	3959	36.040148772942	0.002418720829
1	3961	36.042567493771	0.071131609826
1	3969	36.113699103597	0.05832944982
1	3974	36.172028553417	0.005882677451
1	3976	36.177911230868	0.026684550296
1	3984	36.204595781164	0.00298073351
1	3986	36.207576514674	0.066954552364
1	3994	36.274531067038	0.09016133341
1	3999	36.364692400448	0.031557227693
1	4004	36.396249628141	0.035964555496
1	4009	36.432214183637	0.071553978766
1	4014	36.503768162403	0.101984835458
1	4021	36.605752997861	0.027416628517
1	4026	36.633169626378	0.024988142624
1	4031	36.658157769002	0.11594900513
1	4036	36.774106774132	0.119097677272
1	4041	36.893204451404	0.049857416275
1	4048	36.943061867679	0.033377900779
1	4053	36.976439768458	0.083198104481
1	4058	37.059637872939	0.010469523051
1	4063	37.07010739599	0.004807874344
1	4065	37.074915270334	0.03177963214
1	4073	37.106694902474	0.056461163936
1	4078	37.16315606641	0.059821625173
1	4083	37.222977691583	0.030895906832
1	4089	37.253873598415	0.050125700213
1	4094	37.303999298628	0.050125625375
1	4100	37.354124924003	0.037835811022
1	4105	37.391960735025	0.020576181044
1	4110	37.412536916069	0.028070805299
1	4115	37.440607721368	0.010486589348
1	4120	37.451094310716	0.001147704945
1	4122	37.452242015661	0.031217342676
1	4130	37.483459358337	0.053808892304
1	4135	37.537268250641	0.008595404273
1	4140	37.545863654914	0.024559598621
1	4145	37.570423253535	0.082098255898
1	4150	37.652521509433	0.091602199848
1	4155	37.744123709281	0.007632983607
1	4157	37.751756692888	0.124316274742
1	4166	37.87607296763	0.019375828869
1	4171	37.895448796499	0.01552931616
1	4176	37.910978112659	0.065930788809
1	4182	37.976908901468	0.117875973142
1	4187	38.09478487461	0.018418097853
1	4192	38.113202972463	0.006669504186
1	4194	38.119872476649	0.032987100072
1	4203	38.152859576721	0.103359768051
1	4209	38.256219344772	0.040587447905
1	4214	38.296806792677	0.050074659595
1	4221	38.346881452272	0.005161754189
1	4224	38.352043206461	0.029871922094
1	4232	38.381915128555	0.033257767345
1	4238	38.4151728959	0.013331961215
1	4243	38.428504857115	0.036299314055
1	4249	38.46480417117	0.00765700226
1	4252	38.47246117343	0.066301900082
1	4260	38.538763073512	0.03874552449
1	4265	38.577508598002	0.077933127586
1	4270	38.655441725588	0.005740930659
1	4272	38.661182656247	0.006836836063
1	4277	38.66801949231	0.134409654668
1	4288	38.802429146978	0.055642931547
1	4293	38.858072078525	0.16050159299
1	4299	39.018573671515	0.051715330526
1	4305	39.070289002041	0.359613444298
1	4313	39.429902446339	0.028025980209
1	4318	39.457928426548	0.09761426171
1	4325	39.555542688258	0.251068680215
1	4334	39.806611368473	0.01651450623
1	4339	39.823125874703	0.025837347329
1	4344	39.848963222032	0.001898089864
1	4346	39.850861311896	0.056742361393
1	4354	39.907603673289	0.012205426047
1	4359	39.919809099336	0.029089682401
1	4366	39.948898781737	0.021387152498
1	4371	39.970285934235	0.008329862622
1	4376	39.978615796857	0.328010795289
1	4384	40.306626592146	0.07400559402
1	4390	40.380632186166	0.031593668057
1	4395	40.412225854223	0.044930439711
1	4400	40.457156293934	0.002717202372
1	4402	40.459873496306	0.089162229177
1	4410	40.549035725483	0.004214245934
1	4412	40.553249971417	0.205263946085
1	4423	40.758513917502	0.080541897416
1	4429	40.839055814918	0.039929005774
1	4434	40.878984820692	0.001070962329
1	4436	40.880055783021	0.042223047486
1	4445	40.922278830507	0.017198958526
1	4450	40.939477789033	0.025753096979
1	4455	40.965230886012	0.035421078885
1	4460	41.000651964897	0.05887747426
1	4466	41.059529439157	0.100989770887
1	4471	41.160519210044	0.097315383289
1	4476	41.257834593333	0.178235373482
1	4482	41.436069966815	0.045059530933
1	4487	41.481129497748	0.121080322287
1	4493	41.602209820035	0.005966826001
1	4496	41.608176646036	0.002089536093
1	4498	41.610266182129	0.000846154632
1	4503	41.611112336761	0.070649570203
1	4514	41.681761906964	0.01151029633
1	4519	41.693272203294	0.074419921389
1	4524	41.767692124683	0.009010061134
1	4530	41.776702185817	0.12203825481
1	4535	41.898740440627	0.143043858043
1	4541	42.04178429867	0.030186678126
1	4546	42.071970976796	0.293585880357
1	4554	42.365556857153	0.119789149649
1	4559	42.485346006802	0.015100278426
1	4564	42.500446285228	0.095673324608
1	4570	42.596119609836	0.071243295448
1	4575	42.667362905284	0.026792995607
1	4580	42.694155900891	0.035153072749
1	4585	42.72930897364	0.048095286039
1	4590	42.777404259679	0.075129442772
1	4596	42.852533702451	0.006407192408
1	4598	42.858940894859	0.044814241971
1	4607	42.90375513683	0.029354623769
1	4612	42.933109760599	0.028916901205
1	4617	42.962026661804	0.004240032319
1	4619	42.966266694123	0.043176584652
1	4627	43.009443278775	0.003332300558
1	4629	43.012775579333	0.007606543024
1	4634	43.020382122357	0.014402298953
1	4642	43.03478442131	0.153726476625
1	4650	43.188510897935	0.059680578735
1	4655	43.24819147667	0.058358733598
1	4660	43.306550210268	0.070689565999
1	4665	43.377239776267	0.027311444731
1	4670	43.404551220998	0.049668428993
1	4676	43.454219649991	0.01657744014
1	4681	43.470797090131	0.026168012875
1	4686	43.496965103006	0.109971556542
1	4691	43.606936659548	0.037290391915
1	4696	43.644227051463	0.013864207578
1	4701	43.658091259041	0.01902628725
1	4706	43.677117546291	0.00132889823
1	4708	43.678446444521	0.291825041485
1	4718	43.970271486006	0.01758350281
1	4723	43.987854988816	0.117592759083
1	4729	44.105447747899	0.001865932567
1	4731	44.107313680466	0.000373246646
1	4733	44.107686927112	0.219713450979
1	4746	44.327400378091	0.038494722062
1	4751	44.365895100153	0.001715016849
1	4753	44.367610117002	0.00037312333
1	4755	44.367983240332	0.031639580981
1	4768	44.399622821313	0.016121301734
1	4773	44.415744123047	0.009531027542
1	4778	44.425275150589	0.000664599667
1	4780	44.425939750256	0.023868132912
1	4788	44.449807883168	0.130798692978
1	4794	44.580606576146	0.034480847586
1	4800	44.615087423732	0.093596016474
1	4805	44.708683440206	0.040555350172
1	4810	44.749238790378	0.044905607925
1	4815	44.794144398303	0.072919758662
1	4820	44.867064156965	0.000477887344
1	4822	44.867542044309	0.056074807271
1	4831	44.92361685158	0.130259502343
1	4839	45.053876353923	0.021564194364
1	4844	45.075440548287	0.035729430814
1	4849	45.111169979101	0.047540573992
1	4855	45.158710553093	0.206854722898
1	4862	45.365565275991	0.009113772483
1	4867	45.374679048474	0.04022232803
1	4873	45.414901376504	0.034497965904
1	4878	45.449399342408	0.02913563219
1	4883	45.478534974598	0.037277288707
1	4888	45.515812263305	0.024941550948
1	4893	45.540753814253	0.036926242475
1	4898	45.577680056728	0.067566391847
1	4903	45.645246448575	0.052914896686
1	4908	45.698161345261	0.034869214513
1	4914	45.733030559774	0.11152074585
1	4920	45.844551305624	0.130072600116
1	4927	45.97462390574	0.065292929869
1	4932	46.039916835609	0.051952148619
1	4937	46.091868984228	0.055721682384
1	4943	46.147590666612	0.006764351671
1	4945	46.154355018283	0.032556726077
1	4953	46.18691174436	0.001703969183
1	4955	46.188615713543	0.019368639216
1	4964	46.207984352759	0.012770866903
1	4969	46.220755219662	0.055979448075
1	4974	46.276734667737	0.166439428153
1	4983	46.44317409589	0.043437959779
1	4988	46.486612055669	0.065637162282
1	4994	46.552249217951	0.049535486241
1	4999	46.601784704192	0.01695177849
1	5005	46.618736482682	0.000213020865
1	5007	46.618949503547	0.137577361081
1	5017	46.756526864628	0.067881997718
1	5022	46.824408862346	0.033539676016
1	5027	46.857948538362	0.008906617421
1	5033	46.866855155783	0.024024020933
1	5038	46.890879176716	0.003976064224
1	5040	46.89485524094	0.017874004287
1	5049	46.912729245227	0.004332794471
1	5051	46.917062039698	0.025533521227
1	5059	46.942595560925	0.014780200437
1	5064	46.957375761362	0.127771510032
1	5069	47.085147271394	0.054292122884
1	5075	47.139439394278	0.134059515841
1	5081	47.273498910119	0.009733849833
1	5086	47.283232759952	0.055795427688
1	5093	47.33902818764	0.031546589407
1	5101	47.370574777047	0.01510778459
1	5106	47.385682561637	0.009633035522
1	5111	47.395315597159	0.0469566661
1	5116	47.442272263259	0.001009631445
1	5118	47.443281894704	0.081642577335
1	5127	47.524924472039	0.169777635256
1	5136	47.694702107295	0.057788322272
1	5143	47.752490429567	0.026720986894
1	5148	47.779211416461	0.057534943749
1	5154	47.83674636021	0.119302816684
1	5159	47.956049176894	0.037060530631
1	5164	47.993109707525	0.015077760599
1	5169	48.008187468124	0.002053210474
1	5171	48.010240678598	0.001477771956
1	5173	48.011718450554	0.004180876499
1	5175	48.015899327053	0.047265250379
1	5190	48.063164577432	0.024148836149
1	5196	48.087313413581	0.087325703283
1	5201	48.174639116864	0.107135273955
1	5207	48.281774390819	0.194296447313
1	5219	48.476070838132	0.156321267258
1	5225	48.63239210539	0.024721839378
1	5230	48.657113944768	0.130358864364
1	5236	48.787472809132	0.10915237817
1	5242	48.896625187302	0.020270905798
1	5247	48.9168960931	0.098948807393
1	5252	49.015844900493	0.070136238029
1	5258	49.085981138522	0.008941573641
1	5263	49.094922712163	0.065643234589
1	5268	49.160565946752	0.035210260786
1	5274	49.195776207538	0.039348472337
1	5279	49.235124679875	0.001331838096
1	5281	49.236456517971	0.011852535834
1	5286	49.248309053805	0.01852422251
1	5294	49.266833276315	0.013915677698
1	5299	49.280748954013	0.230545997583
1	5306	49.511294951596	0.011116658098
1	5311	49.522411609694	0.068585482197
1	5317	49.590997091891	0.029938810801
1	5322	49.620935902692	0.000640144209
1	5324	49.621576046901	0.000963222264
1	5326	49.622539269165	0.038080210953
1	5338	49.660619480118	0.031872769272
1	5343	49.69249224939	0.059970055794
1	5349	49.752462305184	0.083757774555
1	5357	49.836220079739	0.064074262886
1	5362	49.900294342625	0.006641509223
1	5364	49.906935851848	0.008629122206
1	5370	49.915564974054	0.003970282114
1	5375	49.919535256168	0.030375557197
1	5383	49.949910813365	0.247351803711
1	5391	50.197262617076	0.02223355327
1	5396	50.219496170346	0.061252367687
1	5401	50.280748538033	0.058245653735
1	5406	50.338994191768	0.103117103739
1	5412	50.442111295507	0.008085602353
1	5417	50.45019689786	0.026152666435
1	5422	50.476349564295	0.016801023433
1	5428	50.493150587728	0.051124285069
1	5433	50.544274872797	0.000985571437
1	5435	50.545260444234	0.00737599123
1	5440	50.552636435464	0.005764762957
1	5442	50.558401198421	0.017490059761
1	5453	50.575891258182	0.011386433991
1	5458	50.587277692173	0.033509415529
1	5463	50.620787107702	0.189211603946
1	5472	50.809998711648	0.174863325902
1	5478	50.98486203755	0.011231578145
1	5484	50.996093615695	0.0450373425
1	5489	51.041130958195	0.107623801743
1	5495	51.148754759938	0.033335177934
1	5500	51.182089937872	0.046520972518
1	5505	51.22861091039	0.064038372548
1	5510	51.292649282938	0.061379546505
1	5515	51.354028829443	0.013644945159
1	5520	51.367673774602	0.025486781297
1	5526	51.393160555899	0.035649560766
1	5531	51.428810116665	0.0842391006
1	5538	51.513049217265	0.003015242776
1	5540	51.516064460041	0.027755302907
1	5548	51.543819762948	0.08619893773
1	5554	51.630018700678	0.055674509894
1	5560	51.685693210572	0.000195369117
1	5562	51.685888579689	0.030596321445
1	5570	51.716484901134	0.097371600537
1	5575	51.813856501671	0.009814360019
1	5580	51.82367086169	0.096497105951
1	5586	51.920167967641	0.039385653843
1	5592	51.959553621484	0.014433364173
1	5597	51.973986985657	0.016202854712
1	5602	51.990189840369	0.197209255423
1	5607	52.187399095792	0.011159668229
1	5612	52.198558764021	0.071956072977
1	5619	52.270514836998	0.00623005716
1	5621	52.276744894158	0.078899575359
1	5630	52.355644469517	0.01238007177
1	5635	52.368024541287	0.001378375081
1	5637	52.369402916368	0.030190785657
1	5645	52.399593702025	0.021243029511
1	5650	52.420836731536	0.005996091041
1	5652	52.426832822577	0.039150729836
1	5662	52.465983552413	0.016987198863
1	5667	52.482970751276	0.031642918602
1	5673	52.514613669878	0.181723026747
1	5678	52.696336696625	0.022921932506
1	5683	52.719258629131	0.018559077567
1	5688	52.737817706698	0.153172082385
1	5693	52.890989789083	0.000389400627
1	5695	52.89137918971	0.023535569115
1	5706	52.914914758825	0.014080034633
1	5711	52.928994793458	0.217807821211
1	5719	53.146802614669	0.048649317424
1	5725	53.195451932093	0.181324981067
1	5731	53.37677691316	0.080172600633
1	5737	53.456949513793	0.050163550176
1	5742	53.507113063969	0.006324219311
1	5744	53.51343728328	0.196523160326
1	5756	53.709960443606	0.053442567225
1	5762	53.763403010831	0.035496121955
1	5767	53.798899132786	0.115767020233
1	5773	53.914666153019	0.026310395723
1	5778	53.940976548742	0.006432835073
1	5780	53.947409383815	0.061222352878
1	5790	54.008631736693	0.024273490914
1	5795	54.032905227607	0.044400671824
1	5800	54.077305899431	0.057733730475
1	5805	54.135039629906	0.003064679863
1	5807	54.138104309769	0.074981680235
1	5815	54.213085990004	0.077711266363
1	5820	54.290797256367	0.07859507279
1	5825	54.369392329157	0.004808305764
1	5827	54.374200634921	0.140013150319
1	5835	54.51421378524	0.037331689262
1	5840	54.551545474502	0.111518632233
1	5845	54.663064106735	0.022217249614
1	5850	54.685281356349	0.069770218668
1	5855	54.755051575017	0.050897980303
1	5860	54.80594955532	0.157695340433
1	5866	54.963644895753	0.000689292802
1	5868	54.964334188555	0.023701512007
1	5876	54.988035700562	0.011485168165
1	5881	54.999520868727	0.079147864835
1	5886	55.078668733562	0.03308062361
1	5891	55.111749357172	0.030657513755
1	5896	55.142406870927	0.012022620965
1	5901	55.154429491892	0.002632145602
1	5903	55.157061637494	0.03356459413
1	5911	55.190626231624	0.052735721226
1	5916	55.24336195285	0.070769898966
1	5921	55.314131851816	0.020731387156
1	5926	55.334863238972	0.061980079049
1	5931	55.396843318021	0.034044460723
1	5936	55.430887778744	0.055238788893
1	5942	55.486126567637	0.003142763733
1	5944	55.48926933137	0.001596669441
1	5946	55.490866000811	0.122787648076
1	5959	55.613653648887	0.032775143472
1	5964	55.646428792359	0.023756694226
1	5969	55.670185486585	0.012029106259
1	5974	55.682214592844	0.127771234655
1	5980	55.809985827499	0.026756757241
1	5985	55.83674258474	0.177684971202
1	5993	56.014427555942	0.047082049414
1	5998	56.061509605356	0.103645746901
1	6003	56.165155352257	0.001580800374
1	6005	56.166736152631	0.007254917017
1	6010	56.173991069648	0.087898630672
1	6021	56.26188970032	0.026687257096
1	6026	56.288576957416	0.087698854578
1	6031	56.376275811994	0.018064875585
1	6036	56.394340687579	0.013471528434
1	6041	56.407812216013	0.014152228008
1	6047	56.421964444021	0.200358131065
1	6053	56.622322575086	0.032575990471
1	6058	56.654898565557	0.027284168761
1	6063	56.682182734318	0.030747370312
1	6068	56.71293010463	0.064815782754
1	6073	56.777745887384	0.00204014826
1	6075	56.779786035644	0.026635312109
1	6084	56.806421347753	0.006347927307
1	6086	56.81276927506	0.011682941837
1	6095	56.824452216897	0.065144041268
1	6100	56.889596258165	0.112388249747
1	6106	57.001984507912	0.055062347387
1	6111	57.057046855299	0.045130645631
1	6116	57.10217750093	0.130909660719
1	6121	57.233087161649	0.174016429129
1	6128	57.407103590778	0.09424163465
1	6133	57.501345225428	0.103853320929
1	6138	57.605198546357	0.127040832656
1	6144	57.732239379013	0.088104639055
1	6150	57.820344018068	0.113526774772
1	6156	57.93387079284	0.156890218917
1	6162	58.090761011757	0.02164435049
1	6167	58.112405362247	0.029089523222
1	6173	58.141494885469	0.023268752309
1	6178	58.164763637778	0.006639413891
1	6180	58.171403051669	0.05075388912
1	6189	58.222156940789	0.111158418676
1	6194	58.333315359465	0.052813846021
1	6200	58.386129205486	0.029852377584
1	6207	58.41598158307	0.077523389087
1	6212	58.493504972157	0.052996660964
1	6217	58.546501633121	0.085729074761
1	6222	58.632230707882	0.029451991261
1	6228	58.661682699143	0.23822955818
1	6234	58.899912257323	0.025337942975
1	6239	58.925250200298	0.029190472783
1	6244	58.954440673081	0.004816535718
1	6246	58.959257208799	0.026905971144
1	6254	58.986163179943	0.013434285257
1	6259	58.9995974652	0.009669027628
1	6264	59.009266492828	0.036531462998
1	6270	59.045797955826	0.055854947622
1	6275	59.101652903448	0.140476037078
1	6281	59.242128940526	0.022909238613
1	6286	59.265038179139	0.015915302973
1	6291	59.280953482112	0.202783627068
1	6297	59.48373710918	0.029476159217
1	6303	59.513213268397	0.017864158841
1	6308	59.531077427238	0.005717579032
1	6310	59.53679500627	0.038264412414
1	6318	59.575059418684	0.007308476858
1	6323	59.582367895542	0.070786887929
1	6329	59.653154783471	0.019458711886
1	6335	59.672613495357	0.113859559171
1	6341	59.786473054528	0.004279193769
1	6343	59.790752248297	0.035607658169
1	6351	59.826359906466	0.011394963848
1	6356	59.837754870314	0.068892040033
1	6362	59.906646910347	0.008077721718
1	6367	59.914724632065	0.01997770344
1	6372	59.934702335505	0.03774538767
1	6378	59.972447723175	0.016879397833
1	6383	59.989327121008	0.060569202515
1	6388	60.049896323523	0.0074822018
1	6393	60.057378525323	0.06271887557
1	6399	60.120097400893	0.038269636639
1	6404	60.158367037532	0.055511269137
1	6409	60.213878306669	0.093324002727
1	6414	60.307202309396	0.123160825263
1	6420	60.430363134659	0.043791780721
1	6425	60.47415491538	0.040504052888
1	6430	60.514658968268	0.002981004505
1	6432	60.517639972773	0.17174254539
1	6440	60.689382518163	0.029233106759
1	6445	60.718615624922	0.002349095153
1	6447	60.720964720075	0.034380115727
1	6456	60.755344835802	0.008841596545
1	6461	60.764186432347	0.017792686519
1	6466	60.781979118866	0.086873967392
1	6471	60.868853086258	0.012563800799
1	6476	60.881416887057	0.026852069232
1	6482	60.908268956289	0.031703280869
1	6488	60.939972237158	0.006624889373
1	6490	60.946597126531	0.003632116748
1	6495	60.950229243279	0.013394212431
1	6503	60.96362345571	0.152437518339
1	6508	61.116060974049	0.081125054451
1	6514	61.1971860285	0.035559629605
1	6519	61.232745658105	0.098778386081
1	6525	61.331524044186	0.09631319603
1	6531	61.427837240216	0.017629238025
1	6536	61.445466478241	0.010182927252
1	6541	61.455649405493	0.070613532682
1	6546	61.526262938175	0.034113163168
1	6551	61.560376101343	0.142190421628
1	6557	61.702566522971	0.080590437178
1	6563	61.783156960149	0.030431318532
1	6568	61.813588278681	0.013190938804
1	6573	61.826779217485	0.009146405613
1	6578	61.835925623098	0.00589654862
1	6580	61.841822171718	0.011619863577
1	6588	61.853442035295	0.005738025975
1	6590	61.85918006127	0.071940469143
1	6599	61.931120530413	0.037033003744
1	6605	61.968153534157	0.159167772619
1	6611	62.127321306776	0.021737638437
1	6616	62.149058945213	0.165705997419
1	6623	62.314764942632	0.091528036209
1	6629	62.406292978841	0.058886778671
1	6636	62.465179757512	0.010306231817
1	6641	62.475485989329	0.079868991361
1	6647	62.55535498069	0.084394019232
1	6652	62.639748999922	0.036614553707
1	6657	62.676363553629	0.021364602743
1	6663	62.697728156372	0.060695211711
1	6668	62.758423368083	0.088588568923
1	6673	62.847011937006	0.081414927561
1	6678	62.928426864567	0.03853422614
1	6684	62.966961090707	0.074803442543
1	6691	63.04176453325	0.015932055431
1	6696	63.057696588681	0.031701303565
1	6702	63.089397892246	0.065799690654
1	6707	63.1551975829	0.050617019419
1	6712	63.205814602319	0.001890805314
1	6714	63.207705407633	0.066771634442
1	6722	63.274477042075	0.040666701944
1	6727	63.315143744019	0.026903227895
1	6732	63.342046971914	0.029364027145
1	6737	63.371410999059	0.051722557047
1	6742	63.423133556106	0.024459527483
1	6747	63.447593083589	0.012221709313
1	6752	63.459814792902	0.029611567742
1	6757	63.489426360644	0.061189026576
1	6762	63.55061538722	0.018519459706
1	6767	63.569134846926	0.010872965974
1	6772	63.5800078129	0.001777196654
1	6774	63.581785009554	0.085916417453
1	6784	63.667701427007	0.127410958489
1	6790	63.795112385496	0.028767096873
1	6795	63.823879482369	0.065298824375
1	6800	63.889178306744	0.025686231437
1	6806	63.914864538181	0.058077006157
1	6811	63.972941544338	0.038335507991
1	6817	64.011277052329	0.04287539226
1	6823	64.054152444589	0.000116532831
1	6825	64.05426897742	0.004411485721
1	6827	64.058680463141	0.07740701547
1	6838	64.136087478611	0.064370159611
1	6844	64.200457638222	0.002334723688
1	6846	64.20279236191	0.034047976536
1	6854	64.236840338446	0.323961023438
1	6862	64.560801361884	0.209576158607
1	6870	64.770377520491	0.02033143177
1	6875	64.790708952261	0.042327988022
1	6880	64.833036940283	0.003987693617
1	6882	64.8370246339	0.08943783521
1	6892	64.92646246911	0.044139025203
1	6897	64.970601494313	0.085803825878
1	6903	65.056405320191	0.000826156179
1	6905	65.05723147637	0.004374733437
1	6907	65.061606209807	0.000343171833
1	6909	65.06194938164	0.015938764596
1	6917	65.077888146236	0.029713016658
1	6928	65.107601162894	0.090040711286
1	6933	65.19764187418	0.009430180477
1	6938	65.207072054657	0.008027761423
1	6943	65.21509981608	0.037108182638
1	6948	65.252207998718	0.105759440325
1	6954	65.357967439043	0.240621567071
1	6960	65.598589006114	0.003058934936
1	6962	65.60164794105	0.059816446979
1	6970	65.661464388029	0.086173251123
1	6977	65.747637639152	0.020891298549
1	6983	65.768528937701	0.041207404554
1	6989	65.809736342255	0.02637016663
1	6995	65.836106508885	0.020855900855
1	7000	65.85696240974	0.025833608974
1	7005	65.882796018714	0.038147874532
1	7011	65.920943893246	0.006519399014
1	7013	65.92746329226	0.033128211045
1	7021	65.960591503305	0.044984247391
1	7028	66.005575750696	0.077363041031
1	7033	66.082938791727	0.062677277574
1	7038	66.145616069301	0.043301495867
1	7043	66.188917565168	0.058173237378
1	7048	66.247090802546	0.017619543901
1	7053	66.264710346447	0.007357854881
1	7055	66.272068201328	0.032276057787
1	7063	66.304344259115	0.000971227153
1	7065	66.305315486268	0.10405992699
1	7074	66.409375413258	0.072329339981
1	7081	66.481704753239	0.130684629519
1	7086	66.612389382758	0.083960694805
1	7091	66.696350077563	0.051985531531
1	7096	66.748335609094	0.045000547194
1	7102	66.793336156288	0.08573551381
1	7108	66.879071670098	0.028395610817
1	7113	66.907467280915	0.088292999214
1	7120	66.995760280129	0.018506737903
1	7125	67.014267018032	0.022674359891
1	7130	67.036941377923	0.022002272552
1	7135	67.058943650475	0.127425627295
1	7141	67.18636927777	0.005427341533
1	7144	67.191796619303	0.021582649813
1	7152	67.213379269116	0.008467325711
1	7157	67.221846594827	0.014395363944
1	7163	67.236241958771	0.011308733524
1	7168	67.247550692295	0.005989550375
1	7170	67.25354024267	0.036487290046
1	7178	67.290027532716	0.059233887271
1	7184	67.349261419987	0.002833969567
1	7186	67.352095389554	0.137609661343
1	7195	67.489705050897	0.112339215183
1	7202	67.60204426608	0.024873500594
1	7207	67.626917766674	0.040878705877
1	7212	67.667796472551	0.05711893777
1	7218	67.724915410321	0.066265656742
1	7223	67.791181067063	0.018331894963
1	7228	67.809512962026	0.031951081017
1	7233	67.841464043043	0.009443749896
1	7238	67.850907792939	0.011651981239
1	7243	67.862559774178	0.019143602886
1	7248	67.881703377064	0.002664562908
1	7250	67.884367939972	0.04605349613
1	7259	67.930421436102	0.032344829635
1	7264	67.962766265737	0.031919226904
1	7269	67.994685492641	0.087935416173
1	7274	68.082620908814	0.050076842764
1	7279	68.132697751578	0.028369631713
1	7284	68.161067383291	0.051973604199
1	7289	68.21304098749	0.002930629012
1	7291	68.215971616502	0.049920809375
1	7299	68.265892425877	0.002828702394
1	7301	68.268721128271	0.004182120174
1	7303	68.272903248445	0.042080683107
1	7314	68.314983931552	0.093957080277
1	7319	68.408941011829	0.114141569116
1	7325	68.523082580945	0.099319829976
1	7331	68.622402410921	0.099694121582
1	7336	68.722096532503	0.065185622778
1	7345	68.787282155281	0.034842519013
1	7350	68.822124674294	0.053368844033
1	7357	68.875493518327	0.069620551369
1	7362	68.945114069696	0.001437276129
1	7364	68.946551345825	0.006112821107
1	7369	68.952664166932	0.093898116669
1	7378	69.046562283601	0.038397734449
1	7384	69.08496001805	0.019709167125
1	7389	69.104669185175	0.001512058225
1	7391	69.1061812434	0.008057922095
1	7396	69.114239165495	0.022817310114
1	7404	69.137056475609	0.034038458377
1	7409	69.171094933986	0.046095570368
1	7414	69.217190504354	0.086171097136
1	7420	69.30336160149	0.063185726017
1	7426	69.366547327507	0.055791877905
1	7431	69.422339205412	0.070793696882
1	7436	69.493132902294	0.013795996885
1	7441	69.506928899179	0.006447423716
1	7443	69.513376322895	0.026073518939
1	7451	69.539449841834	0.026615061903
1	7456	69.566064903737	0.064284908265
1	7462	69.630349812002	0.006271878285
1	7464	69.636621690287	0.005856506882
1	7469	69.642478197169	0.003716638266
1	7474	69.646194835435	0.093106691482
1	7483	69.739301526917	0.094486509171
1	7488	69.833788036088	0.000649609687
1	7490	69.834437645775	0.14065233815
1	7498	69.975089983925	0.102738244291
1	7505	70.077828228216	0.111045519901
1	7511	70.188873748117	0.08301470742
1	7516	70.271888455537	0.000616667692
1	7518	70.272505123229	0.018669464723
1	7526	70.291174587952	0.045136800415
1	7531	70.336311388367	0.032366792219
1	7537	70.368678180586	0.030613293065
1	7542	70.399291473651	0.013168837406
1	7547	70.412460311057	0.005536169221
1	7549	70.417996480278	0.069408416473
1	7557	70.487404896751	0.039805874821
1	7562	70.527210771572	0.000586550651
1	7564	70.527797322223	0.000192314749
1	7566	70.527989636972	0.028450278106
1	7577	70.556439915078	0.035435326649
1	7583	70.591875241727	0.04593726458
1	7588	70.637812506307	0.006845340739
1	7590	70.644657847046	0.026418904102
1	7598	70.671076751148	0.030279482239
1	7604	70.701356233387	0.019431245591
1	7609	70.720787478978	0.191889207135
1	7614	70.912676686113	0.013075723016
1	7619	70.925752409129	0.050528393151
1	7624	70.97628080228	0.012806512147
1	7629	70.989087314427	0.031953046873
1	7635	71.0210403613	0.079567190702
1	7641	71.100607552002	0.029111583429
1	7646	71.129719135431	0.033226721082
1	7651	71.162945856513	0.000324974614
1	7653	71.163270831127	0.016218653744
1	7662	71.179489484871	0.052626280349
1	7667	71.23211576522	0.033490634542
1	7672	71.265606399762	0.157983995961
1	7678	71.423590395723	0.020044148701
1	7683	71.443634544424	0.010771958344
1	7688	71.454406502768	0.052701203246
1	7693	71.507107706014	0.044158892029
1	7700	71.551266598043	0.098774843025
1	7706	71.650041441068	0.152990973542
1	7714	71.80303241461	0.005591030512
1	7716	71.808623445122	9.7265109e-05
1	7718	71.808720710231	0.149509547993
1	7732	71.958230258224	0.008472790254
1	7737	71.966703048478	0.076902501783
1	7743	72.043605550261	0.067363523549
1	7751	72.11096907381	0.053830991975
1	7756	72.164800065785	0.113375789022
1	7762	72.278175854807	0.019770651403
1	7767	72.29794650621	0.015227174509
1	7772	72.313173680719	0.003584608701
1	7774	72.31675828942	0.021114525575
1	7782	72.337872814995	0.015630408025
1	7787	72.35350322302	0.022475026782
1	7792	72.375978249802	0.084285255876
1	7798	72.460263505678	0.215832137382
1	7805	72.67609564306	0.025704418681
1	7810	72.701800061741	0.158020015141
1	7818	72.859820076882	0.058263836615
1	7823	72.918083913497	0.029378085142
1	7828	72.947461998639	0.010271494828
1	7833	72.957733493467	0.035739245836
1	7839	72.993472739303	0.024485635418
1	7844	73.017958374721	0.027521964015
1	7851	73.045480338736	0.001474677038
1	7853	73.046955015774	0.02787047534
1	7861	73.074825491114	0.01628536603
1	7866	73.091110857144	0.039538058351
1	7872	73.130648915495	0.033173132012
1	7878	73.163822047507	0.062364071154
1	7884	73.226186118661	0.025630815062
1	7889	73.251816933723	0.006617443615
1	7891	73.258434377338	0.004305572043
1	7896	73.262739949381	0.001134398697
1	7898	73.263874348078	0.04241048286
1	7909	73.306284830938	0.021195944411
1	7914	73.327480775349	0.032166771157
1	7919	73.359647546506	0.008937054269
1	7924	73.368584600775	0.070400498538
1	7930	73.438985099313	0.094714484331
1	7936	73.533699583644	0.138460995794
1	7942	73.672160579438	0.124602339844
1	7948	73.796762919282	0.01932328363
1	7953	73.816086202912	0.041961557579
1	7961	73.858047760491	0.057208404069
1	7966	73.91525616456	0.061128922402
1	7971	73.976385086962	0.077016054076
1	7976	74.053401141038	0.104209149928
1	7982	74.157610290966	0.033966287899
1	7987	74.191576578865	0.019042972957
1	7992	74.210619551822	0.040868969419
1	7997	74.251488521241	0.007665529079
1	7999	74.25915405032	0.020869500021
1	8007	74.280023550341	0.004670593585
1	8009	74.284694143926	0.047421366705
1	8018	74.332115510631	0.015565700857
1	8023	74.347681211488	0.130649567621
1	8030	74.478330779109	0.066938709284
1	8035	74.545269488393	0.023462073472
1	8040	74.568731561865	0.007799567294
1	8042	74.576531129159	0.029576479252
1	8050	74.606107608411	0.023149098638
1	8055	74.629256707049	0.049437944878
1	8060	74.678694651927	0.049846187069
1	8065	74.728540838996	0.054550115652
1	8071	74.783090954648	0.019464323729
1	8076	74.802555278377	0.062660776679
1	8081	74.865216055056	0.073083784611
1	8086	74.938299839667	0.137723740518
1	8091	75.076023580185	0.103983112984
1	8097	75.180006693169	0.031307700759
1	8102	75.211314393928	0.054261805572
1	8108	75.2655761995	0.010351109721
1	8113	75.275927309221	0.036295833822
1	8118	75.312223143043	0.023836325561
1	8123	75.336059468604	0.080179535784
1	8128	75.416239004388	0.030015945136
1	8133	75.446254949524	0.019750869693
1	8138	75.466005819217	0.016987423288
1	8143	75.482993242505	0.074884596159
1	8149	75.557877838664	0.039068295449
1	8154	75.596946134113	0.033126031703
1	8159	75.630072165816	0.081932792143
1	8164	75.712004957959	0.022391518137
1	8169	75.734396476096	0.075110792557
1	8176	75.809507268653	0.029702985695
1	8182	75.839210254348	0.114243713661
1	8188	75.953453968009	0.079210681193
1	8193	76.032664649202	0.015237791569
1	8198	76.047902440771	0.109073450936
1	8203	76.156975891707	0.00897889978
1	8208	76.165954791487	0.10910147598
1	8213	76.275056267467	0.007832409787
1	8216	76.282888677254	0.006094725678
1	8221	76.288983402932	0.106810200605
1	8229	76.395793603537	0.107798039321
1	8236	76.503591642858	0.108296166674
1	8242	76.611887809532	0.000957630305
1	8244	76.612845439837	0.074467251642
1	8252	76.687312691479	0.06511145602
1	8257	76.752424147499	0.001521993778
1	8259	76.753946141277	0.038637102535
1	8267	76.792583243812	0.065036227655
1	8272	76.857619471467	0.053204548983
1	8277	76.91082402045	0.007653921657
1	8279	76.918477942107	0.12733465539
1	8288	77.045812597497	0.041967347766
1	8293	77.087779945263	0.093132552293
1	8298	77.180912497556	0.012536744295
1	8303	77.193449241851	0.0537218991
1	8308	77.247171140951	0.109970983637
1	8313	77.357142124588	0.052817662468
1	8319	77.409959787056	0.010395891874
1	8324	77.42035567893	0.121465300382
1	8330	77.541820979312	0.025646565608
1	8335	77.56746754492	0.039261169521
1	8341	77.606728714441	0.026429836257
1	8347	77.633158550698	0.099984527623
1	8352	77.733143078321	0.033497532145
1	8357	77.766640610466	0.09028911257
1	8363	77.856929723036	0.014931577205
1	8368	77.871861300241	0.089448898641
1	8375	77.961310198882	0.044251058935
1	8380	78.005561257817	0.165151025071
1	8386	78.170712282888	0.023071451244
1	8391	78.193783734132	0.027726079188
1	8396	78.22150981332	0.030772162033
1	8401	78.252281975353	0.092979794234
1	8408	78.345261769587	0.013503882961
1	8413	78.358765652548	0.081489329871
1	8418	78.440254982419	0.040666446574
1	8425	78.480921428993	0.013206791498
1	8430	78.494128220491	0.075807817771
1	8435	78.569936038262	0.001568643445
1	8437	78.571504681707	0.013873067222
1	8442	78.585377748929	0.042204818017
1	8451	78.627582566946	0.003024597472
1	8453	78.630607164418	0.010826744613
1	8458	78.641433909031	0.032893421843
1	8466	78.674327330874	0.173425136502
1	8473	78.847752467376	0.060853143177
1	8478	78.908605610553	0.014188438942
1	8483	78.922794049495	0.008380326163
1	8488	78.931174375658	0.03331067668
1	8493	78.964485052338	0.02116387278
1	8499	78.985648925118	0.052886382116
1	8504	79.038535307234	0.041960118018
1	8510	79.080495425252	0.071178330549
1	8515	79.151673755801	0.007246686211
1	8517	79.158920442012	0.018372933697
1	8525	79.177293375709	0.028583942981
1	8530	79.20587731869	0.034911222705
1	8535	79.240788541395	0.01780009554
1	8540	79.258588636935	0.033997049377
1	8545	79.292585686312	0.074695642291
1	8550	79.367281328603	0.002241625322
1	8552	79.369522953925	0.181428833426
1	8562	79.550951787351	0.014334349256
1	8567	79.565286136607	0.1798758443
1	8574	79.745161980907	0.005910176674
1	8576	79.751072157581	0.048322479788
1	8584	79.799394637369	0.074394017848
1	8590	79.873788655217	0.321357199148
1	8597	80.195145854365	0.007716809738
1	8599	80.202862664103	0.026412052351
1	8607	80.229274716454	0.066622175563
1	8612	80.295896892017	0.038789971181
1	8617	80.334686863198	0.099372053632
1	8623	80.43405891683	0.016422804396
1	8628	80.450481721226	0.055140540701
1	8633	80.505622261927	0.006097021445
1	8635	80.511719283372	0.000951861513
1	8637	80.512671144885	0.02576826533
1	8648	80.538439410215	0.147441483365
1	8654	80.68588089358	0.032149096378
1	8659	80.718029989958	0.046625941391
1	8664	80.764655931349	0.035636901138
1	8669	80.800292832487	0.028768845723
1	8674	80.82906167821	0.006803196167
1	8676	80.835864874377	0.007279398678
1	8681	80.843144273055	0.006425247419
1	8686	80.849569520474	0.004144223026
1	8691	80.8537137435	0.144373742406
1	8702	80.998087485906	0.00288593695
1	8704	81.000973422856	0.032801281772
1	8712	81.033774704628	0.048045370529
1	8717	81.081820075157	0.019601446464
1	8722	81.101421521621	0.0169684961
1	8727	81.118390017721	0.035239291102
1	8732	81.153629308823	0.030157784108
1	8737	81.183787092931	0.024871966115
1	8744	81.208659059046	0.081826958658
1	8750	81.290486017704	0.008912576268
1	8755	81.299398593972	0.004230423677
1	8757	81.303629017649	0.035535430702
1	8765	81.339164448351	0.083027211241
1	8770	81.422191659592	0.173025355006
1	8776	81.595217014598	0.10668669806
1	8782	81.701903712658	0.022851643075
1	8787	81.724755355733	0.008605787407
1	8792	81.73336114314	0.023071052165
1	8797	81.756432195305	0.011856104718
1	8802	81.768288300023	0.05192411649
1	8807	81.820212416513	0.266175520611
1	8815	82.086387937124	0.095029121223
1	8820	82.181417058347	0.059675812157
1	8825	82.241092870504	0.115795961772
1	8831	82.356888832276	0.01070197
1	8836	82.367590802276	0.085907541013
1	8841	82.453498343289	0.080467225269
1	8846	82.533965568558	0.064784842681
1	8852	82.598750411239	0.014501861503
1	8857	82.613252272742	0.068882545408
1	8863	82.68213481815	0.005789444349
1	8865	82.687924262499	0.005355725247
1	8870	82.693279987746	0.054763411293
1	8878	82.748043399039	0.063360666212
1	8883	82.811404065251	0.035901566941
1	8889	82.847305632192	0.01712496534
1	8894	82.864430597532	0.054665736026
1	8901	82.919096333558	0.052814171016
1	8906	82.971910504574	0.055265239937
1	8912	83.027175744511	0.035738043361
1	8917	83.062913787872	0.025506507582
1	8922	83.088420295454	0.046208565204
1	8927	83.134628860658	0.000931643656
1	8929	83.135560504314	0.058574612614
1	8937	83.194135116928	0.018336064809
1	8942	83.212471181737	0.087358338785
1	8947	83.299829520522	0.17718294694
1	8954	83.477012467462	0.060265832141
1	8959	83.537278299603	0.015814251259
1	8964	83.553092550862	0.013437666758
1	8970	83.56653021762	0.399197685983
1	8977	83.965727903603	0.06533909484
1	8982	84.031066998443	0.00381429898
1	8984	84.034881297423	0.075263206731
1	8993	84.110144504154	0.024332813579
1	8998	84.134477317733	0.014258458243
1	9003	84.148735775976	0.064538105437
1	9010	84.213273881413	0.143326877651
1	9016	84.356600759064	0.001556581633
1	9018	84.358157340697	0.04671407677
1	9026	84.404871417467	0.042608097399
1	9031	84.447479514866	0.010015704944
1	9036	84.45749521981	0.0044508295
1	9038	84.46194604931	0.023188226582
1	9047	84.485134275892	0.057255895148
1	9052	84.54239017104	0.01880063389
1	9058	84.56119080493	0.026755695621
1	9063	84.587946500551	0.020773096064
1	9068	84.608719596615	0.050044955761
1	9074	84.658764552376	0.014088845963
1	9079	84.672853398339	0.079664475433
1	9085	84.752517873772	0.040407270621
1	9090	84.792925144393	0.066558358505
1	9095	84.859483502898	0.070009169176
1	9100	84.929492672074	0.041979721818
1	9106	84.971472393892	0.026292203158
1	9111	84.99776459705	0.045884561004
1	9116	85.043649158054	0.002888909953
1	9118	85.046538068007	0.04060060236
1	9126	85.087138670367	0.069294677171
1	9131	85.156433347538	0.004003490882
1	9133	85.16043683842	0.166307265368
1	9143	85.326744103788	0.004117697211
1	9145	85.330861800999	0.002853530983
1	9147	85.333715331982	0.036158531719
1	9158	85.369873863701	0.047023517656
1	9163	85.416897381357	0.040094502495
1	9169	85.456991883852	0.014306680012
1	9174	85.471298563864	0.056686003419
1	9180	85.527984567283	0.084073309849
1	9185	85.612057877132	0.018836689989
1	9190	85.630894567121	0.103401298142
1	9195	85.734295865263	0.166734868952
1	9203	85.901030734215	0.085296996967
1	9209	85.986327731182	0.011290066785
1	9214	85.997617797967	0.092343764281
1	9222	86.089961562248	0.146326644168
1	9228	86.236288206416	0.168301888974
1	9233	86.40459009539	0.018140708919
1	9238	86.422730804309	0.078988898309
1	9243	86.501719702618	0.033436333174
1	9248	86.535156035792	0.018973356336
1	9254	86.554129392128	0.001601826618
1	9256	86.555731218746	0.023456279681
1	9264	86.579187498427	0.026733607113
1	9269	86.60592110554	0.005332731654
1	9271	86.611253837194	0.079445129076
1	9279	86.69069896627	0.031083788212
1	9284	86.721782754482	0.001551351042
1	9286	86.723334105524	0.102221334865
1	9297	86.825555440389	0.016361599566
1	9302	86.841917039955	0.149854621962
1	9308	86.991771661917	0.048756396032
1	9313	87.040528057949	0.012960746419
1	9318	87.053488804368	0.000469125791
1	9320	87.053957930159	0.11810801315
1	9328	87.172065943309	0.133794249199
1	9333	87.305860192508	0.017776488709
1	9338	87.323636681217	0.066938298494
1	9344	87.390574979711	0.029933472813
1	9349	87.420508452524	0.046801013175
1	9354	87.467309465699	0.006508616735
1	9356	87.473818082434	0.042699285645
1	9364	87.516517368079	0.02879402448
1	9369	87.545311392559	0.032821082281
1	9374	87.57813247484	0.071702781174
1	9379	87.649835256014	0.015642798571
1	9384	87.665478054585	0.004709658446
1	9386	87.670187713031	0.013312687255
1	9395	87.683500400286	0.108346343514
1	9402	87.7918467438	0.045713006709
1	9408	87.837559750509	0.077368654909
1	9413	87.914928405418	0.055079595647
1	9418	87.970008001065	0.00189094492
1	9420	87.971898945985	0.152079897369
1	9430	88.123978843354	0.017726112805
1	9435	88.141704956159	0.036938772808
1	9440	88.178643728967	0.01136040511
1	9445	88.190004134077	0.243625116707
1	9450	88.433629250784	0.154829254449
1	9455	88.588458505233	0.145442929301
1	9461	88.733901434534	0.018556824598
1	9466	88.752458259132	0.016473648083
1	9471	88.768931907215	0.009783031065
1	9476	88.77871493828	0.002397268756
1	9478	88.781112207036	0.018985692242
1	9486	88.800097899278	0.039994126324
1	9491	88.840092025602	0.029034748798
1	9496	88.8691267744	0.031427780246
1	9501	88.900554554646	0.052578760283
1	9506	88.953133314929	0.068961050697
1	9512	89.022094365626	0.028832457778
1	9517	89.050926823404	0.025956950163
1	9522	89.076883773567	0.039598872634
1	9527	89.116482646201	0.090827612801
1	9533	89.207310259002	0.03872856511
1	9538	89.246038824112	0.039344435398
1	9544	89.28538325951	0.110369215104
1	9551	89.395752474614	0.025590211171
1	9557	89.421342685785	0.003945989948
1	9559	89.425288675733	0.054954472518
1	9568	89.480243148251	0.047985567444
1	9573	89.528228715695	0.006344524551
1	9575	89.534573240246	0.026725338644
1	9583	89.56129857889	0.006553967707
1	9585	89.567852546597	0.045976035858
1	9594	89.613828582455	0.054606923798
1	9599	89.668435506253	0.026879454108
1	9604	89.695314960361	0.05197475233
1	9609	89.747289712691	0.04610385919
1	9616	89.793393571881	0.034309635004
1	9622	89.827703206885	0.017774819607
1	9627	89.845478026492	0.135959667038
1	9635	89.98143769353	0.079508980114
1	9640	90.060946673644	0.08249975018
1	9646	90.143446423824	0.030939416798
1	9651	90.174385840622	0.028097492638
1	9656	90.20248333326	0.013785037915
1	9661	90.216268371175	0.008702956205
1	9666	90.22497132738	0.030999056505
1	9671	90.255970383885	0.104929169821
1	9678	90.360899553706	0.063602707676
1	9684	90.424502261382	0.007547429665
1	9687	90.432049691047	0.043015730115
1	9695	90.475065421162	0.088328612095
1	9700	90.563394033257	0.000261842391
1	9702	90.563655875648	0.01655517789
1	9710	90.580211053538	0.105758816992
1	9715	90.68596987053	0.052720974576
1	9721	90.738690845106	0.049101385006
1	9727	90.787792230112	0.055105608399
1	9733	90.842897838511	0.09278892274
1	9738	90.935686761251	0.04540302559
1	9745	90.981089786841	0.08447118938
1	9750	91.065560976221	0.013985985945
1	9755	91.079546962166	0.052128349642
1	9760	91.131675311808	0.002719844466
1	9762	91.134395156274	0.025436870327
1	9770	91.159832026601	0.000552840878
1	9772	91.160384867479	0.151744858538
1	9782	91.312129726017	0.005775871176
1	9784	91.317905597193	0.058123855434
1	9792	91.376029452627	0.032338227855
1	9797	91.408367680482	0.020389580482
1	9802	91.428757260964	0.139153390231
1	9808	91.567910651195	0.011129453927
1	9813	91.579040105122	0.110628971581
1	9818	91.689669076703	0.011464254383
1	9823	91.701133331086	0.006237620827
1	9825	91.707370951913	0.135475327589
1	9833	91.842846279502	0.050495633752
1	9838	91.893341913254	0.036714901267
1	9843	91.930056814521	0.024041437244
1	9848	91.954098251765	0.023443125333
1	9853	91.977541377098	0.012239945715
1	9858	91.989781322813	0.04781421986
1	9863	92.037595542673	0.018208159453
1	9868	92.055803702126	0.078110876778
1	9874	92.133914578904	0.161941534666
1	9879	92.29585611357	0.072305957261
1	9884	92.368162070831	0.049405467337
1	9890	92.417567538168	0.187500352116
1	9896	92.605067890284	0.096750215409
1	9902	92.701818105693	0.030274868566
1	9907	92.732092974259	0.191043262721
1	9912	92.92313623698	0.091004492427
1	9917	93.014140729407	0.004179010753
1	9919	93.01831974016	0.016172498015
1	9927	93.034492238175	0.004375422437
1	9929	93.038867660612	0.026213378801
1	9938	93.065081039413	0.026220165263
1	9943	93.091301204676	0.058318616201
1	9948	93.149619820877	0.006020868913
1	9950	93.15564068979	0.004210119846
1	9955	93.159850809636	0.008050163346
1	9960	93.167900972982	0.025427149552
1	9968	93.193328122534	0.009066624996
1	9973	93.20239474753	0.266511713108
1	9981	93.468906460638	0.002322109393
1	9983	93.471228570031	0.029098652473
1	9991	93.500327222504	0.037713189668
1	9996	93.538040412172	0.038691813358
1	10001	93.57673222553	0.045780615522
1	10006	93.622512841052	0.054631511021
1	10012	93.677144352073	0.117011841528
1	10018	93.794156193601	0.013243122212
1	10023	93.807399315813	0.041654419527
1	10029	93.84905373534	0.085003773583
1	10034	93.934057508923	0.03312412994
1	10039	93.967181638863	0.198084964163
1	10044	94.165266603026	0.026250616165
1	10050	94.191517219191	0.063388405373
1	10055	94.254905624564	0.017171646822
1	10060	94.272077271386	0.000133118958
1	10062	94.272210390344	0.006754487189
1	10064	94.278964877533	0.018374885114
1	10075	94.297339762647	0.016452587237
1	10080	94.313792349884	0.033468295332
1	10086	94.347260645216	0.094887672332
1	10091	94.442148317548	0.010062287096
1	10096	94.452210604644	0.078894238929
1	10101	94.531104843573	0.062990453275
1	10108	94.594095296848	0.011122206947
1	10114	94.605217503795	0.002342112074
1	10116	94.607559615869	0.067318766054
1	10124	94.674878381923	0.025028385269
1	10130	94.699906767192	0.054663148895
1	10136	94.754569916087	0.025699307551
1	10141	94.780269223638	0.050383074877
1	10146	94.830652298515	0.025489632288
1	10151	94.856141930803	0.053331982468
1	10156	94.909473913271	0.111194877366
1	10163	95.020668790637	0.044411909094
1	10168	95.065080699731	0.023922899972
1	10173	95.089003599703	0.078142781119
1	10178	95.167146380822	0.001800288395
1	10180	95.168946669217	0.023803206359
1	10188	95.192749875576	0.02487002903
1	10194	95.217619904606	0.049778254489
1	10199	95.267398159095	0.129481286702
1	10205	95.396879445797	0.018507083742
1	10210	95.415386529539	0.042749695175
1	10215	95.458136224714	0.01328073729
1	10221	95.471416962004	0.001234045031
1	10223	95.472651007035	0.011089262234
1	10228	95.483740269269	0.054259085434
1	10237	95.537999354703	0.016228920604
1	10242	95.554228275307	0.017757119833
1	10247	95.57198539514	0.02173118776
1	10252	95.5937165829	0.022617987801
1	10257	95.616334570701	0.034703289128
1	10262	95.651037859829	0.013262413324
1	10267	95.664300273153	0.155946773944
1	10272	95.820247047097	0.055874566217
1	10278	95.876121613314	0.041274602379
1	10283	95.917396215693	0.037015203221
1	10288	95.954411418914	0.050291332112
1	10293	96.004702751026	0.037477040915
1	10299	96.042179791941	0.006353259958
1	10301	96.048533051899	0.137401246906
1	10310	96.185934298805	0.034610881144
1	10316	96.220545179949	0.00544998004
1	10318	96.225995159989	0.004057407872
1	10323	96.230052567861	0.004064842321
1	10325	96.234117410182	0.000293848481
1	10327	96.234411258663	0.006812407129
1	10332	96.241223665792	0.002663769805
1	10337	96.243887435597	0.013448555697
1	10345	96.257335991294	0.200612087708
1	10360	96.457948079002	0.044598707346
1	10365	96.502546786348	0.083435394686
1	10372	96.585982181034	0.008498135491
1	10377	96.594480316525	0.001762528681
1	10379	96.596242845206	0.030554456048
1	10388	96.626797301254	0.179256494848
1	10395	96.806053796102	0.044751259166
1	10401	96.850805055268	0.009919288971
1	10406	96.860724344239	0.131694804493
1	10411	96.992419148732	0.106581573158
1	10417	97.09900072189	0.00895291259
1	10422	97.10795363448	0.024692289487
1	10427	97.132645923967	0.018147877372
1	10432	97.150793801339	0.066386785805
1	10437	97.217180587144	0.005430071993
1	10439	97.222610659137	0.018128778351
1	10447	97.240739437488	0.014143557321
1	10452	97.254882994809	0.038539501607
1	10457	97.293422496416	0.071992279025
1	10462	97.365414775441	0.015362086097
1	10467	97.380776861538	0.020229435455
1	10472	97.401006296993	0.040520102788
1	10477	97.441526399781	0.028019729666
1	10482	97.469546129447	0.229891601017
1	10490	97.699437730464	0.019540645395
1	10495	97.718978375859	0.006032642706
1	10497	97.725011018565	0.084346268275
1	10506	97.80935728684	0.0098728265
1	10511	97.81923011334	0.008068200069
1	10516	97.827298313409	0.176161305505
1	10521	98.003459618914	0.02176257728
1	10526	98.025222196194	0.001770464809
1	10528	98.026992661003	0.170173804623
1	10537	98.197166465626	0.050079527794
1	10542	98.24724599342	0.027735204022
1	10547	98.274981197442	0.02655986318
1	10553	98.301541060622	0.035125389682
1	10559	98.336666450304	0.041100710303
1	10564	98.377767160607	0.073598930062
1	10571	98.451366090669	0.02179758392
1	10576	98.473163674589	0.155947876636
1	10582	98.629111551225	0.183580887116
1	10588	98.812692438341	0.016984978044
1	10593	98.829677416385	0.090930494864
1	10600	98.920607911249	0.009131625674
1	10605	98.929739536923	0.017371591066
1	10610	98.947111127989	0.058871284461
1	10617	99.00598241245	0.051459753561
1	10622	99.057442166011	0.165665261335
1	10629	99.223107427346	0.058036115028
1	10634	99.281143542374	0.016846849027
1	10639	99.297990391401	0.051731038345
1	10644	99.349721429746	0.099974414369
1	10650	99.449695844115	0.306799865015
1	10656	99.75649570913	0.041662516517
1	10662	99.798158225647	0.022180961008
1	10667	99.820339186655	0.112578415789
1	10672	99.932917602444	0.007422201829
1	10674	99.940339804273	0.018019838657
1	10682	99.95835964293	0.005190927384
1	10684	99.963550570314	0.037038903122
1	10692	100.000589473436	0.059648252656
1	10697	100.060237726092	0.061246588309
1	10702	100.121484314401	0.033170683996
1	10707	100.154654998397	0.012115506616
1	10713	100.166770505013	0.007527583055
1	10715	100.174298088068	0.057836082263
1	10723	100.232134170331	0.091166202134
1	10728	100.323300372465	0.069685996291
1	10734	100.392986368756	0.13646109273
1	10739	100.529447461486	0.021271547088
1	10744	100.550719008574	0.089089147263
1	10750	100.639808155837	0.011030922096
1	10755	100.650839077933	0.064213033866
1	10761	100.715052111799	0.042601568289
1	10767	100.757653680088	0.069651547136
1	10775	100.827305227224	0.061808995462
1	10781	100.889114222686	0.003652007881
1	10783	100.892766230567	0.000661189442
1	10785	100.893427420009	0.06750793191
1	10796	100.960935351919	0.063248950091
1	10801	101.02418430201	0.025241235044
1	10806	101.049425537054	0.060606465449
1	10811	101.110032002503	0.007364678325
1	10813	101.117396680828	0.078666599918
1	10823	101.196063280746	0.06927258983
1	10828	101.265335870576	0.001403352282
1	10830	101.266739222858	0.032887866582
1	10838	101.29962708944	0.075307513328
1	10844	101.374934602768	0.032214950774
1	10849	101.407149553542	0.043944099943
1	10854	101.451093653485	0.011796629346
1	10859	101.462890282831	0.041346813118
1	10864	101.504237095949	0.04415667832
1	10869	101.548393774269	0.038113242033
1	10874	101.586507016302	0.040163684468
1	10880	101.62667070077	0.228074420773
1	10887	101.854745121543	0.040128339422
1	10893	101.894873460965	0.01985308118
1	10898	101.914726542145	0.063173262295
1	10903	101.97789980444	0.06574417603
1	10908	102.04364398047	0.103437050533
1	10914	102.147081031003	0.146384337713
1	10920	102.293465368716	0.043148471731
1	10925	102.336613840447	0.051387970139
1	10931	102.388001810586	0.039527116265
1	10936	102.427528926851	0.161372059032
1	10942	102.588900985883	0.006711525057
1	10944	102.59561251094	0.007618149714
1	10949	102.603230660654	0.09491207312
1	10959	102.698142733774	0.043266311735
1	10965	102.741409045509	0.118854788501
1	10972	102.86026383401	0.002189995543
1	10974	102.862453829553	0.001302713341
1	10976	102.863756542894	0.006923432396
1	10981	102.87067997529	0.063193411479
1	10992	102.933873386769	0.031615232694
1	10997	102.965488619463	0.032993882522
1	11002	102.998482501985	0.093208994162
1	11007	103.091691496147	0.001966307434
1	11009	103.093657803581	0.144414295363
1	11017	103.238072098944	0.026360146278
1	11023	103.264432245222	0.040871048495
1	11029	103.305303293717	0.008895739623
1	11034	103.31419903334	0.014733042563
1	11039	103.328932075903	0.025257666421
1	11044	103.354189742324	0.010141109454
1	11049	103.364330851778	0.014965730024
1	11054	103.379296581802	0.075135707373
1	11059	103.454432289175	0.050518599209
[...]
19	26057	242.252304284569	0.9625736111475
19	26153	243.214877895716	1.0698538525757
19	26270	244.284731748292	2.9559637722159
19	26606	247.240695520508	1.8277227679119
19	26796	249.06841828842	8.3478198714638
19	27692	257.416238159884	7.4204300834128
19	28565	264.836668243297	2.1963919643535
19	28819	267.03306020765	0.40336184682595
19	28850	267.436422054476	0.31277759245604
19	28867	267.749199646932	0.67409887920373
19	28930	268.423298526136	0.12315743504502
19	28936	268.546455961181	3.3289482872694
19	29233	271.87540424845	0.86720086671791
19	29326	272.742605115168	3.9394574609384
19	29800	276.682062576106	0.65668772004847
19	29830	277.338750296154	0.67328135744979
19	29937	278.012031653604	3.2109058241923
19	30298	281.222937477796	2.5849258352324
19	30536	283.807863313028	0.08421984944518
19	30542	283.892083162473	0.38167005220127
19	30594	284.273753214674	2.5158174640429
19	30870	286.789570678717	1.9617623809903
19	31070	288.751333059707	8.6318707906775
19	31963	297.383203850385	0.056585673514666
19	31969	297.4397895239	2.0814720864118
19	32186	299.521261610312	0.64089545652677
19	32252	300.162157066839	4.198161838141
19	32699	304.36031890498	2.193315082127
19	32954	306.553633987107	3.1596488110049
19	33277	309.713282798112	1.5299777967683
19	33428	311.24326059488	3.1345718959447
19	33768	314.377832490825	0.36473055234665
19	33788	314.742563043172	0.088029343214515
19	33794	314.830592386387	6.8092738249843
19	34560	321.639866211371	0.66344378624687
19	34641	322.303309997618	0.3179399834987
19	34696	322.621249981117	0.17461369314203
19	34717	322.795863674259	1.8365224326598
19	34904	324.632386106919	2.7335650982967
19	35207	327.365951205216	2.6013791063291
19	35461	329.967330311545	2.4862026926209
19	35682	332.453533004166	3.2741649948645
19	36011	335.727697999031	1.1056770375451
19	36140	336.833375036576	1.2757375656912
19	36246	338.109112602267	1.9648115662698
19	36441	340.073924168537	5.5321825185431
19	37062	345.60610668708	2.7422121077846
19	37344	348.348318794865	5.4925331239226
19	37907	353.840851918788	1.9171726284662
19	38107	355.758024547254	3.1599023680382
19	38409	358.917926915292	2.7306721078949
19	38717	361.648599023187	6.3941591264333
19	39406	368.04275814962	3.0548500525911
19	39766	371.097608202211	0.54392645233995
19	39833	371.641534654551	0.11148682922444
19	39839	371.753021483775	0.17736132847266
19	39853	371.930382812248	5.0325201987571
19	40404	376.962903011005	0.045267840044104
19	40405	377.008170851049	0.59938009609159
19	40489	377.607550947141	1.7782065214076
19	40642	379.385757468549	0.73372283147553
19	40733	380.119480300025	3.0249154577455
19	41133	383.144395757771	1.9645156940993
19	41390	385.10891145187	1.7899018393472
19	41576	386.898813291217	1.2740299162167
19	41661	388.172843207434	0.92324775177192
19	41793	389.096090959206	1.6831177201232
19	41963	390.779208679329	0.51894428060852
19	42046	391.298152959938	0.78253725054888
19	42106	392.080690210487	0.71526699142686
19	42161	392.795957201914	2.0410550198966
19	42409	394.837012221811	0.1260137372808
19	42449	394.963025959092	2.4429196205853
19	42670	397.405945579677	2.1053975319066
19	42903	399.511343111584	0.95353923667241
20	1853	16.211122573566	0.30793687041996
20	1871	16.519059443986	2.1042281493502
20	2142	18.623287593336	0.41928840935168
20	2192	19.042576002688	7.0140779251631
20	2909	26.056653927851	2.0670980622431
20	3151	28.123751990094	0.11212136202581
20	3176	28.23587335212	2.4503563104901
20	3388	30.68622966261	1.1998404101897
20	3525	31.8860700728	2.2748872826326
20	3753	34.160957355433	5.768119960249
20	4364	39.929077315682	0.29954188602035
20	4383	40.228619201702	5.1331838210541
20	4861	45.361803022756	0.54693813292476
20	4925	45.908741155681	0.29171820110714
20	4960	46.200459356788	0.19763183772437
20	4982	46.398091194512	0.10535766008465
20	4993	46.503448854597	0.355685267556
20	5029	46.859134122153	0.2749068119144
20	5074	47.134040934067	0.92443455350197
20	5189	48.058475487569	1.6862022490488
20	5348	49.744677736618	0.25456819128538
20	5388	49.999245927903	0.063361935721631
20	5389	50.062607863625	0.92865410448643
20	5480	50.991261968111	1.2490912648861
20	5618	52.240353232997	3.9449123058952
20	6015	56.185265538892	0.045751143926983
20	6019	56.231016682819	1.7963055382942
20	6161	58.027322221113	2.7116608109691
20	6455	60.738983032082	2.2685820001826
20	6690	63.007565032265	0.96935133355185
20	6813	63.976916365817	3.4929736004149
20	7194	67.469889966232	0.97315201161227
20	7324	68.443041977844	0.38551306749695
20	7352	68.828555045341	3.3950493220155
20	7761	72.223604367357	0.4275020973635
20	7804	72.65110646472	1.0277998788966
20	7944	73.678906343617	0.1521005221959
20	7959	73.831006865813	1.9664049394037
20	8175	75.797411805217	0.041203180745227
20	8181	75.838614985962	0.076784249944297
20	8187	75.915399235906	1.6964579341954
20	8343	77.611857170101	6.6853408166155
20	9015	84.297197986716	1.1319405692465
20	9168	85.429138555962	2.3459503197309
20	9400	87.775088875693	0.22004451719246
20	9428	87.995133392885	1.3571555534056
20	9549	89.352288946291	0.25326970188179
20	9593	89.605558648173	0.17543118125384
20	9615	89.780989829427	4.0551422941059
20	10028	93.836132123533	1.6906879694701
20	10236	95.526820093003	6.8226384936657
20	10930	102.349458586669	0.33681053265537
20	10958	102.686269119324	3.8897885071089
20	11369	106.576057626433	2.5097187241253
20	11618	109.085776350558	2.5407453903276
20	11865	111.626521740886	1.7046081703858
20	12052	113.331129911272	2.2052457484039
20	12369	115.536375659676	0.45773687629292
20	12450	115.994112535969	0.3469268327073
20	12493	116.341039368676	0.25574944007814
20	12533	116.596788808754	1.1521688393114
20	12629	117.748957648065	2.861199058131
20	12944	120.610156706196	0.46340334615241
20	12996	121.073560052348	0.41505471460651
20	13061	121.488614766955	2.8757670546415
20	13331	124.364381821596	11.50896927027
20	14593	135.873351091866	1.1634483752502
20	14749	137.036799467116	6.0838913507162
20	15387	143.120690817832	0.59937111590186
20	15462	143.720061933734	6.8685014481935
20	16195	150.588563381928	0.50864187444831
20	16266	151.097205256376	2.8106326037933
20	16483	153.907837860169	0.59831703723287
20	16546	154.506154897402	3.252405163495
20	16914	157.758560060897	1.5261453368366
20	17115	159.284705397734	0.10610538310149
20	17128	159.390810780835	0.049891229743423
20	17142	159.440702010578	1.1321256116948
20	17295	160.572827622273	0.92900492256547
20	17410	161.501832544838	3.7806319339327
20	17858	165.282464478771	0.1482394823345
20	17873	165.430703961106	1.376642634636
20	18056	166.807346595742	4.1505332264595
20	18518	170.957879822202	0.39953308134826
20	18527	171.35741290355	0.44595282580781
20	18590	171.803365729358	0.17406939481897
20	18622	171.977435124177	5.8966975137866
20	19184	177.874132637964	0.67766084632315
20	19273	178.551793484287	2.6593654313289
20	19591	181.211158915616	1.8394601410823
20	19769	183.050619056698	0.014360560599247
20	19770	183.064979617297	0.5934892716744
20	19842	183.658468888971	2.7384653029971
20	20113	186.396934191968	1.9283779526025
20	20356	188.32531214457	1.1981405538974
20	20505	189.523452698467	2.4398195524374
20	20802	191.963272250904	0.63553648425316
20	20834	192.598808735157	1.0764274783512
20	20959	193.675236213508	2.0633633315619
20	21210	195.73859954507	1.188338126585
20	21335	196.926937671655	0.32254767092239
20	21358	197.249485342577	3.1144212647781
20	21701	200.363906607355	2.7896492400176
20	21963	203.153555847373	4.2833668898896
20	22368	207.436922737263	5.194464192281
20	22911	212.631386929544	1.3159320188692
20	23030	213.947318948413	1.2584025912973
20	23184	215.20572153971	6.1788110347338
20	23840	221.384532574444	2.079629335764
20	24023	223.464161910208	2.1032136667948
20	24219	225.567375577003	3.2744868625019
20	24562	228.841862439505	2.1173499132208
20	24784	230.959212352726	0.27291832115915
20	24811	231.232130673885	0.81128266275818
20	24901	232.043413336643	0.42674233414988
20	24961	232.470155670793	1.6878204651903
20	25148	234.157976135983	3.6135448385005
20	25539	237.771520974484	1.4227572162424
20	25657	239.194278190726	1.1167845007485
20	25822	240.311062691475	0.53825622072209
20	25898	240.849318912197	1.6889893137532
20	26084	242.53830822595	5.7757245760471
20	26721	248.314032801997	4.0359601861249
20	27168	252.349992988122	0.32686389262584
20	27212	252.676856880748	3.5376814455678
20	27613	256.214538326316	4.5077786238234
20	28056	260.722316950139	1.1615783527861
20	28228	261.883895302925	0.45298932021633
20	28272	262.336884623141	6.2982803608379
20	28947	268.635164983979	0.63877981241647
20	28996	269.273944796395	2.1975972817208
20	29160	271.471542078116	5.1551799570457
20	29798	276.626722035162	0.76499770401927
20	29831	277.391719739181	1.9857413829198
20	30104	279.377461122101	0.41299262184196
20	30132	279.790453743943	0.77786293123075
20	30234	280.568316675174	0.9534155838383
20	30333	281.521732259012	0.92923205036749
20	30416	282.450964309379	4.0527034502005
20	30839	286.50366775958	0.48313523475801
20	30903	286.986802994338	0.70909835440811
20	30977	287.695901348746	0.5708337117292
20	31031	288.266735060475	1.1042449813778
20	31127	289.370980041853	5.7618602456797
20	31739	295.132840287533	0.77513898129674
20	31838	295.90797926883	0.35649344514805
20	31864	296.264472713978	1.4266222941066
20	31986	297.691095008085	1.7748169430503
20	32180	299.465911951135	2.2056664934625
20	32427	301.671578444598	0.15859140469159
20	32439	301.83016984929	3.3678266861029
20	32838	305.197996535393	0.6920302401233
20	32895	305.890026775516	3.1357439072408
20	33213	309.025770682757	2.4656098839942
20	33455	311.491380566751	4.9429814737759
20	33966	316.434362040527	7.3532028553695
20	34822	323.787564895896	0.82540376195664
20	34901	324.612968657853	0.94180553640543
20	34990	325.554774194258	1.0158445067891
20	35124	326.570618701047	0.29527792501286
20	35177	326.86589662606	0.71854597135395
20	35235	327.584442597414	2.9002856819728
20	35500	330.484728279387	0.47638952420039
20	35537	330.961117803587	5.1322976964111
20	36032	336.093415499998	0.94515085976589
20	36153	337.038566359764	0.55082826252572
20	36185	337.58939462229	1.6054499851624
20	36345	339.194844607452	2.3528107330285
20	36614	341.547655340481	0.65145919259022
20	36654	342.199114533071	1.2095265324894
20	36788	343.40864106556	1.5772401435797
20	37002	344.98588120914	1.161103062541
20	37151	346.146984271681	0.42218590039333
20	37184	346.569170172074	4.3280176594317
20	37557	350.897187831506	4.3092223623088
20	38038	355.206410193815	2.7468806199373
20	38302	357.953290813752	1.9569531315578
20	38526	359.91024394531	0.25762668265819
20	38562	360.167870627968	1.3827917055779
20	38710	361.550662333546	0.93114276765566
20	38849	362.481805101202	2.3612019246621
20	39049	364.843007025864	5.2263758709672
20	39651	370.069382896831	2.8691429080992
20	39971	372.93852580493	1.1275003010233
20	40134	374.066026105953	2.1333206354063
20	40331	376.199346741359	1.9548146319459
20	40542	378.154161373305	0.52013262537425
20	40561	378.674293998679	0.50461345067191
20	40617	379.178907449351	2.2159934267182
20	40924	381.394900876069	5.3152786508134
20	41564	386.710179526882	1.7666647385463
20	41702	388.476844265428	1.5459858019512
20	41906	390.022830067379	1.3799275985687
20	42047	391.402757665948	2.264519054152
20	42296	393.6672767201	0.42962802725173
20	42345	394.096904747352	4.7076356580671
20	42808	398.804540405419	1.203810608777
21	2098	18.067774207811	0.72488980647961
21	2158	18.792664014291	3.7106141429419
21	2574	22.503278157233	1.2496917571699
21	2695	23.752969914403	2.0804638073179
21	2881	25.833433721721	0.66977234351027
21	2991	26.503206065231	0.32302960302916
21	3031	26.82623566826	2.5011591591123
21	3259	29.327394827372	1.5107688183246
21	3400	30.838163645697	5.7652792262786
21	4020	36.603442871976	1.61627302737
21	4208	38.219715899346	0.12785518558728
21	4223	38.347571084933	0.37452195326341
21	4286	38.722093038196	0.35573897702069
21	4307	39.077832015217	1.6250503012617
21	4422	40.702882316479	1.8485530714073
21	4569	42.551435387886	1.1500913839738
21	4716	43.70152677186	0.34324013077263
21	4728	44.044766902633	0.3445725047935
21	4764	44.389339407427	0.79274915700472
21	4860	45.182088564432	2.3979778986045
21	5133	47.580066463036	0.78542057675981
21	5214	48.365487039796	0.81710199865975
21	5273	49.182589038456	0.88031064528614
21	5390	50.062899683742	1.0671032664462
21	5494	51.130002950188	0.38272554320682
21	5536	51.512728493395	1.6794384561189
21	5724	53.192166949514	0.79882917510741
21	5789	53.990996124621	7.8998709427553
21	6598	61.890867067376	0.56696705453421
21	6635	62.45783412191	0.053720164629876
21	6646	62.51155428654	2.4704405596538
21	6902	64.981994846194	2.0828962320232
21	7137	67.064891078217	2.9511922347434
21	7503	70.01608331296	0.67902309457011
21	7603	70.69510640753	0.47972426411581
21	7658	71.174830671646	0.099489307178625
21	7677	71.274319978825	6.0837151867553
21	8315	77.35803516558	5.4567870936974
21	8885	82.814822259277	0.82213731843264
21	8975	83.63695957771	5.0135547412312
21	9460	88.650514318941	0.71026458941192
21	9550	89.360778908353	0.40964136847141
21	9614	89.770420276824	4.8126393227979
21	10107	94.583059599622	4.3365552758615
21	10599	98.919614875484	0.14488694113526
21	10624	99.064501816619	0.71460327474749
21	10661	99.779105091366	3.0657831299632
21	10971	102.844888221329	2.7068549548951
21	11224	105.551743176224	3.0053536504412
21	11575	108.557096826665	1.8056973380965
21	11759	110.362794164762	2.4292036861436
21	12007	112.791997850906	1.5212199758345
21	12186	114.313217826741	0.11098292306664
21	12200	114.424200749808	1.7505880934855
21	12472	116.174788843293	0.79401190249209
21	12557	116.968800745785	7.4142335356413
21	13332	124.383034281426	3.7106803468476
21	13784	128.093714628274	0.36318046684046
21	13800	128.456895095114	0.66157203654439
21	13873	129.118467131658	1.0637985613528
21	14042	130.182265693011	0.76572406525327
21	14106	130.947989758264	0.80571429581181
21	14193	131.753704054076	1.7427719710768
21	14347	133.496476025153	3.9549624105131
21	14810	137.451438435666	0.21006785576502
21	14829	137.661506291431	1.4525709614647
21	14948	139.114077252896	0.36614047698781
21	14981	139.480217729884	0.8075540119776
21	15061	140.287771741862	0.21330004659648
21	15098	140.501071788458	2.9861253336745
21	15445	143.487197122132	0.16554457064362
21	15456	143.652741692776	0.18659193856812
21	15473	143.839333631344	1.3899626143201
21	15629	145.229296245664	0.98578151876626
21	15764	146.21507776443	2.7098490063126
21	16039	148.924926770743	0.037642546024253
21	16040	148.962569316767	0.88083357275546
21	16116	149.843402889522	1.4587250720858
21	16288	151.302127961608	1.9855097254353
21	16435	153.287637687043	5.4470635894998
21	17076	158.734701276543	7.5677782508963
21	17976	166.302479527439	0.61187958637043
21	18063	166.914359113809	2.382930603237
21	18359	169.297289717046	8.7690317993261
21	19204	178.066321516372	3.4891205602951
21	19619	181.555442076667	0.1808945237589
21	19634	181.736336600426	1.1826217438547
21	19753	182.918958344281	2.2448257732817
21	19984	185.163784117563	1.5130297013351
21	20142	186.676813818898	0.35334462677721
21	20202	187.030158445675	0.103855774394
21	20226	187.134014220069	4.2294099661038
21	20735	191.363424186173	0.1266467378783
21	20743	191.490070924051	6.3741427095593
21	21449	197.86421363361	1.1350194638985
21	21562	198.999233097509	0.07518754142666
21	21569	199.074420638936	1.4916392223475
21	21713	200.566059861284	1.2136858471816
21	21848	201.779745708466	3.3324425225673
21	22103	205.112188231033	0.9972338110345
21	22222	206.109422042067	2.816274702251
21	22519	208.925696744318	0.59422271289515
21	22571	209.519919457213	1.5839118277485
21	22745	211.103831284962	1.2582408762276
21	22874	212.36207216119	0.39031050623171
21	22937	212.752382667422	0.17319129709108
21	22944	212.925573964513	1.6123844242624
21	23125	214.537958388775	3.381047603625
21	23449	217.9190059924	0.093804301950578
21	23460	218.012810294351	0.44898693577982
21	23496	218.461797230131	0.47162065516437
21	23558	218.933417885295	1.172358790218
21	23707	220.105776675513	0.12153933998785
21	23709	220.227316015501	0.86907466515028
21	23814	221.096390680651	5.1639312744003
21	24295	226.260321955051	4.8985247731736
21	24795	231.158846728225	0.75513720682907
21	24882	231.913983935054	0.35661851829114
21	24942	232.270602453345	0.81100352195959
21	25014	233.081605975305	0.11772840468682
21	25026	233.199334379992	4.7944787126073
21	25552	237.993813092599	0.68507039163915
21	25621	238.678883484238	1.0251533013061
21	25729	239.704036785544	1.5889718087341
21	25953	241.293008594278	0.61743375512879
21	26027	241.910442349407	1.533530288733
21	26185	243.44397263814	1.259013046055
21	26340	244.702985684195	1.3214467619623
21	26509	246.024432446157	4.0287073571326
21	26922	250.05313980329	2.5785133164712
21	27208	252.631653119761	1.0573419672445
21	27345	253.688995087006	0.53267167944848
21	27389	254.221666766454	6.1148247020071
21	28000	260.336491468461	0.05904854558725
21	28003	260.395540014048	1.8571519684027
21	28261	262.252691982451	5.0638012687766
21	28836	267.316493251228	1.8493937324057
21	28970	269.165886983634	0.48284734075722
21	29015	269.648734324391	0.29092299052444
21	29039	269.939657314915	1.0500491393922
21	29135	270.989706454307	0.7613368532698
21	29199	271.751043307577	1.1712944737415
21	29331	272.922337781319	2.4587873585481
21	29669	275.381125139867	1.9412256023395
21	29826	277.322350742206	0.38037429508434
21	29872	277.70272503729	1.0841061220861
21	30035	278.786831159376	3.9551122197243
21	30452	282.7419433791	2.6314219195238
21	30715	285.373365298624	0.66953411407513
21	30758	286.042899412699	5.6398651214083
21	31313	291.682764534107	2.1088918940439
21	31555	293.791656428151	2.0286965679855
21	31823	295.820352996137	0.45776089849945
21	31865	296.278113894636	1.3960583926744
21	31985	297.67417228731	1.5290144631188
21	32147	299.203186750429	1.6489143010011
21	32339	300.85210105143	2.6741216258633
21	32619	303.526222677293	6.3161094712825
21	33291	309.842332148575	0.12827209454279
21	33297	309.970604243118	0.35965288201921
21	33328	310.330257125137	3.0941231856032
21	33696	313.42438031074	0.42786283760621
21	33746	313.852243148346	0.2794892040186
21	33760	314.131732352365	0.52785898418343
21	33785	314.659591336548	1.2584622280886
21	33911	315.918053564637	0.76405930383615
21	33984	316.682112868473	2.1371088644399
21	34198	318.819221732913	0.79794933393264
21	34268	319.617171066846	2.4656702809195
21	34611	322.082841347765	0.96854995465458
21	34756	323.05139130242	3.7037847017201
21	35167	326.75517600414	0.71099870583779
21	35218	327.466174709978	4.1569362296669
21	35594	331.623110939645	1.7033282276891
21	35778	333.326439167334	1.9228667752238
21	35970	335.249305942558	1.5509292024993
21	36138	336.800235145057	0.12543947009024
21	36147	336.925674615147	1.042591833258
21	36229	337.968266448405	5.8316738772415
21	36822	343.799940325646	2.3909678394762
21	37152	346.190908165122	0.96071037959563
21	37250	347.151618544718	1.0223563337881
21	37326	348.173974878506	6.7880679193776
21	38012	354.962042797884	1.2854321955333
21	38159	356.247474993417	2.5246765093416
21	38380	358.772151502759	2.1613792370525
21	38671	360.933530739812	5.7370591558983
21	39254	366.67058989571	0.76781598606665
21	39336	367.438405881777	5.1578795748643
21	39919	372.596285456641	2.9371628967806
21	40260	375.533448353422	2.7498870521805
21	40547	378.283335405603	0.32146107204125
21	40560	378.604796477644	3.8047391260464
21	41049	382.40953560369	0.10547110056024
21	41055	382.51500670425	1.0707772939166
21	41187	383.585783998167	3.018651465401
21	41555	386.604435463568	1.7894820189146
21	41695	388.393917482483	0.45423219262624
21	41777	388.848149675109	2.9255916535964
21	42070	391.773741328705	1.8560546614177
21	42285	393.629795990123	1.0502442699581
21	42396	394.680040260081	0.32208728959381
21	42450	395.002127549675	3.8062177930978
21	42809	398.808345342773	0.055254757466
21	42815	398.863600100239	0.72621032818935
21	42904	399.589810428428	1.4023395635012

