version 2
run Nonmonitoring-exponential-555-20210224-17:49:32-27080
attr configname Nonmonitoring-exponential
attr datetime 20210224-17:49:32
attr experiment Nonmonitoring-exponential
attr inifile aerocom.ini
attr iterationvars $0=50
attr iterationvarsf 50-
attr measurement $0=50
attr network Aerocom
attr processid 27080
attr repetition 55
attr replication #55
attr resultdir results
attr runnumber 555
attr seedset 55
param **.t 2s
param **.k 50ms
param **.X 0.05s
param **.m 1s
param **.tDistribution "\"exponential\""
param **.operationMode 1
param **.s "70 byte"
param **.dimPoolMax 10000
param **.dimPoolMin 8000
param **.nDL 16
param **.nA 1
param **.DLMaxCapacity 0
param **.trasmitting false

vector 0 Aerocom.aircraft[0].dataLink[14] tDistribution:vector ETV
attr "" ""
attr source computeTDistribution
vector 1 Aerocom.aircraft[0].packetGenerator arrivalTime:vector ETV
attr "" ""
attr source computeArrivalTime
vector 2 Aerocom.aircraft[0].linkSelector waitingTime:vector ETV
attr "" ""
attr source computeWaitingTime
vector 3 Aerocom.aircraft[0].linkSelector queueLength:vector ETV
attr "" ""
attr source computeQueueLength
vector 4 Aerocom.aircraft[0].dataLink[11] actualCapacity:vector ETV
attr "" ""
attr source computeActualCapacity
vector 5 Aerocom.aircraft[0].linkSelector serviceTime:vector ETV
attr "" ""
attr source computeServiceTime
vector 6 Aerocom.aircraft[0].linkSelector responseTime:vector ETV
attr "" ""
attr source computeResponseTime
vector 7 Aerocom.aircraft[0].dataLink[2] tDistribution:vector ETV
attr "" ""
attr source computeTDistribution
vector 8 Aerocom.aircraft[0].dataLink[11] tDistribution:vector ETV
attr "" ""
attr source computeTDistribution
vector 9 Aerocom.aircraft[0].dataLink[1] tDistribution:vector ETV
attr "" ""
attr source computeTDistribution
vector 10 Aerocom.aircraft[0].dataLink[0] tDistribution:vector ETV
attr "" ""
attr source computeTDistribution
vector 11 Aerocom.aircraft[0].dataLink[9] tDistribution:vector ETV
attr "" ""
attr source computeTDistribution
vector 12 Aerocom.aircraft[0].dataLink[12] tDistribution:vector ETV
attr "" ""
attr source computeTDistribution
vector 13 Aerocom.aircraft[0].dataLink[15] tDistribution:vector ETV
attr "" ""
attr source computeTDistribution
vector 14 Aerocom.aircraft[0].dataLink[4] tDistribution:vector ETV
attr "" ""
attr source computeTDistribution
vector 15 Aerocom.aircraft[0].dataLink[6] tDistribution:vector ETV
attr "" ""
attr source computeTDistribution
vector 16 Aerocom.aircraft[0].dataLink[5] tDistribution:vector ETV
attr "" ""
attr source computeTDistribution
vector 17 Aerocom.aircraft[0].dataLink[10] tDistribution:vector ETV
attr "" ""
attr source computeTDistribution
vector 18 Aerocom.aircraft[0].dataLink[3] tDistribution:vector ETV
attr "" ""
attr source computeTDistribution
vector 19 Aerocom.aircraft[0].dataLink[8] tDistribution:vector ETV
attr "" ""
attr source computeTDistribution
vector 20 Aerocom.aircraft[0].dataLink[7] tDistribution:vector ETV
attr "" ""
attr source computeTDistribution
vector 21 Aerocom.aircraft[0].dataLink[13] tDistribution:vector ETV
attr "" ""
attr source computeTDistribution
0	1184	10.075959853493	0.67218865195044
0	1253	10.748148505443	4.2803585151949
0	1743	15.028507020638	0.81527588300634
0	1868	15.843782903644	1.1511022843142
0	2003	16.994885187958	3.9931979805454
0	2396	20.988083168503	2.4308178511598
0	2668	23.418901019663	1.5925661625581
0	2821	25.011467182221	0.13930348833619
0	2845	25.150770670557	7.3042511845736
0	3580	32.455021855131	1.118401283012
0	3684	33.573423138143	2.7990232582253
0	4001	36.372446396368	3.5536120305183
0	4387	39.926058426886	4.7863538132834
0	4857	44.712412240169	1.6267497854303
0	5053	46.339162025599	1.0733392452207
0	5174	47.41250127082	4.5084035337677
0	5650	51.920904804588	0.2123152460652
0	5662	52.133220050653	5.0480100409853
0	6208	57.181230091638	1.1566984309316
0	6359	58.33792852257	3.1309903779216
0	6616	61.468918900492	8.6790757971758
0	7565	70.147994697668	0.38768160909635
0	7621	70.535676306764	1.58044204707
0	7728	72.116118353834	3.2958511407679
0	8097	75.411969494602	0.63779281205703
0	8138	76.049762306659	1.010789809416
0	8232	77.060552116075	0.13786808144462
0	8254	77.19842019752	1.1933719492404
0	8345	78.39179214676	1.2071178608612
0	8465	79.598910007621	2.201683086329
0	8742	81.80059309395	6.0664623347222
0	9317	87.867055428672	0.45767812514175
0	9363	88.324733553814	1.7707078506189
0	9621	90.095441404433	7.5946984796555
0	10525	97.690139884089	3.3843178754464
0	10891	101.074457759535	0.072885762271641
0	10904	101.147343521807	4.2118654197591
0	11373	105.359208941566	1.3376319994055
0	11532	106.696840940972	2.4065501669061
0	11845	109.103391107878	0.78007348746529
0	11996	109.883464595343	6.0939271910807
0	12680	115.977391786424	0.46337181905927
0	12735	116.440763605483	0.97013127067141
0	12840	117.410894876154	2.795844613033
0	13205	120.206739489187	0.38568632585841
0	13238	120.592425815045	2.3198346112727
0	13426	122.912260426318	0.28106366909883
0	13439	123.193324095417	3.2282986742862
0	13772	126.421622769703	5.1397747773095
0	14253	131.561397547013	4.2498767497914
0	14753	135.811274296804	0.38583311644725
0	14793	136.197107413251	2.613455118058
0	15046	138.810562531309	2.108716043113
0	15266	140.919278574422	1.8135545095564
0	15408	142.732833083978	0.49462672740985
0	15441	143.227459811388	0.25779208241002
0	15485	143.485251893798	5.6036367241086
0	16115	149.088888617907	0.59346443351196
0	16182	149.682353051419	2.8669241413101
0	16520	152.549277192729	0.490355217839
0	16561	153.039632410568	2.1419903645547
0	16733	155.181622775123	3.4342842671388
0	17095	158.615907042262	1.7873471379983
0	17271	160.40325418026	0.84673103988203
0	17415	161.249985220142	1.4432220263963
0	17547	162.693207246538	0.53579432802131
0	17590	163.229001574559	0.133575127086
0	17601	163.362576701645	3.5363112484699
0	17948	166.898887950115	2.7755357325094
0	18236	169.674423682624	0.85293862429561
0	18305	170.52736230692	2.7659955077528
0	18593	173.293357814673	1.1000210051318
0	18694	174.393378819805	0.87056324363842
0	18836	175.263942063443	0.51332668543701
0	18876	175.77726874888	0.01059501375915
0	18879	175.787863762639	1.4976704497556
0	19048	177.285534212395	1.4638870848061
0	19228	178.749421297201	1.627806435566
0	19353	180.377227732767	1.1718751837064
0	19463	181.549102916473	1.4149003010777
0	19617	182.964003217551	2.0782673525252
0	19851	185.042270570076	0.72728980284914
0	19924	185.769560372925	0.9108495298958
0	20050	186.680409902821	0.27305549985877
0	20098	186.95346540268	1.751136419202
0	20273	188.704601821882	2.5943394543286
0	20495	191.298941276211	2.2788815739686
0	20744	193.57782285018	0.84631954066628
0	20832	194.424142390846	0.33460379390874
0	20861	194.758746184755	3.5598367179595
0	21222	198.318582902715	1.4008153718008
0	21365	199.719398274516	0.62088376640468
0	21405	200.340282040921	2.8188014332898
0	21679	203.159083474211	1.1294766262643
0	21807	204.288560100475	1.5720556180556
0	21995	205.860615718531	2.268403803151
0	22228	208.129019521682	1.2373595671153
0	22355	209.366379088797	1.3318809738757
0	22484	210.698260062673	1.8174783336297
0	22686	212.515738396303	1.7958528048683
0	22884	214.311591201171	0.77473208872521
0	22971	215.086323289896	1.1984029822588
0	23110	216.284726272155	0.69622702532164
0	23177	216.980953297477	1.830840039343
0	23427	218.81179333682	4.0612180493898
0	23931	222.87301138621	0.52167066559799
0	24002	223.394682051808	2.5120892351379
0	24265	225.906771286946	2.1572961876404
0	24516	228.064067474586	0.97297550102461
0	24622	229.037042975611	0.025136902740095
0	24623	229.062179878351	1.5433529331673
0	24799	230.605532811518	0.24315113407619
0	24841	230.848683945594	1.4225376888014
0	24991	232.271221634395	2.8988361074846
0	25275	235.17005774188	8.1231589112474
0	26228	243.293216653127	1.2500410676073
0	26349	244.543257720734	1.6457211283466
0	26536	246.188978849081	1.611323553642
0	26706	247.800302402723	6.1254657347288
0	27273	253.925768137452	1.1563259753781
0	27391	255.08209411283	1.4398600178653
0	27591	256.521954130695	1.6510769075932
0	27795	258.173031038288	0.6849327177663
0	27884	258.857963756054	1.2247599583297
0	28005	260.082723714384	4.8351385733755
0	28522	264.917862287759	2.5373260135601
0	28807	267.455188301319	1.800261557233
0	28975	269.255449858552	2.6568692779586
0	29283	271.912319136511	1.1489080954407
0	29397	273.061227231952	4.6198319479992
0	29865	277.681059179951	0.083939982015141
0	29876	277.764999161966	0.30571370211933
0	29909	278.070712864085	3.6973626536946
0	30374	281.76807551778	0.39730537260614
0	30436	282.165380890386	0.57797970624909
0	30511	282.743360596635	0.50248541028954
0	30570	283.245846006925	3.7658237609114
0	30957	287.011669767836	0.27337969046891
0	30983	287.285049458305	2.7505565828237
0	31244	290.035606041129	0.98567848191651
0	31351	291.021284523046	1.4749977153918
0	31570	292.496282238438	1.7409863929299
0	31784	294.237268631368	5.144708623549
0	32388	299.381977254917	2.0181012442697
0	32621	301.400078499187	0.97524440595117
0	32768	302.375322905138	0.46100673563362
0	32843	302.836329640772	5.1288186012043
0	33442	307.965148241976	0.57274117387553
0	33518	308.537889415852	6.1092008101718
0	34153	314.647090226024	0.032774306112403
0	34158	314.679864532136	7.1728201368853
0	34934	321.852684669021	4.2155476331361
0	35387	326.068232302157	0.12062321781883
0	35409	326.188855519976	4.0003074055232
0	35843	330.189162925499	0.032136394876059
0	35846	330.221299320375	0.51570090151847
0	35898	330.737000221893	0.51973371265518
0	35938	331.256733934548	0.23278363980833
0	35953	331.489517574356	0.45442064913454
0	36022	331.943938223491	7.3577378831369
0	36816	339.301676106628	0.85704029564769
0	36901	340.158716402276	1.0505208761655
0	37011	341.209237278442	0.14024532612306
0	37038	341.349482604565	0.44446727074679
0	37087	341.793949875312	0.2203491668352
0	37114	342.014299042147	2.3152872251658
0	37396	344.329586267313	1.2237784459499
0	37511	345.553364713263	1.3781387321615
0	37673	346.931503445424	0.739174046336
0	37785	347.67067749176	2.8472441353408
0	38124	350.517921627101	4.9098007058008
0	38582	355.427722332902	0.88665026263039
0	38683	356.314372595532	0.41237277351688
0	38735	356.726745369049	2.5527264957952
0	39041	359.279471864844	1.549066191771
0	39266	360.828538056615	0.50950066693881
0	39316	361.338038723554	14.564480955868
0	40973	375.902519679422	2.3500534913902
0	41227	378.252573170812	1.1077839482529
0	41356	379.360357119065	3.659051353272
0	41801	383.019408472337	2.6021715856503
0	42145	385.621580057987	1.8473996913371
0	42360	387.468979749324	1.7834013142277
0	42527	389.252381063552	0.44423794958928
0	42564	389.696619013141	2.6788991370751
0	42799	392.375518150216	0.95337032288662
0	42939	393.328888473103	2.3310543968106
0	43267	395.659942869914	0.67273693290796
0	43357	396.332679802822	12.372507608621
1	1185	10.080034909834	0.002426775015
1	1187	10.082461684849	0.040215065316
1	1195	10.122676750165	0.015232005112
1	1200	10.137908755277	0.026881817186
1	1205	10.164790572463	0.139739922313
1	1210	10.304530494776	0.012329125108
1	1215	10.316859619884	0.118490219203
1	1221	10.435349839087	0.006312016391
1	1223	10.441661855478	0.121452606086
1	1232	10.563114461564	0.050853671215
1	1237	10.613968132779	0.060069592088
1	1242	10.674037724867	0.006856622818
1	1244	10.680894347685	0.083711357983
1	1254	10.764605705668	0.001222030589
1	1256	10.765827736257	0.044000921367
1	1264	10.809828657624	0.087729977298
1	1271	10.897558634922	0.005741507237
1	1273	10.903300142159	0.046304201059
1	1281	10.949604343218	0.047397492986
1	1287	10.997001836204	0.017139453455
1	1292	11.014141289659	0.260179149996
1	1300	11.274320439655	0.033194894409
1	1305	11.307515334064	0.023333337769
1	1310	11.330848671833	0.129008160549
1	1315	11.459856832382	0.040530611972
1	1320	11.500387444354	0.018815459748
1	1325	11.519202904102	0.008321441508
1	1330	11.52752434561	0.074909476504
1	1336	11.602433822114	0.003516073142
1	1338	11.605949895256	0.004813478652
1	1343	11.610763373908	0.072284323387
1	1352	11.683047697295	0.003921312272
1	1355	11.686969009567	0.212566941813
1	1364	11.89953595138	0.021228203671
1	1371	11.920764155051	0.026116631389
1	1376	11.94688078644	0.091135946692
1	1382	12.038016733132	0.077821328985
1	1387	12.115838062117	0.080410363484
1	1392	12.196248425601	0.066341552495
1	1398	12.262589978096	0.05068698391
1	1403	12.313276962006	0.102881083318
1	1408	12.416158045324	0.004392025483
1	1410	12.420550070807	0.007663003424
1	1415	12.428213074231	0.028448222792
1	1424	12.456661297023	0.007095542429
1	1426	12.463756839452	0.063165252363
1	1434	12.526922091815	0.074564080907
1	1440	12.601486172722	0.068281850154
1	1445	12.669768022876	0.072812952861
1	1450	12.742580975737	0.004529611394
1	1452	12.747110587131	0.03529884334
1	1461	12.782409430471	0.000390755098
1	1463	12.782800185569	0.007705875974
1	1468	12.790506061543	0.081083815584
1	1478	12.871589877127	0.008835645693
1	1483	12.88042552282	0.010872419741
1	1488	12.891297942561	0.014820900497
1	1493	12.906118843058	0.015513136075
1	1498	12.921631979133	0.0581277361
1	1503	12.979759715233	0.047311021259
1	1509	13.027070736492	0.003529037146
1	1511	13.030599773638	0.119794222525
1	1520	13.150393996163	0.002477225563
1	1522	13.152871221726	0.011506346613
1	1527	13.164377568339	0.002867292301
1	1532	13.16724486064	0.050715966953
1	1541	13.217960827593	0.066471200391
1	1547	13.284432027984	0.010933333413
1	1552	13.295365361397	0.024835391875
1	1557	13.320200753272	0.023611939733
1	1562	13.343812693005	0.002585804576
1	1564	13.346398497581	0.014028506978
1	1572	13.360427004559	0.070780948592
1	1577	13.431207953151	0.063837492931
1	1584	13.495045446082	0.006790200759
1	1586	13.501835646841	0.061298913895
1	1594	13.563134560736	0.132874664772
1	1601	13.696009225508	0.091302758994
1	1607	13.787311984502	0.050613132476
1	1612	13.837925116978	0.06226085087
1	1618	13.900185967848	0.026323666781
1	1623	13.926509634629	0.03515899821
1	1628	13.961668632839	0.033547154985
1	1633	13.995215787824	0.029212118272
1	1638	14.024427906096	0.049164964038
1	1644	14.073592870134	0.038212099221
1	1649	14.111804969355	0.013806866348
1	1654	14.125611835703	0.051516309751
1	1659	14.177128145454	0.124786542771
1	1664	14.301914688225	0.050950391258
1	1669	14.352865079483	0.200505495455
1	1677	14.553370574938	0.01913216386
1	1682	14.572502738798	0.091178395909
1	1687	14.663681134707	0.034774152002
1	1692	14.698455286709	0.029448740356
1	1697	14.727904027065	0.001003902439
1	1699	14.728907929504	0.055034343
1	1707	14.783942272504	0.027408432372
1	1712	14.811350704876	0.087043278634
1	1717	14.89839398351	0.003232007251
1	1719	14.901625990761	0.018131159589
1	1727	14.91975715035	0.036853377361
1	1732	14.956610527711	0.062234784139
1	1737	15.01884531185	0.07653353008
1	1744	15.09537884193	0.059394285073
1	1749	15.154773127003	0.036732693959
1	1755	15.191505820962	0.0115318502
1	1760	15.203037671162	0.004822380286
1	1762	15.207860051448	0.007893359186
1	1767	15.215753410634	0.018257830085
1	1775	15.234011240719	0.000200857357
1	1777	15.234212098076	0.080585176178
1	1785	15.314797274254	0.020245060377
1	1790	15.335042334631	0.021878381507
1	1795	15.356920716138	0.035096299929
1	1800	15.392017016067	0.013083998939
1	1806	15.405101015006	0.007246898592
1	1808	15.412347913598	0.007658481093
1	1813	15.420006394691	0.035148427309
1	1821	15.455154822	0.07691536584
1	1826	15.53207018784	0.110152235598
1	1831	15.642222423438	0.04182101543
1	1838	15.684043438868	0.001528348979
1	1840	15.685571787847	0.011565716102
1	1845	15.697137503949	0.092821918607
1	1854	15.789959422556	0.03875138053
1	1860	15.828710803086	0.002937299397
1	1863	15.831648102483	0.03258308864
1	1872	15.864231191123	0.064955294223
1	1877	15.929186485346	0.015463713253
1	1882	15.944650198599	0.006095873259
1	1884	15.950746071858	0.010304669416
1	1889	15.961050741274	0.016092567141
1	1897	15.977143308415	0.005185209884
1	1899	15.982328518299	0.028473893416
1	1907	16.010802411715	0.062705776727
1	1912	16.073508188442	0.020681400324
1	1917	16.094189588766	0.047273430599
1	1922	16.141463019365	0.091296192868
1	1927	16.232759212233	0.056325984407
1	1933	16.28908519664	0.107740951829
1	1939	16.396826148469	0.062096505263
1	1945	16.458922653732	0.055781614649
1	1950	16.514704268381	0.03321289144
1	1956	16.547917159821	0.036132911847
1	1961	16.584050071668	0.054273683604
1	1967	16.638323755272	0.168019582706
1	1972	16.806343337978	0.021026062849
1	1977	16.827369400827	0.037509383618
1	1982	16.864878784445	0.021395808917
1	1987	16.886274593362	0.0373895246
1	1992	16.923664117962	0.021036583472
1	1997	16.944700701434	0.051542110538
1	2004	16.996242811972	0.029231614423
1	2009	17.025474426395	0.001977198057
1	2011	17.027451624452	0.008130793389
1	2016	17.035582417841	0.153797926101
1	2025	17.189380343942	0.031246508265
1	2031	17.220626852207	0.017311118212
1	2037	17.237937970419	0.070322915003
1	2042	17.308260885422	0.055191454221
1	2047	17.363452339643	0.106643461992
1	2052	17.470095801635	0.003352227464
1	2054	17.473448029099	0.00156069339
1	2056	17.475008722489	0.259776787018
1	2069	17.734785509507	0.016641430285
1	2074	17.751426939792	0.044085716724
1	2081	17.795512656516	0.000548020795
1	2083	17.796060677311	0.037538151914
1	2091	17.833598829225	0.001830639914
1	2093	17.835429469139	0.086002853225
1	2103	17.921432322364	0.003256670319
1	2105	17.924688992683	0.046412144276
1	2113	17.971101136959	0.143278555436
1	2119	18.114379692395	0.000193652649
1	2121	18.114573345044	0.008824525882
1	2126	18.123397870926	0.217966181188
1	2134	18.341364052114	0.143914253439
1	2140	18.485278305553	0.058686470403
1	2145	18.543964775956	0.037166250962
1	2150	18.581131026918	0.000615714155
1	2152	18.581746741073	0.110816812169
1	2161	18.692563553242	0.007382817771
1	2163	18.699946371013	0.039750356673
1	2171	18.739696727686	0.224110124519
1	2176	18.963806852205	0.163681624968
1	2182	19.127488477173	0.009053997808
1	2187	19.136542474981	0.117395760258
1	2193	19.253938235239	0.020698890111
1	2198	19.27463712535	0.002616415127
1	2200	19.277253540477	0.123702203208
1	2208	19.400955743685	0.012033018423
1	2213	19.412988762108	0.099602240206
1	2218	19.512591002314	0.001821467589
1	2220	19.514412469903	0.232589253408
1	2230	19.747001723311	0.002566687448
1	2232	19.749568410759	0.054840996394
1	2240	19.804409407153	0.006623228906
1	2242	19.811032636059	0.034047372027
1	2250	19.845080008086	0.056496155157
1	2255	19.901576163243	0.014766746573
1	2260	19.916342909816	0.068265035716
1	2266	19.984607945532	0.081828776217
1	2271	20.066436721749	0.020567727117
1	2276	20.087004448866	0.000249765081
1	2278	20.087254213947	0.035418846356
1	2286	20.122673060303	0.008348382738
1	2292	20.131021443041	0.009659500743
1	2298	20.140680943784	0.024319191103
1	2303	20.165000134887	0.128022937376
1	2308	20.293023072263	0.011957302731
1	2313	20.304980374994	0.077157576994
1	2319	20.382137951988	0.053556272045
1	2325	20.435694224033	0.016568588939
1	2330	20.452262812972	0.0279854754
1	2335	20.480248288372	0.037971158757
1	2341	20.518219447129	0.032188835335
1	2346	20.550408282464	0.005135343805
1	2348	20.555543626269	0.020342734185
1	2356	20.575886360454	0.081892854297
1	2361	20.657779214751	0.027961505978
1	2367	20.685740720729	0.055487590317
1	2373	20.741228311046	0.019580999864
1	2378	20.76080931091	0.130106135121
1	2386	20.890915446031	0.068894517337
1	2391	20.959809963368	0.060949243189
1	2397	21.020759206557	0.042885730555
1	2402	21.063644937112	0.079255352769
1	2408	21.142900289881	0.030517040199
1	2413	21.17341733008	0.064855252569
1	2418	21.238272582649	0.002578311391
1	2420	21.24085089404	0.008308677922
1	2425	21.249159571962	0.052896051741
1	2433	21.302055623703	0.096083136655
1	2438	21.398138760358	0.078873447611
1	2445	21.477012207969	0.042766889797
1	2450	21.519779097766	0.024438762704
1	2455	21.54421786047	0.024586903099
1	2460	21.568804763569	0.05066928009
1	2465	21.619474043659	0.019632874239
1	2470	21.639106917898	0.00570954353
1	2472	21.644816461428	0.132032744923
1	2481	21.776849206351	0.012539072315
1	2486	21.789388278666	0.130634351053
1	2492	21.920022629719	0.132701506184
1	2498	22.052724135903	0.005464165461
1	2500	22.058188301364	0.00353274751
1	2505	22.061721048874	0.119513318192
1	2513	22.181234367066	0.00794334059
1	2518	22.189177707656	0.014192511228
1	2523	22.203370218884	0.055862304333
1	2529	22.259232523217	0.089722159432
1	2536	22.348954682649	0.013739698589
1	2541	22.362694381238	0.2286866686
1	2549	22.591381049838	0.026595909711
1	2555	22.617976959549	0.043732704832
1	2560	22.661709664381	0.028045692891
1	2565	22.689755357272	0.001902904667
1	2567	22.691658261939	0.01249663517
1	2572	22.704154897109	0.001769808302
1	2577	22.705924705411	0.084926610753
1	2585	22.790851316164	0.056194650539
1	2590	22.847045966703	0.001720422047
1	2592	22.84876638875	0.026519302201
1	2601	22.875285690951	0.030567829934
1	2607	22.905853520885	0.110009090046
1	2612	23.015862610931	0.013958029069
1	2617	23.02982064	0.014200080411
1	2622	23.044020720411	0.036536060858
1	2627	23.080556781269	0.003315750674
1	2629	23.083872531943	0.019896941176
1	2637	23.103769473119	0.01621041945
1	2642	23.119979892569	0.033792698864
1	2647	23.153772591433	0.006035171792
1	2649	23.159807763225	0.064928271122
1	2658	23.224736034347	0.16566493284
1	2663	23.390400967187	0.117196924915
1	2669	23.507597892102	0.088762026696
1	2674	23.596359918798	0.049568443295
1	2680	23.645928362093	0.036663676815
1	2686	23.682592038908	0.076613876924
1	2691	23.759205915832	0.042139578554
1	2696	23.801345494386	0.082781289698
1	2701	23.884126784084	0.149496844324
1	2708	24.033623628408	0.069821346466
1	2714	24.103444974874	0.057845382678
1	2719	24.161290357552	0.068454982107
1	2725	24.229745339659	0.025378186659
1	2730	24.255123526318	0.037621136577
1	2735	24.292744662895	0.019799734999
1	2740	24.312544397894	0.080675616121
1	2746	24.393220014015	0.007917322789
1	2748	24.401137336804	0.009469678344
1	2756	24.410607015148	0.019660390761
1	2761	24.430267405909	0.013355419587
1	2766	24.443622825496	0.020224750718
1	2771	24.463847576214	0.101800778819
1	2777	24.565648355033	0.019020051065
1	2782	24.584668406098	0.00048866168
1	2784	24.585157067778	0.017367023165
1	2792	24.602524090943	0.046646952829
1	2797	24.649171043772	0.065861495432
1	2802	24.715032539204	0.143868246647
1	2810	24.858900785851	0.078601953794
1	2815	24.937502739645	0.077066988997
1	2822	25.014569728642	0.056216740986
1	2827	25.070786469628	0.062066664854
1	2833	25.132853134482	0.006919407368
1	2835	25.13977254185	0.009419725506
1	2840	25.149192267356	0.054853219583
1	2849	25.204045486939	0.000308089502
1	2851	25.204353576441	0.334009441129
1	2861	25.53836301757	0.007189923787
1	2863	25.545552941357	0.034186359347
1	2871	25.579739300704	0.015724744667
1	2876	25.595464045371	0.033847448322
1	2881	25.629311493693	0.093684659751
1	2888	25.722996153444	0.208940006013
1	2894	25.931936159457	0.003549281615
1	2896	25.935485441072	0.08350057813
1	2905	26.018986019202	0.039394983471
1	2910	26.058381002673	0.026510750139
1	2915	26.084891752812	0.104512023427
1	2922	26.189403776239	0.009209472054
1	2927	26.198613248293	0.007319583349
1	2929	26.205932831642	0.043994318572
1	2937	26.249927150214	0.060086400349
1	2944	26.310013550563	0.030108146466
1	2950	26.340121697029	0.007158229447
1	2952	26.347279926476	0.114821340264
1	2965	26.46210126674	0.054524934661
1	2970	26.516626201401	0.021101839078
1	2975	26.537728040479	0.024315166393
1	2982	26.562043206872	0.036420070431
1	2987	26.598463277303	0.063229675021
1	2992	26.661692952324	0.23380416344
1	3000	26.895497115764	0.063354541473
1	3006	26.958851657237	0.021945641498
1	3011	26.980797298735	0.035855063734
1	3016	27.016652362469	0.030298013509
1	3021	27.046950375978	0.083669865746
1	3027	27.130620241724	0.083446220807
1	3033	27.214066462531	0.020202657136
1	3038	27.234269119667	0.024552716246
1	3044	27.258821835913	0.05141682056
1	3049	27.310238656473	0.033948017595
1	3055	27.344186674068	0.064996373617
1	3060	27.409183047685	0.015660549714
1	3065	27.424843597399	0.045181531689
1	3072	27.470025129088	0.027990807307
1	3077	27.498015936395	0.041186746935
1	3082	27.53920268333	0.048077624495
1	3087	27.587280307825	0.061892265674
1	3092	27.649172573499	0.021581773221
1	3097	27.67075434672	0.073008591815
1	3102	27.743762938535	0.045249334718
1	3107	27.789012273253	0.008601612732
1	3112	27.797613885985	0.09947033151
1	3117	27.897084217495	0.065708692273
1	3122	27.962792909768	0.003652153782
1	3124	27.96644506355	0.096751516823
1	3133	28.063196580373	0.019715346565
1	3138	28.082911926938	0.058701738079
1	3143	28.141613665017	0.087844416688
1	3149	28.229458081705	0.048304249793
1	3154	28.277762331498	0.008141941507
1	3159	28.285904273005	0.029682094631
1	3164	28.315586367636	0.031586539811
1	3169	28.347172907447	0.043225024923
1	3174	28.39039793237	0.016406524493
1	3179	28.406804456863	0.021835479359
1	3184	28.428639936222	0.030298825787
1	3189	28.458938762009	0.189920924995
1	3196	28.648859687004	0.053009698612
1	3201	28.701869385616	0.145830340566
1	3208	28.847699726182	0.054084611185
1	3213	28.901784337367	0.045820421921
1	3218	28.947604759288	0.007736450404
1	3223	28.955341209692	0.101184578615
1	3229	29.056525788307	0.039405522341
1	3234	29.095931310648	0.044681454957
1	3239	29.140612765605	0.108007943642
1	3244	29.248620709247	0.005841690239
1	3246	29.254462399486	0.116058424365
1	3255	29.370520823851	0.029396145959
1	3260	29.39991696981	0.012607878243
1	3265	29.412524848053	0.00415364429
1	3267	29.416678492343	0.031400158661
1	3275	29.448078651004	0.005653814791
1	3277	29.453732465795	0.181459585103
1	3286	29.635192050898	0.040063586285
1	3291	29.675255637183	0.036582189686
1	3296	29.711837826869	0.041110698068
1	3301	29.752948524937	0.033153166885
1	3306	29.786101691822	0.028113756836
1	3311	29.814215448658	0.022724217565
1	3316	29.836939666223	0.018106790836
1	3321	29.855046457059	0.195548916933
1	3327	30.050595373992	0.096355911943
1	3333	30.146951285935	0.04155348186
1	3338	30.188504767795	0.006283248837
1	3340	30.194788016632	0.039133491235
1	3348	30.233921507867	0.013917040084
1	3353	30.247838547951	0.003134908727
1	3355	30.250973456678	0.149096739052
1	3363	30.40007019573	0.03812588991
1	3369	30.43819608564	0.038402866927
1	3375	30.476598952567	0.00474173955
1	3377	30.481340692117	0.105347648884
1	3385	30.586688341001	0.100397860404
1	3391	30.687086201405	0.010147607687
1	3396	30.697233809092	0.084946829412
1	3402	30.782180638504	0.01846990509
1	3407	30.800650543594	0.02880790328
1	3412	30.829458446874	0.105084452181
1	3417	30.934542899055	0.01105304198
1	3422	30.945595941035	0.00138733138
1	3424	30.946983272415	0.06754156279
1	3432	31.014524835205	0.009372178701
1	3437	31.023897013906	0.045407118018
1	3443	31.069304131924	0.011036644758
1	3448	31.080340776682	0.097394170337
1	3455	31.177734947019	0.078831055875
1	3462	31.256566002894	0.227422373254
1	3469	31.483988376148	0.020548410036
1	3474	31.504536786184	0.051320341247
1	3479	31.555857127431	0.041234871434
1	3485	31.597091998865	0.045444626911
1	3491	31.642536625776	0.1207852331
1	3497	31.763321858876	0.022005957048
1	3502	31.785327815924	0.053938217563
1	3508	31.839266033487	0.00441938726
1	3510	31.843685420747	0.026101647179
1	3518	31.869787067926	0.129940177258
1	3523	31.999727245184	0.064507307943
1	3528	32.064234553127	0.009433489515
1	3533	32.073668042642	0.037362992636
1	3538	32.111031035278	0.07311308539
1	3544	32.184144120668	0.004753958734
1	3546	32.188898079402	0.099264348733
1	3554	32.288162428135	0.024718211651
1	3559	32.312880639786	0.042878913977
1	3564	32.355759553763	0.014252027974
1	3569	32.370011581737	0.062727206156
1	3574	32.432738787893	0.045042588636
1	3581	32.477781376529	0.131565942284
1	3587	32.609347318813	0.030166363636
1	3592	32.639513682449	0.045599388764
1	3597	32.685113071213	0.113549319292
1	3602	32.798662390505	0.026322537652
1	3608	32.824984928157	0.054155355577
1	3613	32.879140283734	0.071649065156
1	3618	32.95078934889	0.039926042179
1	3623	32.990715391069	0.00136100642
1	3625	32.992076397489	0.006030012527
1	3627	32.998106410016	0.052820605266
1	3638	33.050927015282	0.021544135693
1	3643	33.072471150975	0.009519216737
1	3648	33.081990367712	0.038563656212
1	3653	33.120554023924	0.018062537749
1	3658	33.138616561673	0.116577319566
1	3664	33.255193881239	0.09927900837
1	3669	33.354472889609	0.069862742464
1	3674	33.424335632073	0.090586451929
1	3679	33.514922084002	0.066152481145
1	3685	33.581074565147	0.003611157146
1	3687	33.584685722293	0.022133725608
1	3695	33.606819447901	0.093632115624
1	3701	33.700451563525	0.031333687827
1	3706	33.731785251352	0.101544443016
1	3712	33.833329694368	0.097354794215
1	3719	33.930684488583	0.101943556116
1	3724	34.032628044699	0.111285819964
1	3729	34.143913864663	0.029286452587
1	3734	34.17320031725	0.005442365953
1	3736	34.178642683203	0.01632437502
1	3744	34.194967058223	0.079159739349
1	3750	34.274126797572	0.008707099307
1	3755	34.282833896879	0.031961276614
1	3760	34.314795173493	0.012736335382
1	3766	34.327531508875	0.13546066259
1	3772	34.462992171465	0.001884130325
1	3774	34.46487630179	0.041149001492
1	3782	34.506025303282	0.01357639757
1	3787	34.519601700852	0.00352877702
1	3789	34.523130477872	0.214439228782
1	3799	34.737569706654	0.11118202763
1	3805	34.848751734284	0.020974229432
1	3810	34.869725963716	0.001736816507
1	3812	34.871462780223	0.011049159684
1	3817	34.882511939907	0.054529785557
1	3826	34.937041725464	0.022006067975
1	3831	34.959047793439	0.094312895221
1	3837	35.05336068866	0.020218524227
1	3842	35.073579212887	0.036050352229
1	3847	35.109629565116	0.124731575928
1	3852	35.234361141044	0.017976901737
1	3857	35.252338042781	0.053548888556
1	3862	35.305886931337	0.050554404659
1	3867	35.356441335996	0.057693967875
1	3872	35.414135303871	0.094689255625
1	3877	35.508824559496	0.01433540443
1	3883	35.523159963926	0.023464198609
1	3888	35.546624162535	0.032310948765
1	3894	35.5789351113	0.022892910771
1	3899	35.601828022071	0.047459560733
1	3905	35.649287582804	0.037437663268
1	3910	35.686725246072	0.029399359514
1	3915	35.716124605586	0.069175801469
1	3921	35.785300407055	0.033269625488
1	3928	35.818570032543	0.054975456914
1	3934	35.873545489457	0.040514691781
1	3939	35.914060181238	0.155967487922
1	3947	36.07002766916	0.019428385963
1	3952	36.089456055123	0.015307085505
1	3957	36.104763140628	0.033304167181
1	3962	36.138067307809	0.006780951275
1	3965	36.144848259084	0.070021529149
1	3973	36.214869788233	0.079937511136
1	3980	36.294807299369	0.029500719615
1	3985	36.324308018984	0.020272520661
1	3991	36.344580539645	0.010836235514
1	3996	36.355416775159	0.054372716921
1	4002	36.40978949208	0.017689012922
1	4007	36.427478505002	0.128797364837
1	4012	36.556275869839	0.004521209789
1	4014	36.560797079628	0.021924056228
1	4024	36.582721135856	0.042558817922
1	4030	36.625279953778	0.020332725973
1	4035	36.645612679751	0.038920817567
1	4040	36.684533497318	0.071810911778
1	4046	36.756344409096	0.007365685638
1	4048	36.763710094734	0.027903888261
1	4056	36.791613982995	0.032414540586
1	4062	36.824028523581	0.031248642394
1	4067	36.855277165975	0.030088722363
1	4072	36.885365888338	0.049901052763
1	4077	36.935266941101	0.019765077883
1	4082	36.955032018984	0.018331233742
1	4088	36.973363252726	0.215267807398
1	4095	37.188631060124	0.011572203512
1	4101	37.200203263636	0.017051356812
1	4107	37.217254620448	0.006033018416
1	4109	37.223287638864	0.018491067151
1	4117	37.241778706015	0.125331400596
1	4122	37.367110106611	0.005218439477
1	4124	37.372328546088	0.018275857426
1	4132	37.390604403514	0.20608384828
1	4140	37.596688251794	0.189974681363
1	4145	37.786662933157	0.059393307869
1	4151	37.846056241026	0.060231705524
1	4157	37.90628794655	0.047368476305
1	4162	37.953656422855	0.023952808767
1	4167	37.977609231622	0.004431548569
1	4169	37.982040780191	0.015797064796
1	4177	37.997837844987	0.000524968001
1	4179	37.998362812988	0.049729608017
1	4187	38.048092421005	0.040669531791
1	4192	38.088761952796	0.054167157268
1	4197	38.142929110064	0.0266208383
1	4202	38.169549948364	0.100820223132
1	4207	38.270370171496	0.002260029342
1	4209	38.272630200838	0.029239236227
1	4217	38.301869437065	0.009417546533
1	4222	38.311286983598	0.066936515989
1	4227	38.378223499587	0.073876538566
1	4232	38.452100038153	0.164692572611
1	4240	38.616792610764	0.100599527012
1	4246	38.717392137776	0.012416654338
1	4251	38.729808792114	0.002055435322
1	4253	38.731864227436	0.006327946601
1	4258	38.738192174037	0.038970161486
1	4266	38.777162335523	0.128525589684
1	4271	38.905687925207	0.040708100799
1	4277	38.946396026006	0.005730195951
1	4279	38.952126221957	0.133395909532
1	4290	39.085522131489	0.001071928834
1	4292	39.086594060323	0.081970955128
1	4300	39.168565015451	0.010796661474
1	4305	39.179361676925	0.013010850383
1	4310	39.192372527308	0.003191906612
1	4312	39.19556443392	0.073728256735
1	4321	39.269292690655	0.012286214559
1	4327	39.281578905214	0.045332350426
1	4332	39.32691125564	0.000845948008
1	4334	39.327757203648	0.244189192684
1	4344	39.571946396332	0.041663174728
1	4350	39.61360957106	0.059367466103
1	4356	39.672977037163	0.052542475772
1	4361	39.725519512935	0.02704857616
1	4366	39.752568089095	0.012225101352
1	4371	39.764793190447	0.096310576482
1	4377	39.861103766929	0.000338202556
1	4379	39.861441969485	0.080535427557
1	4388	39.941977397042	0.080204412147
1	4393	40.022181809189	0.051618238586
1	4398	40.073800047775	0.015321074871
1	4403	40.089121122646	0.040441473588
1	4408	40.129562596234	0.091953108555
1	4415	40.221515704789	0.056004034143
1	4421	40.277519738932	0.021915176995
1	4426	40.299434915927	0.052355649581
1	4431	40.351790565508	0.017177400112
1	4436	40.36896796562	0.062401023814
1	4441	40.431368989434	0.007276870435
1	4443	40.438645859869	0.081331568958
1	4452	40.519977428827	0.010058482562
1	4457	40.530035911389	0.229746277824
1	4463	40.759782189213	0.085516754095
1	4469	40.845298943308	0.045513577803
1	4474	40.890812521111	0.01339628909
1	4479	40.904208810201	0.044180251545
1	4484	40.948389061746	0.044710803025
1	4489	40.993099864771	0.25209129919
1	4497	41.245191163961	0.001841464548
1	4499	41.247032628509	0.074584919901
1	4507	41.32161754841	0.033743262879
1	4512	41.355360811289	0.002645866085
1	4514	41.358006677374	0.029359494324
1	4522	41.387366171698	0.088359255335
1	4529	41.475725427033	0.115847731362
1	4536	41.591573158395	0.068309958825
1	4541	41.65988311722	0.307759677933
1	4549	41.967642795153	0.003801413592
1	4551	41.971444208745	0.027162428782
1	4559	41.998606637527	0.016854915727
1	4564	42.015461553254	0.057230525839
1	4571	42.072692079093	0.005796370121
1	4573	42.078488449214	0.192454843291
1	4582	42.270943292505	0.069203279714
1	4589	42.340146572219	0.075764354842
1	4595	42.415910927061	0.015112544452
1	4600	42.431023471513	0.232152695559
1	4606	42.663176167072	0.050799456273
1	4611	42.713975623345	0.30290812252
1	4618	43.016883745865	0.027978387542
1	4624	43.044862133407	0.021372027072
1	4629	43.066234160479	0.010772664505
1	4634	43.077006824984	0.000264888674
1	4636	43.077271713658	0.022080839639
1	4645	43.099352553297	0.084461749341
1	4651	43.183814302638	0.008242268203
1	4656	43.192056570841	0.047717037358
1	4661	43.239773608199	0.006913514131
1	4663	43.24668712233	0.038734732606
1	4671	43.285421854936	0.00336876862
1	4673	43.288790623556	0.010754071742
1	4678	43.299544695298	0.0348071925
1	4686	43.334351887798	0.048463289854
1	4691	43.382815177652	0.042704550135
1	4696	43.425519727787	0.03312858823
1	4701	43.458648316017	0.001182492289
1	4703	43.459830808306	0.035034618819
1	4712	43.494865427125	0.022879343975
1	4717	43.5177447711	0.00413090368
1	4719	43.52187567478	0.081680814607
1	4728	43.603556489387	0.018503554912
1	4734	43.622060044299	0.159755848803
1	4740	43.781815893102	0.00485643209
1	4742	43.786672325192	0.015809824345
1	4750	43.802482149537	0.080165874828
1	4756	43.882648024365	0.058828394401
1	4761	43.941476418766	0.009046558105
1	4766	43.950522976871	0.018818392732
1	4771	43.969341369603	0.002605057335
1	4773	43.971946426938	0.012434370512
1	4781	43.98438079745	0.028667410254
1	4786	44.013048207704	0.017017584395
1	4792	44.030065792099	0.046561935057
1	4797	44.076627727156	0.017344432651
1	4802	44.093972159807	0.00513474462
1	4804	44.099106904427	0.008092967341
1	4809	44.107199871768	0.00304796363
1	4814	44.110247835398	0.21683718363
1	4824	44.327085019028	0.007285684416
1	4829	44.334370703444	0.014780624588
1	4834	44.349151328032	0.018266407244
1	4840	44.367417735276	0.063950213908
1	4845	44.431367949184	0.02530519911
1	4850	44.456673148294	0.26881956573
1	4858	44.725492714024	0.181574332853
1	4867	44.907067046877	0.012974467169
1	4872	44.920041514046	0.172436974679
1	4880	45.092478488725	0.00516969144
1	4882	45.097648180165	0.002558500494
1	4887	45.100206680659	0.007350333793
1	4892	45.107557014452	0.010757488639
1	4897	45.118314503091	0.014902102103
1	4905	45.133216605194	0.010617937077
1	4910	45.143834542271	0.012913540991
1	4916	45.156748083262	0.011475029346
1	4921	45.168223112608	0.211988162207
1	4927	45.380211274815	0.07704022392
1	4933	45.457251498735	0.027536866581
1	4938	45.484788365316	0.014660706753
1	4944	45.499449072069	0.004822331838
1	4947	45.504271403907	0.028433204503
1	4955	45.53270460841	0.153987248232
1	4963	45.686691856642	0.020452846948
1	4969	45.70714470359	0.073948866254
1	4974	45.781093569844	0.023741258125
1	4979	45.804834827969	0.050686843709
1	4985	45.855521671678	0.024048583655
1	4990	45.879570255333	0.04823320916
1	4995	45.927803464493	0.076258102409
1	5002	46.004061566902	0.009603475827
1	5007	46.013665042729	0.050995847585
1	5012	46.064660890314	0.051017721379
1	5017	46.115678611693	0.071303686734
1	5022	46.186982298427	0.03144800122
1	5028	46.218430299647	0.069316692126
1	5033	46.287746991773	0.014829212063
1	5038	46.302576203836	0.003360338809
1	5040	46.305936542645	0.021841452604
1	5048	46.327777995249	0.01488418286
1	5054	46.342662178109	0.007496161807
1	5056	46.350158339916	0.033992645431
1	5064	46.384150985347	0.051718511318
1	5069	46.435869496665	0.019789370148
1	5074	46.455658866813	0.044963939836
1	5079	46.500622806649	0.102928730723
1	5086	46.603551537372	0.015031424282
1	5091	46.618582961654	0.047261330334
1	5096	46.665844291988	0.033395670651
1	5102	46.699239962639	0.004086638678
1	5104	46.703326601317	0.053110570007
1	5112	46.756437171324	0.015987288149
1	5117	46.772424459473	0.121718446478
1	5122	46.894142905951	0.233165506714
1	5130	47.127308412665	0.149778234526
1	5136	47.277086647191	0.032156601435
1	5141	47.309243248626	0.005640223283
1	5143	47.314883471909	0.006130576963
1	5148	47.321014048872	0.004305128851
1	5153	47.325319177723	0.032453233026
1	5162	47.357772410749	0.013461191885
1	5167	47.371233602634	0.038234643193
1	5172	47.409468245827	0.062756462689
1	5179	47.472224708516	0.066593588731
1	5184	47.538818297247	0.054381908047
1	5189	47.593200205294	0.073384570116
1	5194	47.66658477541	0.030780137637
1	5199	47.697364913047	0.002242452228
1	5201	47.699607365275	0.031793469352
1	5209	47.731400834627	0.252424019462
1	5215	47.983824854089	0.10117749713
1	5220	48.085002351219	0.022090263945
1	5225	48.107092615164	0.004749247091
1	5227	48.111841862255	0.062684289064
1	5235	48.174526151319	0.014503688946
1	5240	48.189029840265	0.047563239016
1	5245	48.236593079281	0.019375806606
1	5250	48.255968885887	0.069139145753
1	5256	48.32510803164	0.035598431872
1	5261	48.360706463512	0.156413246576
1	5268	48.517119710088	0.006526388415
1	5270	48.523646098503	0.038248667838
1	5278	48.561894766341	0.020536337053
1	5283	48.582431103394	0.001057722431
1	5285	48.583488825825	0.002540600004
1	5287	48.586029425829	0.176804254952
1	5300	48.762833680781	0.030414945354
1	5305	48.793248626135	0.162395940283
1	5311	48.955644566418	0.0038065898
1	5313	48.959451156218	0.120874697938
1	5322	49.080325854156	0.022222498602
1	5327	49.102548352758	0.047859024807
1	5332	49.150407377565	0.076021204863
1	5337	49.226428582428	0.024168470535
1	5342	49.250597052963	0.022077594598
1	5348	49.272674647561	0.064629340203
1	5353	49.337303987764	0.050451307877
1	5358	49.387755295641	0.005054675078
1	5360	49.392809970719	0.017456553969
1	5368	49.410266524688	0.020266209911
1	5374	49.430532734599	0.030440202825
1	5379	49.460972937424	0.030202671654
1	5385	49.491175609078	0.024212978009
1	5390	49.515388587087	0.02044197708
1	5395	49.535830564167	0.01504845747
1	5400	49.550879021637	0.073453268598
1	5405	49.624332290235	0.104230635034
1	5410	49.728562925269	0.094252459023
1	5416	49.822815384292	0.020729929541
1	5421	49.843545313833	0.047768119542
1	5427	49.891313433375	0.056877266673
1	5433	49.948190700048	0.099740610485
1	5439	50.047931310533	0.112413706904
1	5445	50.160345017437	0.037824753445
1	5451	50.198169770882	0.001536189859
1	5453	50.199705960741	0.009180804223
1	5458	50.208886764964	0.087118826436
1	5467	50.2960055914	0.168756346468
1	5476	50.464761937868	0.100539704989
1	5481	50.565301642857	0.003709891327
1	5483	50.569011534184	0.03975755503
1	5491	50.608769089214	0.025626251133
1	5496	50.634395340347	0.010469440836
1	5501	50.644864781183	0.01285808768
1	5506	50.657722868863	0.014061262485
1	5511	50.671784131348	0.003320894922
1	5513	50.67510502627	0.098947818791
1	5521	50.774052845061	0.018049852788
1	5526	50.792102697849	0.040667355
1	5531	50.832770052849	0.18057425743
1	5537	51.013344310279	0.084974679261
1	5542	51.09831898954	0.00592333357
1	5544	51.10424232311	0.008661297752
1	5549	51.112903620862	0.098573399044
1	5559	51.211477019906	0.009641946919
1	5564	51.221118966825	0.16319238258
1	5572	51.384311349405	0.000517598568
1	5574	51.384828947973	0.017328501378
1	5583	51.402157449351	0.011365816815
1	5588	51.413523266166	0.020376027808
1	5593	51.433899293974	0.035748997247
1	5598	51.469648291221	0.008498575064
1	5604	51.478146866285	0.027177017503
1	5609	51.505323883788	0.003068291151
1	5611	51.508392174939	0.128854794406
1	5619	51.637246969345	0.020185499732
1	5624	51.657432469077	0.018444514426
1	5629	51.675876983503	0.003248958477
1	5631	51.67912594198	0.073126253755
1	5639	51.752252195735	0.107619794257
1	5644	51.859871989992	0.11595089576
1	5652	51.975822885752	0.016023410181
1	5657	51.991846295933	0.169398290464
1	5663	52.161244586397	0.053604975034
1	5668	52.214849561431	0.104527976223
1	5674	52.319377537654	0.135105562918
1	5679	52.454483100572	0.055088800945
1	5684	52.509571901517	0.034287300843
1	5690	52.54385920236	0.019232479284
1	5695	52.563091681644	0.023406293408
1	5700	52.586497975052	0.008271169333
1	5705	52.594769144385	0.001537584387
1	5708	52.596306728772	0.038314647799
1	5716	52.634621376571	0.01746381134
1	5722	52.652085187911	0.072787915422
1	5729	52.724873103333	0.039244891205
1	5734	52.764117994538	0.116183718877
1	5739	52.880301713415	0.153130010138
1	5745	53.033431723553	0.02059240382
1	5750	53.054024127373	0.016529209779
1	5755	53.070553337152	0.069446058532
1	5760	53.139999395684	0.06772128925
1	5766	53.207720684934	0.05263349101
1	5771	53.260354175944	0.058513856275
1	5776	53.318868032219	0.009632541471
1	5781	53.32850057369	0.122911816228
1	5787	53.451412389918	0.061535068734
1	5792	53.512947458652	0.052026495069
1	5797	53.564973953721	0.000114065593
1	5799	53.565088019314	0.00611472121
1	5801	53.571202740524	0.042909532684
1	5813	53.614112273208	0.04697694015
1	5819	53.661089213358	0.074139326079
1	5826	53.735228539437	0.053119065947
1	5831	53.788347605384	0.046929752394
1	5836	53.835277357778	0.060501872102
1	5842	53.89577922988	0.006426890111
1	5844	53.902206119991	0.031196309925
1	5852	53.933402429916	0.044491625237
1	5857	53.977894055153	0.063954622599
1	5862	54.041848677752	0.045429472576
1	5867	54.087278150328	0.057513318684
1	5872	54.144791469012	0.085968512943
1	5877	54.230759981955	0.001141146416
1	5879	54.231901128371	0.018105773975
1	5888	54.250006902346	0.019064572526
1	5893	54.269071474872	0.195231668441
1	5902	54.464303143313	0.035369957246
1	5907	54.499673100559	0.052595310408
1	5912	54.552268410967	0.003173666849
1	5914	54.555442077816	0.00770852435
1	5919	54.563150602166	0.009941297687
1	5925	54.573091899853	0.164353596339
1	5935	54.737445496192	0.008478150403
1	5940	54.745923646595	0.009342091744
1	5945	54.755265738339	0.008561831582
1	5950	54.763827569921	0.065159023918
1	5956	54.828986593839	0.021036774311
1	5961	54.85002336815	0.036042341904
1	5966	54.886065710054	0.058809209905
1	5971	54.944874919959	0.075360070294
1	5976	55.020234990253	0.031162549842
1	5981	55.051397540095	0.001376833167
1	5983	55.052774373262	0.139434029103
1	5993	55.192208402365	0.084711323144
1	5998	55.276919725509	0.064000736737
1	6003	55.340920462246	0.074976594011
1	6009	55.415897056257	0.015742778896
1	6014	55.431639835153	0.069131882139
1	6020	55.500771717292	0.001796409603
1	6022	55.502568126895	0.127698830228
1	6032	55.630266957123	0.026239362628
1	6037	55.656506319751	0.01056213012
1	6042	55.667068449871	0.010917324011
1	6047	55.677985773882	0.092986840772
1	6052	55.770972614654	0.002858303818
1	6054	55.773830918472	0.08702965075
1	6064	55.860860569222	0.001382783484
1	6067	55.862243352706	0.096704513368
1	6076	55.958947866074	0.040664852445
1	6081	55.999612718519	0.060346442732
1	6086	56.059959161251	0.044015973062
1	6091	56.103975134313	0.085275238512
1	6096	56.189250372825	0.019932434733
1	6101	56.209182807558	0.015247399341
1	6106	56.224430206899	0.037503916873
1	6111	56.261934123772	0.129832104008
1	6117	56.39176622778	0.063735928828
1	6122	56.455502156608	2.3591786e-05
1	6124	56.455525748394	0.039655543976
1	6132	56.49518129237	0.002342575388
1	6134	56.497523867758	0.01132061722
1	6139	56.508844484978	0.006018801949
1	6144	56.514863286927	0.11177113471
1	6152	56.626634421637	0.052075948655
1	6157	56.678710370292	0.047151770086
1	6164	56.725862140378	0.035673511386
1	6170	56.761535651764	0.059371117326
1	6175	56.82090676909	0.141771940319
1	6182	56.962678709409	0.125600886697
1	6187	57.088279596106	0.040120491006
1	6193	57.128400087112	0.021851329933
1	6198	57.150251417045	0.015623245971
1	6203	57.165874663016	0.01788396421
1	6209	57.183758627226	0.048559779173
1	6214	57.232318406399	0.000771540048
1	6216	57.233089946447	0.054418429118
1	6224	57.287508375565	0.049813749043
1	6230	57.337322124608	0.0035758368
1	6232	57.340897961408	0.027253747916
1	6240	57.368151709324	0.042238489543
1	6245	57.410390198867	0.065494154638
1	6251	57.475884353505	0.10410141942
1	6257	57.579985772925	0.065172173336
1	6263	57.645157946261	0.002887187654
1	6265	57.648045133915	0.042821763527
1	6275	57.690866897442	0.003397521505
1	6277	57.694264418947	0.03801359047
1	6285	57.732278009417	0.084526051975
1	6291	57.816804061392	0.028135388324
1	6297	57.844939449716	0.000475222194
1	6299	57.84541467191	0.001541928917
1	6301	57.846956600827	0.00752683313
1	6306	57.854483433957	0.049463862487
1	6318	57.903947296444	0.092780547977
1	6325	57.996727844421	0.092610070674
1	6330	58.089337915095	0.045711647489
1	6336	58.135049562584	0.052773213631
1	6341	58.187822776215	0.035530391597
1	6346	58.223353167812	0.067988127372
1	6351	58.291341295184	0.226319429854
1	6360	58.517660725038	0.000289890935
1	6362	58.517950615973	0.032522476015
1	6371	58.550473091988	0.045139398373
1	6376	58.595612490361	0.01315619694
1	6381	58.608768687301	0.016914056724
1	6386	58.625682744025	0.090392535054
1	6391	58.716075279079	0.184405000128
1	6398	58.900480279207	0.052993728852
1	6403	58.953474008059	0.008565278946
1	6408	58.962039287005	0.077342771451
1	6413	59.039382058456	0.062167615144
1	6418	59.1015496736	0.011362987134
1	6423	59.112912660734	0.028238555527
1	6428	59.141151216261	0.014103191168
1	6433	59.155254407429	0.04868397765
1	6439	59.203938385079	0.017846929314
1	6444	59.221785314393	0.020509489755
1	6449	59.242294804148	0.030893296382
1	6454	59.27318810053	0.197650386443
1	6459	59.470838486973	0.005965641489
1	6461	59.476804128462	0.046118275451
1	6470	59.522922403913	0.018852664037
1	6475	59.54177506795	0.005183942375
1	6477	59.546959010325	0.040250501428
1	6485	59.587209511753	0.02257813671
1	6490	59.609787648463	0.07487376423
1	6497	59.684661412693	0.135942630528
1	6504	59.820604043221	0.004544055458
1	6506	59.825148098679	0.037423939783
1	6515	59.862572038462	0.002748017511
1	6517	59.865320055973	0.037845028514
1	6525	59.903165084487	0.1193622139
1	6530	60.022527298387	0.068399849865
1	6535	60.090927148252	0.02111518929
1	6540	60.112042337542	0.004569227369
1	6542	60.116611564911	0.222588865672
1	6553	60.339200430583	0.259044261683
1	6561	60.598244692266	0.029520998945
1	6567	60.627765691211	0.060681505493
1	6572	60.688447196704	0.067834799859
1	6577	60.756281996563	0.016281709709
1	6582	60.772563706272	0.020770151124
1	6588	60.793333857396	0.026629591367
1	6593	60.819963448763	0.158015870246
1	6599	60.977979319009	0.034960407499
1	6604	61.012939726508	0.384756285035
1	6611	61.397696011543	0.149437006496
1	6617	61.547133018039	6.1230026e-05
1	6619	61.547194248065	0.054196645966
1	6628	61.601390894031	0.021025881269
1	6633	61.6224167753	0.026581419111
1	6638	61.648998194411	0.132659281371
1	6646	61.781657475782	0.036433224309
1	6651	61.818090700091	0.007312685165
1	6653	61.825403385256	0.009956678377
1	6661	61.835360063633	0.03045258063
1	6666	61.865812644263	0.010137738169
1	6671	61.875950382432	0.001191814346
1	6673	61.877142196778	0.063641985573
1	6682	61.940784182351	0.006497380963
1	6684	61.947281563314	0.008660524178
1	6689	61.955942087492	0.027894343251
1	6697	61.983836430743	0.015373534504
1	6702	61.999209965247	0.188061269466
1	6708	62.187271234713	0.043141225081
1	6714	62.230412459794	0.041359692006
1	6719	62.2717721518	0.112591957808
1	6725	62.384364109608	0.14302348757
1	6730	62.527387597178	0.006274311778
1	6732	62.533661908956	0.036508074591
1	6740	62.570169983547	0.037931909319
1	6746	62.608101892866	0.027251388014
1	6752	62.63535328088	0.031937913961
1	6757	62.667291194841	0.097285251069
1	6762	62.76457644591	0.016111959306
1	6767	62.780688405216	0.006555805119
1	6769	62.787244210335	0.011863326577
1	6777	62.799107536912	0.12295712767
1	6783	62.922064664582	0.024223241675
1	6788	62.946287906257	0.052620325248
1	6794	62.998908231505	0.020008316116
1	6799	63.018916547621	0.023389594292
1	6804	63.042306141913	0.011125483411
1	6810	63.053431625324	0.048958046405
1	6815	63.102389671729	0.017817158125
1	6820	63.120206829854	0.019377859959
1	6825	63.139584689813	0.036503121779
1	6830	63.176087811592	0.039568617389
1	6836	63.215656428981	0.132143417597
1	6842	63.347799846578	0.046116418562
1	6847	63.39391626514	0.002290135189
1	6849	63.396206400329	0.001700086714
1	6851	63.397906487043	0.007833617859
1	6856	63.405740104902	0.03682394113
1	6867	63.442564046032	0.05706981602
1	6872	63.499633862052	0.045915227864
1	6878	63.545549089916	0.128646243475
1	6884	63.674195333391	0.00826382973
1	6889	63.682459163121	0.01823758793
1	6894	63.700696751051	0.016686758129
1	6899	63.71738350918	0.023281273621
1	6904	63.740664782801	0.005557104726
1	6906	63.746221887527	0.000373583556
1	6908	63.746595471083	0.025096456567
1	6919	63.77169192765	0.101092025093
1	6924	63.872783952743	0.003740795306
1	6926	63.876524748049	0.051824477019
1	6934	63.928349225068	0.140938672474
1	6941	64.069287897542	0.01702878439
1	6946	64.086316681932	0.023749293754
1	6951	64.110065975686	0.008125981641
1	6956	64.118191957327	0.055673281421
1	6961	64.173865238748	0.009272955662
1	6967	64.18313819441	0.002054133964
1	6969	64.185192328374	0.060330453066
1	6977	64.24552278144	0.052293474912
1	6982	64.297816256352	0.129133424523
1	6987	64.426949680875	0.021781443269
1	6993	64.448731124144	0.134752551635
1	6999	64.583483675779	0.066575866521
1	7005	64.6500595423	0.016534890459
1	7012	64.666594432759	0.088531185178
1	7019	64.755125617937	0.066557273329
1	7025	64.821682891266	0.084350547492
1	7030	64.906033438758	0.181729498366
1	7035	65.087762937124	0.180462627875
1	7042	65.268225564999	0.016040046865
1	7048	65.284265611864	0.018793257626
1	7053	65.30305886949	0.003827461877
1	7055	65.306886331367	0.09539393361
1	7063	65.402280264977	0.044033641478
1	7068	65.446313906455	0.160689618
1	7074	65.607003524455	0.062435897124
1	7080	65.669439421579	0.013944120604
1	7085	65.683383542183	0.09441039517
1	7090	65.777793937353	0.032498264483
1	7096	65.810292201836	0.041487726396
1	7103	65.851779928232	0.038565553614
1	7108	65.890345481846	0.019349087406
1	7113	65.909694569252	0.00666817139
1	7115	65.916362740642	0.021337427661
1	7123	65.937700168303	0.115209032908
1	7132	66.052909201211	0.012242213544
1	7137	66.065151414755	0.030512883641
1	7142	66.095664298396	0.012767237869
1	7148	66.108431536265	0.016415148843
1	7153	66.124846685108	0.005554132242
1	7155	66.13040081735	0.008664573556
1	7160	66.139065390906	0.090500457145
1	7169	66.229565848051	0.011583315622
1	7174	66.241149163673	0.0190127495
1	7179	66.260161913173	0.084788158695
1	7185	66.344950071868	0.140425668264
1	7191	66.485375740132	0.066726299402
1	7197	66.552102039534	0.063605850326
1	7203	66.61570788986	0.014400280674
1	7208	66.630108170534	0.001889233819
1	7210	66.631997404353	0.170855197377
1	7219	66.80285260173	0.056294224115
1	7225	66.859146825845	0.033888372813
1	7231	66.893035198658	0.099342267905
1	7236	66.992377466563	0.031673188288
1	7242	67.024050654851	0.108414520801
1	7248	67.132465175652	0.046508733867
1	7253	67.178973909519	0.041134423929
1	7258	67.220108333448	0.010577162421
1	7263	67.230685495869	0.010963824217
1	7268	67.241649320086	0.00553565761
1	7270	67.247184977696	0.039644659476
1	7278	67.286829637172	0.04318532748
1	7283	67.330014964652	0.009337418214
1	7288	67.339352382866	0.179628090002
1	7294	67.518980472868	0.126549547544
1	7300	67.645530020412	0.01486210792
1	7305	67.660392128332	0.038985438761
1	7310	67.699377567093	0.065604232261
1	7315	67.764981799354	0.054297102874
1	7320	67.819278902228	0.028092048028
1	7325	67.847370950256	0.00588757146
1	7327	67.853258521716	0.061621068247
1	7335	67.914879589963	0.019060252564
1	7340	67.933939842527	0.042328465859
1	7345	67.976268308386	0.045210778978
1	7350	68.021479087364	0.134191613321
1	7356	68.155670700685	0.01171614576
1	7361	68.167386846445	0.002744004201
1	7363	68.170130850646	0.03769082543
1	7371	68.207821676076	0.029961539641
1	7376	68.237783215717	0.046615118536
1	7381	68.284398334253	0.111879206971
1	7386	68.396277541224	0.005547583274
1	7388	68.401825124498	0.012051002156
1	7396	68.413876126654	0.033181360726
1	7401	68.44705748738	0.012991183451
1	7406	68.460048670831	0.078304028083
1	7411	68.538352698914	0.04555031923
1	7417	68.583903018144	0.021060293293
1	7422	68.604963311437	0.005246771239
1	7424	68.610210082676	0.071439965153
1	7432	68.681650047829	0.054139785009
1	7437	68.735789832838	0.019563284978
1	7442	68.755353117816	0.024392565999
1	7447	68.779745683815	0.000673470694
1	7449	68.780419154509	0.003079519616
1	7451	68.783498674125	0.044233466398
1	7462	68.827732140523	0.003685633187
1	7464	68.83141777371	0.092126399749
1	7473	68.923544173459	0.018762002421
1	7478	68.94230617588	0.12775114988
1	7483	69.07005732576	0.000441056718
1	7485	69.070498382478	0.013759703512
1	7490	69.08425808599	0.15309536734
1	7498	69.23735345333	0.040451398622
1	7504	69.277804851952	0.077060920321
1	7509	69.354865772273	0.012965232653
1	7514	69.367831004926	0.068213415521
1	7520	69.436044420447	0.036908474482
1	7526	69.472952894929	0.000278626935
1	7528	69.473231521864	0.12937027382
1	7536	69.602601795684	0.074584959432
1	7542	69.677186755116	0.090210852443
1	7548	69.767397607559	0.076055618251
1	7553	69.84345322581	0.235459583768
1	7559	70.078912809578	0.145403902309
1	7567	70.224316711887	0.072760433104
1	7572	70.297077144991	0.001506999071
1	7574	70.298584144062	0.021505482099
1	7583	70.320089626161	0.03523560603
1	7588	70.355325232191	0.030737232448
1	7594	70.386062464639	0.069488978177
1	7599	70.455551442816	0.036736898588
1	7604	70.492288341404	0.022326136084
1	7609	70.514614477488	0.001826757124
1	7611	70.516441234612	0.007584508359
1	7616	70.524025742971	0.154638063774
1	7625	70.678663806745	0.089503809679
1	7630	70.768167616424	0.0847570372
1	7636	70.852924653624	0.030208387772
1	7641	70.883133041396	0.01298505722
1	7646	70.896118098616	0.103330304674
1	7651	70.99944840329	0.035071282416
1	7656	71.034519685706	0.015755922851
1	7661	71.050275608557	0.114338833322
1	7666	71.164614441879	0.051009657314
1	7671	71.215624099193	0.025052304811
1	7676	71.240676404004	0.1897682671
1	7681	71.430444671104	0.073907156688
1	7686	71.504351827792	0.087709145108
1	7692	71.5920609729	0.012939905576
1	7698	71.605000878476	0.121965321313
1	7705	71.726966199789	0.11585457007
1	7711	71.842820769859	0.024598532934
1	7716	71.867419302793	0.085748438317
1	7722	71.95316774111	0.170021252343
1	7729	72.123188993453	0.030052482103
1	7734	72.153241475556	0.102894938444
1	7742	72.256136414	0.133733436141
1	7750	72.389869850141	0.0194015573
1	7755	72.409271407441	0.035693193242
1	7760	72.444964600683	0.00121612776
1	7762	72.446180728443	0.090280418472
1	7770	72.536461146915	0.016129490647
1	7775	72.552590637562	0.013672337319
1	7780	72.566262974881	0.052776248215
1	7786	72.619039223096	0.090708297158
1	7791	72.709747520254	0.019927238804
1	7796	72.729674759058	0.064501921576
1	7801	72.794176680634	0.016357749392
1	7806	72.810534430026	0.107748962264
1	7811	72.91828339229	0.025857386934
1	7816	72.944140779224	0.02188257868
1	7821	72.966023357904	0.034220298075
1	7826	73.000243655979	0.106609797447
1	7832	73.106853453426	0.181193828156
1	7838	73.288047281582	0.09022544453
1	7843	73.378272726112	0.009787482445
1	7848	73.388060208557	0.028577129405
1	7853	73.416637337962	0.011048324543
1	7860	73.427685662505	0.031060316528
1	7866	73.458745979033	0.080470169922
1	7872	73.539216148955	0.005647901866
1	7874	73.544864050821	0.007178146686
1	7879	73.552042197507	0.120977956117
1	7888	73.673020153624	0.003766849579
1	7890	73.676787003203	0.064067772262
1	7900	73.740854775465	0.025122629674
1	7905	73.765977405139	0.008826030362
1	7910	73.774803435501	0.020407536976
1	7915	73.795210972477	0.00381961134
1	7917	73.799030583817	0.078544649652
1	7926	73.877575233469	0.06847856497
1	7931	73.946053798439	0.145315068386
1	7937	74.091368866825	0.053948179968
1	7942	74.145317046793	0.033021038876
1	7947	74.178338085669	0.052671451061
1	7952	74.23100953673	0.105766949408
1	7958	74.336776486138	0.040862014917
1	7964	74.377638501055	0.008564959655
1	7969	74.38620346071	0.040884921609
1	7974	74.427088382319	0.063530565221
1	7979	74.49061894754	0.053757563088
1	7984	74.544376510628	0.016547147859
1	7989	74.560923658487	0.11300030438
1	7996	74.673923962867	0.024513151547
1	8001	74.698437114414	0.028461348685
1	8006	74.726898463099	0.030637981833
1	8011	74.757536444932	0.027100408564
1	8016	74.784636853496	0.00325200812
1	8018	74.787888861616	0.062298709161
1	8029	74.850187570777	0.110313731097
1	8035	74.960501301874	0.004274002908
1	8037	74.964775304782	0.068286051295
1	8046	75.033061356077	0.001909692213
1	8048	75.03497104829	0.071070445075
1	8056	75.106041493365	0.045534927723
1	8062	75.151576421088	0.095994953717
1	8068	75.247571374805	0.015391555039
1	8073	75.262962929844	0.079744158247
1	8081	75.342707088091	0.009516926778
1	8086	75.352224014869	0.045332383804
1	8092	75.397556398673	0.070576584845
1	8098	75.468132983518	0.142946196922
1	8106	75.61107918044	0.238077599959
1	8112	75.849156780399	0.072527845903
1	8118	75.921684626302	0.068417627344
1	8123	75.990102253646	0.004722783212
1	8125	75.994825036858	0.031703059311
1	8133	76.026528096169	0.147044823679
1	8139	76.173572919848	0.02665945604
1	8144	76.200232375888	0.099606505598
1	8150	76.299838881486	0.096102719858
1	8156	76.395941601344	0.069870078949
1	8162	76.465811680293	0.020428873776
1	8167	76.486240554069	0.120213162951
1	8173	76.60645371702	0.06111152219
1	8178	76.66756523921	0.098539347535
1	8184	76.766104586745	0.044029452258
1	8189	76.810134039003	0.03498287703
1	8195	76.845116916033	0.062411622828
1	8200	76.907528538861	0.003236994332
1	8202	76.910765533193	0.031538144724
1	8212	76.942303677917	0.09634856946
1	8220	77.038652247377	0.000612692102
1	8222	77.039264939479	0.019417215155
1	8230	77.058682154634	0.04843115512
1	8237	77.107113309754	0.045032324899
1	8244	77.152145634653	0.002505956594
1	8246	77.154651591247	0.07064875511
1	8255	77.225300346357	0.017095874156
1	8260	77.242396220513	0.102842206052
1	8266	77.345238426565	0.347593870656
1	8274	77.692832297221	0.012396314926
1	8279	77.705228612147	0.018085570341
1	8284	77.723314182488	0.096037914551
1	8290	77.819352097039	0.098196106427
1	8295	77.917548203466	0.068455606994
1	8301	77.98600381046	0.065946782509
1	8306	78.051950592969	0.010825534308
1	8311	78.062776127277	0.047715977264
1	8317	78.110492104541	0.008184577402
1	8322	78.118676681943	0.067148651885
1	8329	78.185825333828	0.00932894321
1	8334	78.195154277038	0.168053195587
1	8340	78.363207472625	0.056004255589
1	8346	78.419211728214	0.076157109997
1	8353	78.495368838211	0.033854619592
1	8358	78.529223457803	0.016335769233
1	8363	78.545559227036	0.174432962826
1	8369	78.719992189862	0.038479416103
1	8375	78.758471605965	0.108596920712
1	8381	78.867068526677	0.036072310472
1	8387	78.903140837149	0.00925970377
1	8392	78.912400540919	0.161392159535
1	8398	79.073792700454	0.087533352767
1	8404	79.161326053221	0.021276940954
1	8409	79.182602994175	0.116402740127
1	8416	79.299005734302	0.025933506929
1	8421	79.324939241231	0.013211851862
1	8428	79.338151093093	0.035796005706
1	8434	79.373947098799	0.031075345816
1	8439	79.405022444615	0.013751853463
1	8444	79.418774298078	0.017071859023
1	8449	79.435846157101	0.052148509474
1	8454	79.487994666575	0.042349986832
1	8460	79.530344653407	0.153773714898
1	8467	79.684118368305	0.019734983586
1	8473	79.703853351891	0.033140917823
1	8479	79.736994269714	0.006876245718
1	8482	79.743870515432	0.005050534214
1	8487	79.748921049646	0.099327770571
1	8496	79.848248820217	0.056984830055
1	8501	79.905233650272	0.011432996223
1	8507	79.916666646495	0.011139051272
1	8512	79.927805697767	0.104633130642
1	8517	80.032438828409	0.003541026825
1	8519	80.035979855234	0.115710929732
1	8528	80.151690784966	0.006386998879
1	8530	80.158077783845	0.239575287743
1	8538	80.397653071588	0.072925814036
1	8544	80.470578885624	0.000826471561
1	8546	80.471405357185	0.0072885955
1	8551	80.478693952685	0.013285520415
1	8556	80.4919794731	0.047543482265
1	8564	80.539522955365	0.029690824622
1	8569	80.569213779987	0.009023874149
1	8574	80.578237654136	0.033158374177
1	8579	80.611396028313	0.064698907647
1	8584	80.67609493596	0.003423722984
1	8586	80.679518658944	0.058465987126
1	8594	80.73798464607	0.045712760206
1	8599	80.783697406276	0.056574195835
1	8605	80.840271602111	0.0672211184
1	8610	80.907492720511	0.079963419478
1	8616	80.987456139989	0.028801521112
1	8621	81.016257661101	0.047141568866
1	8626	81.063399229967	0.033425222933
1	8631	81.0968244529	0.046338594102
1	8636	81.143163047002	0.032145592521
1	8643	81.175308639523	0.126456460735
1	8648	81.301765100258	0.126570476076
1	8654	81.428335576334	0.063937128123
1	8659	81.492272704457	0.070133615929
1	8664	81.562406320386	0.002549392261
1	8666	81.564955712647	0.012225892946
1	8671	81.577181605593	0.007131956429
1	8676	81.584313562022	0.011210295899
1	8684	81.595523857921	0.007238832881
1	8686	81.602762690802	0.007989924211
1	8691	81.610752615013	0.011948863457
1	8699	81.62270147847	0.004473569771
1	8701	81.627175048241	0.036599012818
1	8711	81.663774061059	0.006598154879
1	8713	81.670372215938	0.004804741593
1	8718	81.675176957531	0.043246261162
1	8727	81.718423218693	0.042344502812
1	8732	81.760767721505	0.02302182266
1	8737	81.783789544165	0.055747814237
1	8743	81.839537358402	0.015684701257
1	8748	81.855222059659	0.020993002338
1	8753	81.876215061997	0.0079383657
1	8756	81.884153427697	0.018212507427
1	8764	81.902365935124	0.325499121944
1	8770	82.227865057068	0.013570132957
1	8775	82.241435190025	0.015664013669
1	8780	82.257099203694	0.021352765093
1	8785	82.278451968787	0.001525470377
1	8787	82.279977439164	0.019518354479
1	8796	82.299495793643	0.013404367301
1	8801	82.312900160944	0.017109714547
1	8806	82.330009875491	0.044438898488
1	8811	82.374448773979	0.026325136667
1	8816	82.400773910646	0.073314720908
1	8821	82.474088631554	0.163834643341
1	8827	82.637923274895	0.039560736809
1	8832	82.677484011704	0.039075651553
1	8837	82.716559663257	0.120761647795
1	8844	82.837321311052	0.094178411421
1	8850	82.931499722473	0.012924726695
1	8856	82.944424449168	0.002885583185
1	8858	82.947310032353	0.123147165375
1	8866	83.070457197728	0.007379897688
1	8871	83.077837095416	0.01081800829
1	8876	83.088655103706	0.065111845521
1	8881	83.153766949227	0.030748317264
1	8886	83.184515266491	0.045935603829
1	8891	83.23045087032	0.101701347197
1	8898	83.332152217517	0.008499482591
1	8903	83.340651700108	0.035001289613
1	8909	83.375652989721	0.014455296866
1	8914	83.390108286587	0.053858035991
1	8919	83.443966322578	0.026144710865
1	8924	83.470111033443	0.043820582557
1	8929	83.513931616	0.067337837424
1	8934	83.581269453424	0.001250340382
1	8936	83.582519793806	0.008648970494
1	8941	83.5911687643	0.000910014474
1	8943	83.592078778774	0.017026607756
1	8951	83.60910538653	0.055101827141
1	8959	83.664207213671	0.066572090254
1	8965	83.730779303925	0.037459978828
1	8971	83.768239282753	0.005003156264
1	8973	83.773242439017	0.035659700236
1	8982	83.808902139253	0.04409611477
1	8987	83.852998254023	0.074570790532
1	8992	83.927569044555	0.020828069831
1	8997	83.948397114386	0.034343749281
1	9002	83.982740863667	0.086321608658
1	9007	84.069062472325	0.013356102127
1	9012	84.082418574452	0.086965514147
1	9017	84.169384088599	0.022785779681
1	9022	84.19216986828	0.120215835502
1	9028	84.312385703782	0.022242377974
1	9034	84.334628081756	0.098464552564
1	9040	84.43309263432	0.009302361235
1	9045	84.442394995555	0.007070271504
1	9047	84.449465267059	0.010623361514
1	9055	84.460088628573	0.091510489889
1	9060	84.551599118462	0.163114485679
1	9067	84.714713604141	0.023237123097
1	9072	84.737950727238	0.098056919439
1	9077	84.836007646677	0.245708720138
1	9082	85.081716366815	0.202720887287
1	9090	85.284437254102	0.044160723294
1	9095	85.328597977396	0.034537829439
1	9101	85.363135806835	0.119282339689
1	9107	85.482418146524	0.04469182446
1	9113	85.527109970984	0.163431608406
1	9120	85.69054157939	0.087282452376
1	9126	85.777824031766	0.08251992926
1	9132	85.860343961026	0.146314677194
1	9139	86.00665863822	0.034083656578
1	9144	86.040742294798	0.034520690527
1	9149	86.075262985325	0.040520997642
1	9154	86.115783982967	0.068108236355
1	9159	86.183892219322	0.013937628834
1	9164	86.197829848156	0.058114189199
1	9169	86.255944037355	0.058064027726
1	9175	86.314008065081	0.017005641275
1	9180	86.331013706356	0.009212594411
1	9185	86.340226300767	0.06227552767
1	9190	86.402501828437	0.047199149507
1	9196	86.449700977944	0.032442046485
1	9201	86.482143024429	0.045848008422
1	9206	86.527991032851	0.021656805157
1	9211	86.549647838008	0.009222325199
1	9216	86.558870163207	0.032730804802
1	9221	86.591600968009	0.028518255698
1	9227	86.620119223707	0.036959374854
1	9232	86.657078598561	0.018104817047
1	9237	86.675183415608	0.145349821151
1	9244	86.820533236759	0.051707568039
1	9249	86.872240804798	0.172205681356
1	9256	87.044446486154	0.011969231869
1	9261	87.056415718023	0.045169998081
1	9266	87.101585716104	0.146927443016
1	9272	87.24851315912	0.038466863674
1	9277	87.286980022794	0.084868986489
1	9282	87.371849009283	0.032991638448
1	9287	87.404840647731	0.018798788234
1	9293	87.423639435965	0.019163969877
1	9298	87.442803405842	0.079253185912
1	9305	87.522056591754	0.321417795393
1	9310	87.843474387147	0.017282625943
1	9315	87.86075701309	0.167764921777
1	9325	88.028521934867	0.051619891179
1	9330	88.080141826046	0.065754221066
1	9335	88.145896047112	0.039295559743
1	9341	88.185191606855	0.045447711431
1	9346	88.230639318286	0.009205218513
1	9351	88.239844536799	0.052737864226
1	9356	88.292582401025	0.027778094265
1	9361	88.32036049529	0.031184855451
1	9367	88.351545350741	0.050796218722
1	9372	88.402341569463	0.121485282686
1	9378	88.523826852149	0.046315043858
1	9383	88.570141896007	0.013959971936
1	9388	88.584101867943	0.01743909924
1	9393	88.601540967183	0.003900359241
1	9395	88.605441326424	0.06929443438
1	9404	88.674735760804	0.058102289769
1	9409	88.732838050573	0.005061667775
1	9411	88.737899718348	0.037664936405
1	9419	88.775564654753	0.05959587814
1	9424	88.835160532893	0.047795456079
1	9429	88.882955988972	0.000927020654
1	9431	88.883883009626	0.003726411014
1	9433	88.88760942064	0.00691989534
1	9438	88.89452931598	0.01113753059
1	9446	88.90566684657	0.036828713371
1	9454	88.942495559941	0.024465378625
1	9460	88.966960938566	0.04961095108
1	9465	89.016571889646	0.005124250656
1	9467	89.021696140302	0.078363759496
1	9477	89.100059899798	0.057222595107
1	9483	89.157282494905	0.027851589031
1	9488	89.185134083936	0.003793169282
1	9491	89.188927253218	0.030444396962
1	9499	89.21937165018	0.011205564579
1	9504	89.230577214759	0.028493620955
1	9509	89.259070835714	0.009593404078
1	9514	89.268664239792	0.014141234527
1	9519	89.282805474319	0.001089722515
1	9521	89.283895196834	0.068982464036
1	9529	89.35287766087	0.028730651655
1	9534	89.381608312525	0.012243192329
1	9539	89.393851504854	0.116958088887
1	9544	89.510809593741	0.074364324148
1	9549	89.585173917889	0.018103757187
1	9554	89.603277675076	0.055658816158
1	9559	89.658936491234	0.048824989034
1	9564	89.707761480268	0.138042054082
1	9571	89.84580353435	0.003981554053
1	9573	89.849785088403	0.016334731722
1	9581	89.866119820125	0.018270813654
1	9586	89.884390633779	0.029144227973
1	9591	89.913534861752	0.030009906185
1	9596	89.943544767937	0.031489376405
1	9601	89.975034144342	0.022761694119
1	9606	89.997795838461	0.028800885261
1	9611	90.026596723722	0.019044086121
1	9616	90.045640809843	0.097239148508
1	9623	90.142879958351	0.004560847163
1	9625	90.147440805514	0.002857022626
1	9627	90.15029782814	0.025014037177
1	9638	90.175311865317	0.012092160494
1	9643	90.187404025811	0.005285779249
1	9645	90.19268980506	0.023852830786
1	9653	90.216542635846	0.046566187474
1	9658	90.26310882332	0.094946986935
1	9663	90.358055810255	0.111617298696
1	9669	90.469673108951	0.032064717891
1	9674	90.501737826842	0.115349580113
1	9680	90.617087406955	0.025163862775
1	9685	90.64225126973	0.067826230143
1	9690	90.710077499873	0.102041732055
1	9696	90.812119231928	0.054416332815
1	9701	90.866535564743	0.233470139667
1	9707	91.10000570441	0.045869048535
1	9712	91.145874752945	0.044148049551
1	9717	91.190022802496	0.027231736428
1	9725	91.217254538924	0.125645828836
1	9730	91.34290036776	0.035750846831
1	9735	91.378651214591	0.098036128587
1	9740	91.476687343178	0.003249081181
1	9742	91.479936424359	0.020940850798
1	9750	91.500877275157	0.014534548929
1	9755	91.515411824086	0.0086316729
1	9760	91.524043496986	0.026910755258
1	9766	91.550954252244	0.004123573437
1	9768	91.555077825681	0.007964908761
1	9773	91.563042734442	0.040778060998
1	9781	91.60382079544	0.02928523688
1	9787	91.63310603232	0.062618705346
1	9793	91.695724737666	0.022070698042
1	9798	91.717795435708	0.122806887356
1	9803	91.840602323064	0.000819184204
1	9805	91.841421507268	0.014829217121
1	9815	91.856250724389	0.054476559307
1	9820	91.910727283696	0.046318572371
1	9825	91.957045856067	0.04379572682
1	9830	92.000841582887	0.039236968039
1	9836	92.040078550926	0.010188223044
1	9841	92.05026677397	0.005776035992
1	9843	92.056042809962	0.066715299425
1	9852	92.122758109387	0.027203391564
1	9857	92.149961500951	0.037867313705
1	9862	92.187828814656	0.183445993303
1	9871	92.371274807959	0.045692053655
1	9876	92.416966861614	0.01258264315
1	9881	92.429549504764	0.019657840564
1	9886	92.449207345328	0.060543349492
1	9892	92.50975069482	0.008614509039
1	9897	92.518365203859	0.037871211249
1	9902	92.556236415108	0.081044564478
1	9907	92.637280979586	0.151212973787
1	9912	92.788493953373	0.192987426728
1	9919	92.981481380101	0.044193599601
1	9924	93.025674979702	0.081031323883
1	9929	93.106706303585	0.005751597445
1	9931	93.11245790103	0.022044318673
1	9939	93.134502219703	0.025647236664
1	9944	93.160149456367	0.032073856906
1	9949	93.192223313273	0.135736739493
1	9954	93.327960052766	0.020477871002
1	9959	93.348437923768	0.053381305474
1	9966	93.401819229242	0.01073189917
1	9971	93.412551128412	0.105731544167
1	9977	93.518282672579	0.033818181622
1	9982	93.552100854201	0.048893820939
1	9987	93.60099467514	0.015945140458
1	9992	93.616939815598	0.015108615054
1	9997	93.632048430652	0.009766696284
1	10002	93.641815126936	0.012405321254
1	10007	93.65422044819	0.051028093632
1	10012	93.705248541822	0.020436991916
1	10017	93.725685533738	0.084441286743
1	10023	93.810126820481	0.040494609086
1	10030	93.850621429567	0.097402738456
1	10036	93.948024168023	0.016921150826
1	10041	93.964945318849	0.012394740022
1	10046	93.977340058871	0.15919541202
1	10056	94.136535470891	0.01752346089
1	10062	94.154058931781	0.085460153392
1	10067	94.239519085173	0.002725816194
1	10069	94.242244901367	0.038031326722
1	10077	94.280276228089	0.000328601236
1	10079	94.280604829325	0.044071688265
1	10088	94.32467651759	0.137497130882
1	10096	94.462173648472	0.034636827558
1	10101	94.49681047603	0.020703748661
1	10106	94.517514224691	0.01635754108
1	10111	94.533871765771	0.001846540556
1	10113	94.535718306327	0.001938103672
1	10115	94.537656409999	0.038866778421
1	10126	94.57652318842	0.001818428107
1	10128	94.578341616527	0.006264722992
1	10130	94.584606339519	0.011586523223
1	10138	94.596192862742	0.002256520145
1	10140	94.598449382887	0.152251660394
1	10154	94.750701043281	0.001295592907
1	10156	94.751996636188	0.109792433806
1	10164	94.861789069994	0.026244098944
1	10169	94.888033168938	0.049831595359
1	10174	94.937864764297	0.008100583512
1	10179	94.945965347809	0.063699004467
1	10184	95.009664352276	0.059123755748
1	10190	95.068788108024	0.008743981536
1	10195	95.07753208956	0.054659110839
1	10201	95.132191200399	0.002380810715
1	10203	95.134572011114	0.030668700437
1	10211	95.165240711551	0.014806232619
1	10216	95.18004694417	0.048670207064
1	10221	95.228717151234	0.006698201736
1	10223	95.23541535297	0.014827911948
1	10231	95.250243264918	0.20166748961
1	10236	95.451910754528	0.030233287269
1	10241	95.482144041797	0.032358925951
1	10246	95.514502967748	0.001121698625
1	10248	95.515624666373	0.181129705938
1	10257	95.696754372311	0.007835608978
1	10262	95.704589981289	0.071327361027
1	10267	95.775917342316	0.029923243066
1	10272	95.805840585382	0.105572987445
1	10278	95.911413572827	0.021656674034
1	10283	95.933070246861	0.008309182529
1	10288	95.94137942939	0.01330816594
1	10293	95.95468759533	0.001443026599
1	10295	95.956130621929	0.005066043991
1	10297	95.96119666592	0.128127667917
1	10310	96.089324333837	0.070873788727
1	10315	96.160198122564	0.000145109628
1	10317	96.160343232192	0.015911682623
1	10325	96.176254914815	0.105411900972
1	10330	96.281666815787	0.004819048399
1	10332	96.286485864186	0.021922245928
1	10340	96.308408110114	0.016348942337
1	10346	96.324757052451	0.039069666878
1	10351	96.363826719329	0.039639110465
1	10356	96.403465829794	0.000640961334
1	10358	96.404106791128	0.052202761087
1	10366	96.456309552215	0.019063855472
1	10371	96.475373407687	0.003010322545
1	10373	96.478383730232	0.000660042198
1	10375	96.47904377243	0.011709290362
1	10383	96.490753062792	0.028570845579
1	10391	96.519323908371	0.034470554378
1	10396	96.553794462749	0.065187741497
1	10401	96.618982204246	0.031965056111
1	10406	96.650947260357	0.008704400099
1	10411	96.659651660456	0.02286457582
1	10416	96.682516236276	0.001430296408
1	10418	96.683946532684	0.054207129183
1	10427	96.738153661867	0.136619306834
1	10433	96.874772968701	0.028304245453
1	10438	96.903077214154	0.141958854214
1	10443	97.045036068368	0.032044771847
1	10450	97.077080840215	0.030417971394
1	10455	97.107498811609	0.010738769967
1	10460	97.118237581576	0.044476447657
1	10465	97.162714029233	0.176433370783
1	10473	97.339147400016	0.023065107977
1	10478	97.362212507993	0.023925112733
1	10483	97.386137620726	0.016217255035
1	10488	97.402354875761	0.134643702433
1	10494	97.536998578194	0.043554611617
1	10500	97.580553189811	0.036077819134
1	10505	97.616631008945	0.046067538433
1	10510	97.662698547378	0.007580547001
1	10515	97.670279094379	0.000791521253
1	10517	97.671070615632	0.156636422552
1	10526	97.827707038184	0.04339707156
1	10531	97.871104109744	0.004837797319
1	10533	97.875941907063	0.009986304226
1	10541	97.885928211289	0.063706148604
1	10546	97.949634359893	0.021971794997
1	10551	97.97160615489	0.016207353654
1	10556	97.987813508544	0.087226443921
1	10561	98.075039952465	0.097941608452
1	10568	98.172981560917	0.034247501675
1	10573	98.207229062592	0.021911042096
1	10578	98.229140104688	0.089603926046
1	10583	98.318744030734	0.010887725194
1	10588	98.329631755928	0.017592350772
1	10593	98.3472241067	0.039841025963
1	10598	98.387065132663	0.09932102589
1	10603	98.486386158553	0.011267872457
1	10608	98.49765403101	0.05230609574
1	10614	98.54996012675	0.035349895448
1	10619	98.585310022198	0.02618412609
1	10625	98.611494148288	0.124876528054
1	10631	98.736370676342	0.001678318675
1	10633	98.738048995017	0.008926589443
1	10638	98.74697558446	0.048122465567
1	10647	98.795098050027	0.019694842469
1	10652	98.814792892496	0.066237738414
1	10658	98.88103063091	0.083664948163
1	10663	98.964695579073	0.069041105785
1	10670	99.033736684858	0.051149260227
1	10675	99.084885945085	0.012849792929
1	10680	99.097735738014	0.177931988019
1	10685	99.275667726033	0.102949595032
1	10690	99.378617321065	0.001628387143
1	10692	99.380245708208	0.038549029123
1	10700	99.418794737331	0.009237422723
1	10705	99.428032160054	0.02162472357
1	10710	99.449656883624	0.022817670756
1	10715	99.47247455438	0.019831819264
1	10720	99.492306373644	0.027379962593
1	10725	99.519686336237	0.046797918652
1	10730	99.566484254889	0.098179872388
1	10735	99.664664127277	0.118687761528
1	10742	99.783351888805	0.011179284116
1	10747	99.794531172921	0.001069065114
1	10749	99.795600238035	0.004998920495
1	10751	99.80059915853	0.06515657604
1	10762	99.86575573457	0.08012106149
1	10769	99.94587679606	0.062799014068
1	10775	100.008675810128	0.049316544649
1	10780	100.057992354777	0.030527222796
1	10785	100.088519577573	0.067713299083
1	10790	100.156232876656	0.014415625197
1	10795	100.170648501853	0.072867645906
1	10801	100.243516147759	0.177147325884
1	10807	100.420663473643	0.012199814372
1	10812	100.432863288015	0.007777575634
1	10817	100.440640863649	0.090845469881
1	10825	100.53148633353	0.080757819594
1	10832	100.612244153124	0.033303059233
1	10837	100.645547212357	0.004761367619
1	10839	100.650308579976	0.007406355065
1	10844	100.657714935041	0.133751172233
1	10853	100.791466107274	0.023740074284
1	10858	100.815206181558	0.008359684333
1	10863	100.823565865891	0.043087413742
1	10869	100.866653279633	0.076534765421
1	10875	100.943188045054	0.065846084038
1	10881	101.009034129092	0.008724625125
1	10886	101.017758754217	0.077364072987
1	10892	101.095122827204	0.022544374177
1	10897	101.117667201381	0.024102642695
1	10902	101.141769844076	0.024216206663
1	10908	101.165986050739	0.028421404638
1	10915	101.194407455377	0.018802952353
1	10920	101.21321040773	0.036284573152
1	10925	101.249494980882	0.039417572221
1	10931	101.288912553103	0.000367436497
1	10933	101.2892799896	0.049497052423
1	10942	101.338777042023	0.006303638467
1	10944	101.34508068049	0.200997191841
1	10953	101.546077872331	0.053574813276
1	10958	101.599652685607	0.010484031441
1	10964	101.610136717048	0.017301000796
1	10969	101.627437717844	0.074347645313
1	10974	101.701785363157	0.078944671305
1	10980	101.780730034462	0.025373555288
1	10985	101.80610358975	0.008836226147
1	10990	101.814939815897	0.029053555663
1	10996	101.84399337156	0.024654616435
1	11001	101.868647987995	0.006684483147
1	11003	101.875332471142	0.075017858843
1	11012	101.950350329985	0.036384439437
1	11019	101.986734769422	0.013655891943
1	11024	102.000390661365	0.193838960535
1	11032	102.1942296219	0.0601989042
1	11037	102.2544285261	0.01432329368
1	11042	102.26875181978	0.00252028651
1	11044	102.27127210629	0.152941527367
1	11053	102.424213633657	0.106501259086
[...]
19	23832	222.277003709056	1.2884605227981
19	24004	223.565464231854	4.5654098776395
19	24517	228.130874109493	0.96338927064338
19	24629	229.094263380136	0.30875871096261
19	24675	229.403022091099	5.1311612743027
19	25224	234.534183365402	0.29191316207755
19	25248	234.82609652748	1.1705903338714
19	25354	235.996686861351	1.0305260307148
19	25495	237.027212892066	1.0267074605148
19	25628	238.053920352581	0.20367644792901
19	25639	238.25759680051	0.8794439233469
19	25726	239.137040723857	1.0329820985274
19	25810	240.170022822384	0.70339190680163
19	25935	240.873414729186	0.079916702555131
19	25939	240.953331431741	1.3895734079096
19	26102	242.342904839651	0.59608590656406
19	26161	242.938990746215	5.776776946143
19	26784	248.715767692358	2.3272055166796
19	27061	251.042973209038	0.27586413065737
19	27095	251.318837339695	0.015874927094673
19	27096	251.33471226679	0.66196676483079
19	27149	251.996679031621	0.60996675758048
19	27201	252.606645789201	0.33608960154101
19	27218	252.942735390742	3.1902478932641
19	27541	256.132983284006	2.740353662036
19	27888	258.873336946042	2.3939127928841
19	28102	261.267249738926	2.2322552389375
19	28392	263.499504977863	3.9267862677539
19	28806	267.426291245617	6.6674118159395
19	29543	274.093703061556	2.9645961970198
19	29791	277.058299258576	1.4406367849666
19	29949	278.498936043543	1.3541760073892
19	30121	279.853112050932	4.804421129793
19	30744	284.657533180725	2.0020964022606
19	30928	286.659629582986	1.3598298689933
19	31046	288.019459451979	0.46429309800304
19	31123	288.483752549982	1.724973812781
19	31270	290.208726362763	6.3187887845194
19	32061	296.527515147282	2.394277565403
19	32322	298.921792712685	1.6573575379964
19	32521	300.579150250681	1.1263654414826
19	32676	301.705515692164	1.0158493603954
19	32832	302.721365052559	0.41002573795319
19	32879	303.131390790512	5.0582621557002
19	33474	308.189652946212	0.15822745833041
19	33480	308.347880404542	1.4385420370235
19	33637	309.786422441566	1.339220803014
19	33831	311.12564324458	0.25999279978971
19	33853	311.38563604437	0.22423968739378
19	33881	311.609875731764	7.0610084763382
19	34650	318.670884208102	2.5615403459084
19	34881	321.23242455401	1.1423621747004
19	34981	322.37478672871	1.2426725845135
19	35110	323.617459313223	1.1063034906001
19	35228	324.723762803823	0.25364977672009
19	35244	324.977412580543	2.7398833034987
19	35544	327.717295884042	0.80048315590992
19	35626	328.517779039952	0.4522479696119
19	35677	328.970027009564	1.0978584046423
19	35825	330.067885414206	5.4395094573481
19	36399	335.507394871554	0.55839587066482
19	36476	336.065790742219	3.3536412068572
19	36819	339.419431949076	2.4869710450669
19	37103	341.906402994143	5.9413164545688
19	37802	347.847719448712	1.034954735366
19	37943	348.882674184078	0.23451366846422
19	37979	349.117187852542	1.0973049262867
19	38100	350.214492778829	0.496788407813
19	38137	350.711281186642	1.3430735273057
19	38296	352.054354713948	3.644014743309
19	38641	355.698369457257	0.2388536809328
19	38651	355.93722313819	0.82483305228891
19	38740	356.762056190479	1.3585004045805
19	38919	358.12055659506	1.605113020157
19	39140	359.725669615217	0.7451823510608
19	39235	360.470851966278	0.29733927055491
19	39262	360.768191236833	1.2390490809315
19	39387	362.007240317765	7.6135403366629
19	40274	369.620780654428	0.24308647070347
19	40320	369.863867125131	2.061688678601
19	40553	371.925555803732	4.3862677205338
19	41000	376.311823524266	0.81166320103282
19	41102	377.123486725299	3.0230629364521
19	41455	380.146549661751	0.074793332544723
19	41458	380.221342994296	3.0109392606532
19	41836	383.232282254949	4.4822021800142
19	42391	387.714484434963	4.125806325284
19	42739	391.840290760247	0.1603239308417
19	42757	392.000614691089	2.2297470649662
19	43073	394.230361756055	0.48121945024494
19	43167	394.7115812063	3.9601797638188
19	43610	398.671760970119	0.55389725840747
19	43627	399.225658228526	4.2244348724722
20	1600	13.654456482216	2.6978481239249
20	1938	16.352304606141	0.86302452027914
20	2030	17.21532912642	0.55069833797201
20	2079	17.766027464392	2.7315600486984
20	2340	20.49758751309	2.1108262532776
20	2554	22.608413766368	3.7802018980023
20	2961	26.38861566437	0.9471762686951
20	3054	27.335791933065	1.168000143728
20	3195	28.503792076793	0.30902084975227
20	3206	28.812812926545	1.3068532889296
20	3332	30.119666215475	0.59786009010849
20	3401	30.717526305583	0.95090661374856
20	3496	31.668432919332	2.6524223638649
20	3762	34.320855283197	0.34732819009425
20	3798	34.668183473291	1.1749387940232
20	3933	35.843122267314	0.29583358908727
20	3964	36.138955856401	0.19930418880862
20	3990	36.33826004521	0.27844114619137
20	4029	36.616701191401	4.1526254435176
20	4468	40.769326634919	0.70106964476708
20	4528	41.470396279686	0.11689058379878
20	4535	41.587286863485	0.90843367557515
20	4605	42.49572053906	2.5822875174588
20	4879	45.078008056519	0.075370748146086
20	4915	45.153378804665	0.51937110417714
20	4961	45.672749908842	2.6066962921586
20	5255	48.279446201001	0.57737733361416
20	5310	48.856823534615	2.3395262965418
20	5558	51.196349831157	1.0512652734535
20	5673	52.24761510461	1.4603541631887
20	5825	53.707969267799	0.68020671948327
20	5899	54.388175987282	1.0161230045957
20	6008	55.404298991878	0.42414452520128
20	6062	55.828443517079	0.10425755787143
20	6075	55.93270107495	1.4845151946041
20	6247	57.417216269554	0.88645241414048
20	6356	58.303668683694	0.44758990802431
20	6396	58.751258591718	2.9390331415782
20	6643	61.690291733296	3.1165189105167
20	7024	64.806810643813	1.1709210330417
20	7128	65.977731676855	2.0492310578667
20	7352	68.026962734722	6.7870263917101
20	8027	74.813989126432	0.46171584902183
20	8078	75.275704975454	0.26666747522528
20	8103	75.542372450679	1.3983699731676
20	8211	76.940742423847	0.20387952853685
20	8243	77.144621952384	1.7543540036098
20	8386	78.898975955994	0.90760253061502
20	8495	79.806578486609	1.9010385043373
20	8726	81.707616990946	2.6004381426241
20	9027	84.30805513357	0.2790064827828
20	9065	84.587061616353	0.93714440300809
20	9112	85.524206019361	3.4417030636301
20	9459	88.965909082991	8.098940265195
20	10449	97.064849348186	0.12766926338001
20	10471	97.192518611566	0.97315426595831
20	10567	98.165672877524	1.7169953269824
20	10767	99.882668204506	0.1183808207871
20	10774	100.001049025293	0.5951469669118
20	10830	100.596195992205	2.2714830447514
20	11106	102.867679036956	0.7996201222788
20	11183	103.667299159235	1.2583318414202
20	11322	104.925631000655	0.39099372025821
20	11369	105.316624720913	0.92488850402525
20	11476	106.241513224938	2.4697741410424
20	11796	108.71128736598	1.4868640868223
20	12048	110.198151452802	8.9480925746786
20	13079	119.146244027481	0.4184986326891
20	13144	119.56474266017	0.00016969230911614
20	13145	119.564912352479	0.65465177480266
20	13206	120.219564127282	0.37214122726626
20	13237	120.591705354548	0.18434837978002
20	13250	120.776053734328	1.0097751866631
20	13330	121.785828920991	3.3151578181453
20	13647	125.100986739136	2.8872740591239
20	13928	127.98826079826	8.4695121780886
20	14810	136.457772976349	4.121257584775
20	15234	140.579030561124	0.70306528533887
20	15295	141.282095846463	0.57564751055674
20	15335	141.85774335702	0.46785345125171
20	15370	142.325596808272	2.4803173438668
20	15619	144.805914152139	0.24162964783426
20	15651	145.047543799973	1.3921582410787
20	15813	146.439702041052	1.1278360274889
20	15926	147.567538068541	0.93184626747461
20	16040	148.499384336016	2.0259289396905
20	16277	150.525313275707	6.8573947751341
20	16959	157.382708050841	3.0467643438259
20	17272	160.429472394667	0.84756695465695
20	17428	161.277039349324	1.0328644937208
20	17505	162.309903843045	0.07158266313161
20	17514	162.381486506177	1.4232619219809
20	17651	163.804748428158	1.7760355202424
20	17824	165.5807839484	0.21622112536012
20	17847	165.79700507376	2.2788513263896
20	18085	168.07585640015	1.0729375309129
20	18193	169.148793931063	7.3122935267482
20	18952	176.461087457811	1.4741493178918
20	19122	177.935236775703	2.9090939384989
20	19387	180.844330714202	2.7262499736297
20	19669	183.570580687832	0.30347302605364
20	19688	183.874053713886	6.2584390470543
20	20421	190.13249276094	4.0547945291691
20	20794	194.187287290109	1.6468801196691
20	20961	195.834167409778	0.19458507584508
20	20976	196.028752485623	0.50244130776593
20	21030	196.531193793389	5.1365573122171
20	21510	201.667751105606	0.08714069949749
20	21517	201.754891805103	1.8340177719094
20	21739	203.588909577012	0.24085746533869
20	21760	203.829767042351	4.0163617293826
20	22206	207.846128771734	0.16500093018739
20	22227	208.011129701921	3.3099961882464
20	22576	211.321125890167	1.6862512347008
20	22737	213.007377124868	0.047586915907214
20	22746	213.054964040775	2.7440931110322
20	23052	215.799057151807	1.2817937598307
20	23189	217.080850911638	3.099982521383
20	23621	220.180833433021	1.6709618406086
20	23788	221.85179527363	0.37768109530591
20	23828	222.229476368936	8.4472465267373
20	24806	230.676722895673	1.3828049370118
20	24973	232.059527832685	0.28303931636321
20	24992	232.342567149048	2.9250352949599
20	25286	235.267602444008	2.1196522932964
20	25542	237.387254737304	7.7014597263346
20	26394	245.088714463639	0.38752830477776
20	26451	245.476242768417	0.090230133099567
20	26464	245.566472901517	3.3996195316901
20	26824	248.966092433207	1.6051318978567
20	27017	250.571224331064	0.65926818529742
20	27089	251.230492516361	1.4455484824727
20	27202	252.676040998834	0.65532811303054
20	27239	253.331369111865	1.3824189483188
20	27364	254.713788060184	0.40954676092049
20	27399	255.123334821104	0.7898356349525
20	27494	255.913170456057	3.9729034831466
20	27982	259.886073939204	3.5152644380474
20	28369	263.401338377251	1.3762204363934
20	28511	264.777558813644	0.40524868729052
20	28549	265.182807500935	0.68161968938681
20	28616	265.864427190322	0.62772413993924
20	28679	266.492151330261	2.3415554541594
20	28941	268.83370678442	0.56510761552972
20	28996	269.39881439995	2.8043121112935
20	29307	272.203126511243	2.0006623270154
20	29544	274.203788838258	1.1960353337998
20	29650	275.399824172058	0.63025673577748
20	29740	276.030080907835	0.38579020472553
20	29752	276.415871112561	1.1529160351349
20	29843	277.568787147696	4.4503953577631
20	30420	282.019182505459	1.9807857186663
20	30677	283.999968224125	0.10493816430571
20	30687	284.104906388431	1.1228459450819
20	30779	285.227752333513	1.4794232554872
20	30931	286.707175589	4.1190189569837
20	31324	290.826194545984	0.18625559736414
20	31350	291.012450143348	3.13654396603
20	31763	294.148994109378	0.17463659279378
20	31795	294.323630702172	0.33848910112922
20	31830	294.662119803301	0.21732624418218
20	31837	294.879446047483	1.8159417424468
20	32092	296.69538778993	0.69712717554967
20	32184	297.39251496548	1.3890386965816
20	32304	298.781553662062	0.20134883407562
20	32330	298.982902496138	2.3149079590717
20	32600	301.29781045521	0.42356417967229
20	32677	301.721374634882	0.80717798111611
20	32797	302.528552615998	0.64317207739311
20	32883	303.171724693391	1.8275914027443
20	33121	304.999316096135	1.707079812984
20	33308	306.706395909119	0.97446207475633
20	33409	307.680857983875	3.1687689405498
20	33805	310.849626924425	2.2946839649417
20	34021	313.144310889367	2.438465391326
20	34277	315.582776280693	0.092470763626891
20	34283	315.67524704432	2.4524072803599
20	34567	318.12765432468	1.3138483289917
20	34715	319.441502653672	2.1545599007779
20	34915	321.59606255445	3.1376929100367
20	35229	324.733755464487	0.072408815025606
20	35231	324.806164279513	0.37087312796126
20	35278	325.177037407474	0.8967334491793
20	35391	326.073770856653	0.10238935232042
20	35408	326.176160208973	0.97913518484091
20	35497	327.155295393814	1.7937077961253
20	35675	328.949003189939	0.23888787950526
20	35714	329.187891069444	0.97324205941122
20	35837	330.161133128855	1.5496892612423
20	36000	331.710822390097	1.160861812485
20	36112	332.871684202582	1.6235194932934
20	36315	334.495203695875	0.11822067547884
20	36327	334.613424371354	1.0532471553604
20	36412	335.666671526714	1.5872404025362
20	36596	337.25391192925	3.2950355535637
20	36949	340.548947482814	2.7109279167651
20	37248	343.259875399579	0.54857060377226
20	37296	343.808446003351	0.25347634959342
20	37369	344.061922352944	0.54289889871264
20	37414	344.604821251657	0.85475506598334
20	37497	345.45957631764	2.4320045840604
20	37818	347.8915809017	1.0432693501867
20	37957	348.934850251887	1.6408397339113
20	38128	350.575689985798	5.0343220677696
20	38610	355.610012053568	0.64701683224554
20	38673	356.257028885814	0.15897066631944
20	38700	356.415999552133	3.1666367694139
20	39109	359.582636321547	1.8494616365901
20	39337	361.432097958137	2.4048220397255
20	39605	363.836919997862	2.3012820839591
20	39907	366.138202081821	1.5751477266679
20	40054	367.713349808489	12.306244092196
20	41449	380.019593900685	1.2329771969319
20	41562	381.252571097617	5.3118931877869
20	42228	386.564464285404	2.1332748039655
20	42458	388.69773908937	2.5608740018694
20	42688	391.258613091239	0.49851539352757
20	42723	391.757128484767	0.18890589124792
20	42756	391.946034376015	0.43661931652264
20	42802	392.382653692538	3.5657017790517
20	43309	395.94835547159	1.1978989243453
20	43437	397.146254395935	0.55187526451365
20	43513	397.698129660449	3.1470428822622
21	1675	14.479723026361	2.6980580401253
21	2024	17.177781066486	0.05817392132965
21	2036	17.235954987816	3.1102876486892
21	2318	20.346242636505	0.38289732864986
21	2372	20.729139965155	0.35132846503886
21	2407	21.080468430194	0.76120317279909
21	2491	21.841671602993	2.9955646653103
21	2809	24.837236268303	1.9504593357508
21	2998	26.787695604054	2.7055988781814
21	3285	29.493294482235	6.0202039557385
21	3879	35.513498437973	1.2987402434183
21	4061	36.812238681391	2.837993832923
21	4355	39.650232514314	0.13691962105398
21	4376	39.787152135368	2.5219005919565
21	4588	42.309052727325	4.7040386147458
21	5128	47.013091342071	1.637320464898
21	5298	48.650411806969	0.3253375808381
21	5321	48.975749387807	0.83356650503037
21	5415	49.809315892837	0.56599047553508
21	5474	50.375306368372	0.98156460135461
21	5570	51.356870969727	1.2391775934947
21	5707	52.596048563222	4.1650157656706
21	6169	56.761064328893	0.35782273362196
21	6192	57.118887062515	0.69535974174835
21	6290	57.814246804263	0.030307181648694
21	6296	57.844553985912	4.208669640242
21	6707	62.053223626154	2.601333640809
21	7007	64.654557266963	0.06298060316866
21	7018	64.717537870132	1.0796421367825
21	7095	65.797180006914	6.5629033537818
21	7749	72.360083360696	5.579475774527
21	8300	77.939559135223	1.2562873678115
21	8414	79.195846503035	0.13083159687843
21	8423	79.326678099913	3.4135025159834
21	8842	82.740180615896	2.414722980305
21	9087	85.154903596201	0.26166917114801
21	9106	85.416572767349	0.34396331044728
21	9125	85.760536077796	0.53994834077425
21	9174	86.30048441857	4.2544174694347
21	9679	90.554901888005	1.5580453498384
21	9851	92.112947237843	9.7283998260248
21	10995	101.841347063868	2.8929442284031
21	11310	104.734291292271	2.7742809152905
21	11642	107.508572207561	4.3471769871095
21	12242	111.855749194671	5.8118737202924
21	12890	117.667622914963	2.3792082632435
21	13194	120.046831178206	1.9394576504479
21	13337	121.986288828654	2.9596728248823
21	13631	124.945961653536	0.19796422652656
21	13653	125.143925880063	0.70323752767867
21	13710	125.847163407742	2.8682308366585
21	13983	128.715394244401	1.3964598910458
21	14101	130.111854135447	2.7056892274889
21	14412	132.817543362936	2.8038972476217
21	14739	135.621440610558	7.7956691067702
21	15473	143.417109717328	1.9226777437542
21	15674	145.339787461082	0.27590484900568
21	15706	145.615692310088	4.1629514095076
21	16198	149.778643719596	1.3584902692951
21	16308	151.137133988891	4.36436370697
21	16776	155.501497695861	1.7202147141077
21	16932	157.221712409969	1.1909925580214
21	17083	158.41270496799	0.38559717294434
21	17108	158.798302140934	1.4405048330409
21	17247	160.238806973975	0.64264352791295
21	17351	160.881450501888	4.8726918646919
21	17841	165.75414236658	0.043380277015963
21	17848	165.797522643596	0.87306364721855
21	17936	166.670586290815	4.1493410169807
21	18335	170.819927307796	0.22084778436328
21	18346	171.040775092159	2.3932466792943
21	18616	173.434021771453	1.4016848717312
21	18765	174.835706643184	2.7510703349652
21	19076	177.586776978149	3.2234188247748
21	19386	180.810195802924	9.6939111553825
21	20440	190.504106958306	4.3534944713366
21	20870	194.857601429643	2.9594626250998
21	21163	197.817064054743	0.89703873498714
21	21271	198.71410278973	0.093309221876286
21	21281	198.807412011606	0.46297538165747
21	21335	199.270387393263	0.73538209488077
21	21383	200.005769488144	3.2082057982479
21	21685	203.213975286392	2.8938240140107
21	22011	206.107799300403	4.0016154924503
21	22410	210.109414792853	0.69262483923148
21	22506	210.802039632084	0.38352418177707
21	22558	211.185563813861	0.86714347629588
21	22632	212.052707290157	1.2914002574069
21	22776	213.344107547564	1.9836738842628
21	22998	215.327781431827	6.6327532493917
21	23798	221.960534681219	1.1101910557812
21	23964	223.070725737	0.86706564462647
21	24053	223.937791381626	5.2561913594765
21	24636	229.193982741102	2.8934016053827
21	24974	232.087384346485	5.6668875461116
21	25566	237.754271892597	2.0476943196272
21	25793	239.801966212224	3.9944863813569
21	26247	243.796452593581	0.28410224481495
21	26273	244.080554838396	1.5333710615066
21	26468	245.613925899903	0.033173855287278
21	26472	245.64709975519	11.58172641827
21	27685	257.22882617346	2.3533242905318
21	27949	259.582150463992	1.0590384841964
21	28035	260.641188948188	2.3602777866733
21	28310	263.001466734861	2.2034117881682
21	28550	265.204878523029	2.5608765319484
21	28824	267.765755054977	3.9502852638213
21	29250	271.716040318798	1.7824982323058
21	29469	273.498538551104	0.47514483054424
21	29542	273.973683381648	1.5989700190556
21	29684	275.572653400704	1.0942168798741
21	29770	276.666870280578	2.7141652122426
21	30079	279.381035492821	1.0373095027378
21	30228	280.418344995559	0.08800292992847
21	30235	280.506347925487	2.5726509502148
21	30560	283.078998875702	1.0916201574054
21	30707	284.170619033107	2.8352551854887
21	30956	287.005874218596	1.4711774593651
21	31122	288.477051677961	5.2785683681602
21	31729	293.755620046121	3.1765754853843
21	32133	296.932195531505	1.7246512722462
21	32282	298.656846803751	2.8176546637244
21	32638	301.474501467475	2.1761317709809
21	32947	303.650633238456	2.4673543901674
21	33234	306.117987628623	0.1139915484169
21	33247	306.23197917704	2.2169183641064
21	33487	308.448897541146	0.84159569262669
21	33597	309.290493233773	0.72077532718996
21	33671	310.011268560963	0.15545954733877
21	33703	310.166728108302	4.873198918918
21	34200	315.03992702722	0.23426705077714
21	34226	315.274194077997	2.5372940824063
21	34544	317.811488160403	3.1619573004214
21	34860	320.973445460824	2.9022357575281
21	35134	323.875681218352	0.93496630871731
21	35232	324.810647527069	4.1758509449996
21	35678	328.986498472069	1.8188508477649
21	35914	330.805349319834	18.52864138152
21	38009	349.333990701354	1.1186452140626
21	38108	350.452635915417	5.1146853194729
21	38602	355.56732123489	6.6531145321553
21	39395	362.220435767045	1.8376084142458
21	39640	364.058044181291	2.5866909310277
21	39938	366.644735112319	2.0460241372504
21	40174	368.690759249569	1.6943314352542
21	40384	370.385090684823	0.35537957826061
21	40408	370.740470263084	0.29880185202737
21	40436	371.039272115111	0.070259190215218
21	40460	371.109531305326	5.2994585084291
21	41011	376.408989813755	7.2743630930888
21	41915	383.683352906844	0.27824045065853
21	41965	383.961593357503	5.9522434917235
21	42578	389.913836849226	0.39233474730597
21	42614	390.306171596532	1.291025776852
21	42705	391.597197373384	0.42715468589356
21	42758	392.024352059278	1.4179824378271
21	42958	393.442334497105	0.15460206912698
21	43000	393.596936566232	1.5287651731897
21	43205	395.125701739422	0.59677536231317
21	43268	395.722477101735	2.2671941094607
21	43540	397.989671211196	1.3304225122437
21	43628	399.32009372344	1.6953807388459

