file 8646980 1614185336                                         
version 2
run Nonmonitoring-exponential-175-20210224-17:48:55-26756
attr configname Nonmonitoring-exponential
attr datetime 20210224-17:48:55
attr experiment Nonmonitoring-exponential
attr inifile aerocom.ini
attr iterationvars $0=10
attr iterationvarsf 10-
attr measurement $0=10
attr network Aerocom
attr processid 26756
attr repetition 75
attr replication #75
attr resultdir results
attr runnumber 175
attr seedset 75
param **.t 2s
param **.k 10ms
param **.X 0.05s
param **.m 1s
param **.tDistribution "\"exponential\""
param **.operationMode 1
param **.s "70 byte"
param **.dimPoolMax 10000
param **.dimPoolMin 8000
param **.nDL 16
param **.nA 1
param **.DLMaxCapacity 0
param **.trasmitting false

vector 0 Aerocom.aircraft[0].packetGenerator arrivalTime:vector ETV
attr "" ""
attr source computeArrivalTime
vector 1 Aerocom.aircraft[0].linkSelector waitingTime:vector ETV
attr "" ""
attr source computeWaitingTime
vector 2 Aerocom.aircraft[0].linkSelector queueLength:vector ETV
attr "" ""
attr source computeQueueLength
vector 3 Aerocom.aircraft[0].dataLink[14] actualCapacity:vector ETV
attr "" ""
attr source computeActualCapacity
vector 4 Aerocom.aircraft[0].linkSelector serviceTime:vector ETV
attr "" ""
attr source computeServiceTime
vector 5 Aerocom.aircraft[0].linkSelector responseTime:vector ETV
attr "" ""
attr source computeResponseTime
vector 6 Aerocom.aircraft[0].dataLink[1] tDistribution:vector ETV
attr "" ""
attr source computeTDistribution
vector 7 Aerocom.aircraft[0].dataLink[12] tDistribution:vector ETV
attr "" ""
attr source computeTDistribution
vector 8 Aerocom.aircraft[0].dataLink[10] tDistribution:vector ETV
attr "" ""
attr source computeTDistribution
vector 9 Aerocom.aircraft[0].dataLink[2] tDistribution:vector ETV
attr "" ""
attr source computeTDistribution
vector 10 Aerocom.aircraft[0].dataLink[4] tDistribution:vector ETV
attr "" ""
attr source computeTDistribution
vector 11 Aerocom.aircraft[0].dataLink[8] tDistribution:vector ETV
attr "" ""
attr source computeTDistribution
vector 12 Aerocom.aircraft[0].dataLink[3] tDistribution:vector ETV
attr "" ""
attr source computeTDistribution
vector 13 Aerocom.aircraft[0].dataLink[11] tDistribution:vector ETV
attr "" ""
attr source computeTDistribution
vector 14 Aerocom.aircraft[0].dataLink[7] tDistribution:vector ETV
attr "" ""
attr source computeTDistribution
vector 15 Aerocom.aircraft[0].dataLink[5] tDistribution:vector ETV
attr "" ""
attr source computeTDistribution
vector 16 Aerocom.aircraft[0].dataLink[9] tDistribution:vector ETV
attr "" ""
attr source computeTDistribution
vector 17 Aerocom.aircraft[0].dataLink[6] tDistribution:vector ETV
attr "" ""
attr source computeTDistribution
vector 18 Aerocom.aircraft[0].dataLink[0] tDistribution:vector ETV
attr "" ""
attr source computeTDistribution
vector 19 Aerocom.aircraft[0].dataLink[15] tDistribution:vector ETV
attr "" ""
attr source computeTDistribution
vector 20 Aerocom.aircraft[0].dataLink[14] tDistribution:vector ETV
attr "" ""
attr source computeTDistribution
vector 21 Aerocom.aircraft[0].dataLink[13] tDistribution:vector ETV
attr "" ""
attr source computeTDistribution
0	3134 1307019 4582 171093 10.004259506034 338.689793033626 32768 3.66815e-07 0.105945338512 328.68772827335 6.5830732666846
1	1310153 1214083 4583 171102 10.004259506034 338.704404164702 32768 0 0.134401814733 465.03837752962 16.450399761665
2	2524236 885274 4583 171102 10.004259506034 338.704404164702 32768 0 15 45759 202539
3	3409510 983270 4583 171102 10.004259506034 338.704404164702 32768 8022 9989 293520606 2635647398104
4	4392780 1437755 4583 171102 10.004259506034 338.704404164702 32768 0.0070077084793273 0.0087260034904014 256.70203623241 2.0159819542172
5	5830535 1307170 4588 171105 10.012274161404 338.712738490217 32768 0.007023881196 0.142868191124 721.74041376178 25.874911119634
0	7137705 251284 171095 202409 338.69198777938 399.989535928378 6163 3.946e-07 0.091521253532 61.308090435623 1.2362182951176
1	7388989 234371 171105 202411 338.712738490217 399.995402865927 6163 0 0.114086024979 97.857007630432 3.8641321989616
2	7623360 171978 171105 202411 338.712738490217 399.995402865927 6163 0 13 9794 48052
3	7795338 190362 171105 202411 338.712738490217 399.995402865927 6163 8074 9944 54985150 491329485392
4	7985700 275757 171105 202411 338.712738490217 399.995402865927 6163 0.0070394207562349 0.0086698043101313 48.430702082717 0.38119078013356
5	8261457 251209 171112 202411 338.721067857185 399.995402865927 6162 0.007050055393 0.122514682414 146.27454198293 5.8116829328955
6	8512666 8963 4657 202316 10.176713435129 399.82493638454 216 0.011839594756113 8.2303771676746 390.02144874585 1416.9331978992
7	8521629 8495 4660 201522 10.199610668443 398.135548209396 205 0.0033874684414675 10.141778742198 390.14791431351 1355.3018408703
8	8530124 7720 4707 202325 10.28063823393 399.843887136427 186 0.023289781617055 12.200696163772 391.96855751362 1661.5717634452
9	8537844 8375 4813 202340 10.486583097522 399.878229796007 202 0.0044314312117793 12.814099414004 391.14369305951 1434.7055029641
10	8546219 8498 5044 201660 10.906045827294 398.466387515985 200 0.0046421169394706 9.1258126593204 392.71727935081 1394.9797116059
11	8554717 7959 5237 201523 11.235833761338 398.137935713881 188 0.0077463443597015 9.1106091628616 394.1081235829 1480.7353781534
12	8562676 8391 5484 200692 11.649029539685 396.719056427105 197 0.00049175919000807 17.749011995501 392.89148672645 1606.8775754045
13	8571067 8006 5669 202402 12.000420909785 399.980245533617 188 0.0018131884334673 23.787460196169 388.74850631471 1960.9427895062
14	8579073 8609 5917 202224 12.455755717664 399.647548473331 203 0.0081583942590318 9.1941884608447 388.28893922594 1299.7811655572
15	8587682 9401 6034 201793 12.75414663259 398.726763227905 221 0.00014933709649619 10.318372901212 391.94939702674 1355.8324649442
16	8597083 7541 6126 200468 12.927447946273 396.337284878762 178 0.023001191395096 16.088074319344 389.03475404117 1700.3159609006
17	8604624 8108 6289 200544 13.304843709344 396.496626577059 191 0.024129309992111 23.684331906193 387.31576057042 1883.8193096258
18	8612732 8205 6591 200723 13.897109745869 396.767689864755 193 0.028992788458791 15.040739378203 388.05446899951 1503.469194202
19	8620937 7994 7813 201652 16.593161952644 398.45915226189 188 0.0058016731861575 11.234052937772 384.7341062902 1650.4286183049
20	8628931 8817 8717 200437 18.302778219023 396.234769625035 207 0.0031242186814099 13.142044350835 381.77648016585 1366.0567094993
21	8637748 9231 8746 202197 18.370231218408 399.562687336105 217 0.014132502410022 8.0469183785865 386.78588123441 1270.2520809799

