file 8775108 1614185327                                         
version 2
run Nonmonitoring-exponential-127-20210224-17:48:46-26719
attr configname Nonmonitoring-exponential
attr datetime 20210224-17:48:46
attr experiment Nonmonitoring-exponential
attr inifile aerocom.ini
attr iterationvars $0=10
attr iterationvarsf 10-
attr measurement $0=10
attr network Aerocom
attr processid 26719
attr repetition 27
attr replication #27
attr resultdir results
attr runnumber 127
attr seedset 27
param **.t 2s
param **.k 10ms
param **.X 0.05s
param **.m 1s
param **.tDistribution "\"exponential\""
param **.operationMode 1
param **.s "70 byte"
param **.dimPoolMax 10000
param **.dimPoolMin 8000
param **.nDL 16
param **.nA 1
param **.DLMaxCapacity 0
param **.trasmitting false

vector 0 Aerocom.aircraft[0].linkSelector responseTime:vector ETV
attr "" ""
attr source computeResponseTime
vector 1 Aerocom.aircraft[0].packetGenerator arrivalTime:vector ETV
attr "" ""
attr source computeArrivalTime
vector 2 Aerocom.aircraft[0].linkSelector waitingTime:vector ETV
attr "" ""
attr source computeWaitingTime
vector 3 Aerocom.aircraft[0].linkSelector queueLength:vector ETV
attr "" ""
attr source computeQueueLength
vector 4 Aerocom.aircraft[0].dataLink[2] actualCapacity:vector ETV
attr "" ""
attr source computeActualCapacity
vector 5 Aerocom.aircraft[0].linkSelector serviceTime:vector ETV
attr "" ""
attr source computeServiceTime
vector 6 Aerocom.aircraft[0].dataLink[12] tDistribution:vector ETV
attr "" ""
attr source computeTDistribution
vector 7 Aerocom.aircraft[0].dataLink[7] tDistribution:vector ETV
attr "" ""
attr source computeTDistribution
vector 8 Aerocom.aircraft[0].dataLink[1] tDistribution:vector ETV
attr "" ""
attr source computeTDistribution
vector 9 Aerocom.aircraft[0].dataLink[9] tDistribution:vector ETV
attr "" ""
attr source computeTDistribution
vector 10 Aerocom.aircraft[0].dataLink[2] tDistribution:vector ETV
attr "" ""
attr source computeTDistribution
vector 11 Aerocom.aircraft[0].dataLink[4] tDistribution:vector ETV
attr "" ""
attr source computeTDistribution
vector 12 Aerocom.aircraft[0].dataLink[0] tDistribution:vector ETV
attr "" ""
attr source computeTDistribution
vector 13 Aerocom.aircraft[0].dataLink[10] tDistribution:vector ETV
attr "" ""
attr source computeTDistribution
vector 14 Aerocom.aircraft[0].dataLink[15] tDistribution:vector ETV
attr "" ""
attr source computeTDistribution
vector 15 Aerocom.aircraft[0].dataLink[6] tDistribution:vector ETV
attr "" ""
attr source computeTDistribution
vector 16 Aerocom.aircraft[0].dataLink[8] tDistribution:vector ETV
attr "" ""
attr source computeTDistribution
vector 17 Aerocom.aircraft[0].dataLink[3] tDistribution:vector ETV
attr "" ""
attr source computeTDistribution
vector 18 Aerocom.aircraft[0].dataLink[5] tDistribution:vector ETV
attr "" ""
attr source computeTDistribution
vector 19 Aerocom.aircraft[0].dataLink[14] tDistribution:vector ETV
attr "" ""
attr source computeTDistribution
vector 20 Aerocom.aircraft[0].dataLink[13] tDistribution:vector ETV
attr "" ""
attr source computeTDistribution
vector 21 Aerocom.aircraft[0].dataLink[11] tDistribution:vector ETV
attr "" ""
attr source computeTDistribution
1	3133 1307176 5173 171619 10.004049338966 333.743965245005 32768 2.2427e-07 0.103938487929 323.74535635218 6.3978124900324
0	1310309 1307414 5170 171637 10.002613545893 333.76766734392 32768 0.007006305675 0.166430582026 722.81088697506 25.650779857797
2	2617723 1216301 5174 171637 10.004049338966 333.76766734392 32768 0 0.158001924591 469.36157444757 16.305588436551
3	3834024 885404 5174 171637 10.004049338966 333.76766734392 32768 0 18 47025 206923
4	4719428 983484 5174 171637 10.004049338966 333.76766734392 32768 8007 9991 297243908 2702760271390
5	5702912 1437683 5174 171637 10.004049338966 333.76766734392 32768 0.0070063056751076 0.0087423504433621 253.47360538253 1.9655218267
0	7140595 273947 171642 205787 333.775755154434 399.989589195538 6720 0.007033762058 0.096815096721 149.97512819627 5.0569801458411
1	7414542 273934 171621 205790 333.749405691145 399.995335049684 6720 7.42187e-07 0.082025549983 66.268172379805 1.3146313929499
2	7688476 256575 171642 205791 333.775755154434 399.995335049684 6720 0 0.088585611652 97.442591290529 3.1031360913785
3	7945051 187367 171642 205791 333.775755154434 399.995335049684 6720 0 11 9679 38701
4	8132418 207510 171642 205791 333.775755154434 399.995335049684 6720 8057 9973 60349570 543301369626
5	8339928 300770 171642 205791 333.775755154434 399.995335049684 6720 0.007018951168154 0.0086880973066898 52.508599812134 0.4113039226715
6	8640698 7907 5277 205443 10.228557559155 399.244113496349 191 0.015446027946339 9.3142046194462 390.99927285445 1486.6693339718
7	8648605 8830 5425 204921 10.474541201386 398.205858777691 213 0.022350660375043 10.314181753832 390.61371732062 1234.9383900268
8	8657435 7438 5442 205238 10.502731229156 398.862743065193 179 0.00084167964720585 10.805766093921 394.56350127003 1744.2292236472
9	8664873 9198 5451 205757 10.553198150845 399.903052283533 221 0.029108840497555 13.789028618094 394.73857946085 1457.0936191969
10	8674071 7803 5512 205221 10.67805634744 398.804676829945 184 0.055738358419764 10.246067591053 390.85709363691 1403.2613406801
11	8681874 8770 5815 205136 11.256859817589 398.594498920831 207 0.0026137275038326 12.183511498466 393.88081684208 1441.2573601448
12	8690644 8894 5986 205434 11.50895807193 399.228297379947 209 0.0017245846327379 15.68045505064 388.70722124717 1539.8023711809
13	8699538 7928 6317 204530 12.017323850065 397.533184195001 187 0.012015745241632 10.033800911217 389.07076479125 1564.3383682578
14	8707466 7584 6333 205373 12.048345151414 399.117420034332 179 0.0054732360935682 16.009737730355 389.53125998746 1872.1360352173
15	8715050 8881 6727 205166 12.683593405873 398.651274221993 209 0.003256219129258 8.544095071189 387.95491545657 1401.3896892747
16	8723931 8190 6786 205701 12.848666625113 399.815978025816 193 0.010594655636155 13.755036356822 389.60943835333 1527.5252132928
17	8732121 8136 7333 205256 14.047874391551 398.896568799491 192 0.025530300669575 15.237078469885 386.13096330557 1553.271176376
18	8740257 9309 7904 204845 15.198661279271 398.072972785835 218 0.017006775924801 10.317013746314 386.07211330502 1477.3368713922
19	8749566 8466 8177 205769 15.711538775115 399.93176596906 199 0.0077986309129905 9.3965713186203 384.46093749195 1428.7149612506
20	8758032 8080 8867 205621 17.196593108799 399.639015742377 190 0.0097029143494062 12.314993016566 384.97275273367 1714.2988419304
21	8766112 8995 11021 205562 21.44051303131 399.522618789218 211 0.0013298985155332 15.096063215819 381.38772557584 1402.635757316

