file 6561340 1614185344                                         
version 2
run Nonmonitoring-exponential-253-20210224-17:49:03-26807
attr configname Nonmonitoring-exponential
attr datetime 20210224-17:49:03
attr experiment Nonmonitoring-exponential
attr inifile aerocom.ini
attr iterationvars $0=13
attr iterationvarsf 13-
attr measurement $0=13
attr network Aerocom
attr processid 26807
attr repetition 53
attr replication #53
attr resultdir results
attr runnumber 253
attr seedset 53
param **.t 2s
param **.k 13ms
param **.X 0.05s
param **.m 1s
param **.tDistribution "\"exponential\""
param **.operationMode 1
param **.s "70 byte"
param **.dimPoolMax 10000
param **.dimPoolMin 8000
param **.nDL 16
param **.nA 1
param **.DLMaxCapacity 0
param **.trasmitting false

vector 0 Aerocom.aircraft[0].packetGenerator arrivalTime:vector ETV
attr "" ""
attr source computeArrivalTime
vector 1 Aerocom.aircraft[0].linkSelector waitingTime:vector ETV
attr "" ""
attr source computeWaitingTime
vector 2 Aerocom.aircraft[0].linkSelector queueLength:vector ETV
attr "" ""
attr source computeQueueLength
vector 3 Aerocom.aircraft[0].dataLink[13] actualCapacity:vector ETV
attr "" ""
attr source computeActualCapacity
vector 4 Aerocom.aircraft[0].linkSelector serviceTime:vector ETV
attr "" ""
attr source computeServiceTime
vector 5 Aerocom.aircraft[0].linkSelector responseTime:vector ETV
attr "" ""
attr source computeResponseTime
vector 6 Aerocom.aircraft[0].dataLink[12] tDistribution:vector ETV
attr "" ""
attr source computeTDistribution
vector 7 Aerocom.aircraft[0].dataLink[15] tDistribution:vector ETV
attr "" ""
attr source computeTDistribution
vector 8 Aerocom.aircraft[0].dataLink[10] tDistribution:vector ETV
attr "" ""
attr source computeTDistribution
vector 9 Aerocom.aircraft[0].dataLink[4] tDistribution:vector ETV
attr "" ""
attr source computeTDistribution
vector 10 Aerocom.aircraft[0].dataLink[11] tDistribution:vector ETV
attr "" ""
attr source computeTDistribution
vector 11 Aerocom.aircraft[0].dataLink[13] tDistribution:vector ETV
attr "" ""
attr source computeTDistribution
vector 12 Aerocom.aircraft[0].dataLink[7] tDistribution:vector ETV
attr "" ""
attr source computeTDistribution
vector 13 Aerocom.aircraft[0].dataLink[1] tDistribution:vector ETV
attr "" ""
attr source computeTDistribution
vector 14 Aerocom.aircraft[0].dataLink[0] tDistribution:vector ETV
attr "" ""
attr source computeTDistribution
vector 15 Aerocom.aircraft[0].dataLink[8] tDistribution:vector ETV
attr "" ""
attr source computeTDistribution
vector 16 Aerocom.aircraft[0].dataLink[2] tDistribution:vector ETV
attr "" ""
attr source computeTDistribution
vector 17 Aerocom.aircraft[0].dataLink[6] tDistribution:vector ETV
attr "" ""
attr source computeTDistribution
vector 18 Aerocom.aircraft[0].dataLink[3] tDistribution:vector ETV
attr "" ""
attr source computeTDistribution
vector 19 Aerocom.aircraft[0].dataLink[5] tDistribution:vector ETV
attr "" ""
attr source computeTDistribution
vector 20 Aerocom.aircraft[0].dataLink[14] tDistribution:vector ETV
attr "" ""
attr source computeTDistribution
vector 21 Aerocom.aircraft[0].dataLink[9] tDistribution:vector ETV
attr "" ""
attr source computeTDistribution
0	3134 1190934 3890 156337 10.010691538926 399.995934839201 29874 8.6291e-08 0.125253082897 389.99045250765 10.138358232634
1	1194068 1034836 3891 156338 10.010691538926 399.995934839201 29874 0 0.065642544468 172.66541588073 2.9145694937876
2	2228904 806091 3891 156338 10.010691538926 399.995934839201 29874 0 8 13208 29976
3	3034995 895713 3891 156338 10.010691538926 399.995934839201 29874 8002 9997 269268248 2433080431862
4	3930708 1309894 3891 156338 10.010691538926 399.995934839201 29874 0.0070021006301891 0.0087478130467383 232.58634659667 1.8153585655656
5	5240602 1191032 3892 156334 10.018067724384 399.995733869435 29873 0.00700210063 0.073372226447 405.24331755025 7.439831051579
6	6431634 8308 3957 155627 10.287687598721 398.055360704151 201 0.0028859471352389 8.744369796924 396.01064144655 1541.5889453343
7	6439942 8208 4228 155943 11.097996307125 399.047686621807 199 0.0063728765097773 9.1459496301382 389.70586248804 1520.1967057034
8	6448150 7575 4261 155974 11.17643933743 399.124315909059 183 0.01202185687591 12.001343758952 391.68330284312 1659.2680396253
9	6455725 7713 4275 155936 11.20355385188 399.03517519143 187 0.019922626767194 12.508557993759 390.44133558909 1652.1381168622
10	6463438 8477 4290 156037 11.228729459781 399.282144509991 200 0.0043156225312097 9.6440416472958 389.16471959896 1390.5979915699
11	6471915 7397 4409 155752 11.578768194771 398.443457712738 175 0.014472799492409 11.823306601478 393.66329969857 1773.7234317898
12	6479312 9342 4589 152594 12.002682559893 390.027480644487 220 0.036951070203116 10.728760809629 388.5291329843 1523.2501014221
13	6488654 8458 4597 155711 12.086417474332 398.280991820168 200 0.0041504912330196 10.932489355062 389.12085224543 1471.7405594865
14	6497112 8292 4915 154833 12.882502755764 396.11923564587 196 0.0040068825553269 9.9598427690304 390.73014862215 1419.3061536015
15	6505404 8028 4962 154952 13.071682400002 396.444338395876 190 0.0026616611252798 17.881418306524 387.00149509037 1727.4549295416
16	6513432 8007 5402 153698 14.293768111595 393.003561427228 189 4.8670976970957e-06 11.432134902409 387.43316592461 1517.8207371273
17	6521439 6643 5727 155635 14.927089101062 398.062967213138 157 0.011683652424149 9.5173305625492 385.30578840921 1699.1302354758
18	6528082 7332 5882 153643 15.309262822688 392.856733847211 173 0.039450361892941 12.204618305163 385.69664592041 1699.8684631802
19	6535414 8013 5920 155916 15.413486489891 399.001114882515 189 0.00389367997781 10.024637029149 384.66937904644 1491.6195548265
20	6543427 9622 6078 155830 15.738833468459 398.712081556758 227 0.00050900414749992 7.3328628759565 387.76526327943 1192.7462679999
21	6553049 8290 6387 156272 16.552503218312 399.823242357264 196 0.0010296125152326 10.997058167795 386.63368495475 1506.1583924832

