file 9639597 1614185317                                         
version 2
run Nonmonitoring-exponential-72-20210224-17:48:35-26689
attr configname Nonmonitoring-exponential
attr datetime 20210224-17:48:35
attr experiment Nonmonitoring-exponential
attr inifile aerocom.ini
attr iterationvars $0=9
attr iterationvarsf 9-
attr measurement $0=9
attr network Aerocom
attr processid 26689
attr repetition 72
attr replication #72
attr resultdir results
attr runnumber 72
attr seedset 72
param **.t 2s
param **.k 9ms
param **.X 0.05s
param **.m 1s
param **.tDistribution "\"exponential\""
param **.operationMode 1
param **.s "70 byte"
param **.dimPoolMax 10000
param **.dimPoolMin 8000
param **.nDL 16
param **.nA 1
param **.DLMaxCapacity 0
param **.trasmitting false

vector 0 Aerocom.aircraft[0].packetGenerator arrivalTime:vector ETV
attr "" ""
attr source computeArrivalTime
vector 1 Aerocom.aircraft[0].linkSelector responseTime:vector ETV
attr "" ""
attr source computeResponseTime
vector 2 Aerocom.aircraft[0].linkSelector waitingTime:vector ETV
attr "" ""
attr source computeWaitingTime
vector 3 Aerocom.aircraft[0].linkSelector queueLength:vector ETV
attr "" ""
attr source computeQueueLength
vector 4 Aerocom.aircraft[0].dataLink[3] actualCapacity:vector ETV
attr "" ""
attr source computeActualCapacity
vector 5 Aerocom.aircraft[0].linkSelector serviceTime:vector ETV
attr "" ""
attr source computeServiceTime
vector 6 Aerocom.aircraft[0].dataLink[2] tDistribution:vector ETV
attr "" ""
attr source computeTDistribution
vector 7 Aerocom.aircraft[0].dataLink[10] tDistribution:vector ETV
attr "" ""
attr source computeTDistribution
vector 8 Aerocom.aircraft[0].dataLink[9] tDistribution:vector ETV
attr "" ""
attr source computeTDistribution
vector 9 Aerocom.aircraft[0].dataLink[12] tDistribution:vector ETV
attr "" ""
attr source computeTDistribution
vector 10 Aerocom.aircraft[0].dataLink[15] tDistribution:vector ETV
attr "" ""
attr source computeTDistribution
vector 11 Aerocom.aircraft[0].dataLink[11] tDistribution:vector ETV
attr "" ""
attr source computeTDistribution
vector 12 Aerocom.aircraft[0].dataLink[5] tDistribution:vector ETV
attr "" ""
attr source computeTDistribution
vector 13 Aerocom.aircraft[0].dataLink[4] tDistribution:vector ETV
attr "" ""
attr source computeTDistribution
vector 14 Aerocom.aircraft[0].dataLink[3] tDistribution:vector ETV
attr "" ""
attr source computeTDistribution
vector 15 Aerocom.aircraft[0].dataLink[7] tDistribution:vector ETV
attr "" ""
attr source computeTDistribution
vector 16 Aerocom.aircraft[0].dataLink[13] tDistribution:vector ETV
attr "" ""
attr source computeTDistribution
vector 17 Aerocom.aircraft[0].dataLink[1] tDistribution:vector ETV
attr "" ""
attr source computeTDistribution
vector 18 Aerocom.aircraft[0].dataLink[6] tDistribution:vector ETV
attr "" ""
attr source computeTDistribution
vector 19 Aerocom.aircraft[0].dataLink[8] tDistribution:vector ETV
attr "" ""
attr source computeTDistribution
vector 20 Aerocom.aircraft[0].dataLink[14] tDistribution:vector ETV
attr "" ""
attr source computeTDistribution
vector 21 Aerocom.aircraft[0].dataLink[0] tDistribution:vector ETV
attr "" ""
attr source computeTDistribution
1	3127 1306736 5641 171873 10.003640316617 306.589796717927 32768 0.007035175879 0.303932340816 1330.8325126428 111.23269762826
2	1309863 1250996 5641 171873 10.003640316617 306.589796717927 32768 0 0.295468011916 1073.8345124297 91.921763062575
3	2560859 888000 5641 171873 10.003640316617 306.589796717927 32768 0 34 119456 1252674
4	3448859 982859 5641 171873 10.003640316617 306.589796717927 32768 8000 9958 293380826 2634720537940
5	4431718 1437220 5641 171873 10.003640316617 306.589796717927 32768 0.0070295240008034 0.00875 256.97955031994 2.021559523593
0	5868938 1306405 5639 171876 10.001318832335 306.592119553649 32768 1.35348e-07 0.117671574846 296.59742006423 5.3979659174848
0	7175343 423882 171881 224636 306.598738896563 399.998417240451 10402 1.9947e-08 0.090037427718 93.40559578076 1.6674763247707
1	7599225 424198 171878 224631 306.597179905354 399.995210126076 10403 0.007007708479 0.194564531027 351.49317638542 21.401921373714
2	8023423 405460 171878 224631 306.597179905354 399.995210126076 10403 0 0.18604041997 271.29612833615 16.467286890451
3	8428883 290798 171878 224631 306.597179905354 399.995210126076 10403 0 21 29741 219371
4	8719681 321351 171878 224631 306.597179905354 399.995210126076 10403 8005 9991 94858014 868448695854
5	9041032 465580 171878 224631 306.597179905354 399.995210126076 10403 0.0070063056751076 0.0087445346658339 80.192708102618 0.62077656881332
6	9506612 8161 5726 224615 10.214543653024 399.967147080249 197 0.007212399407029 8.7064546024203 393.38296915441 1298.542679364
7	9514773 8600 5783 223943 10.371519359448 398.694648597691 207 0.015312420483765 11.101081324143 390.29766772221 1468.2259421996
8	9523373 7670 5819 223283 10.45181969143 397.454844169815 185 0.0031212753008953 8.4726524362941 392.40630951496 1496.7160746064
9	9531043 8369 5916 223072 10.599670736566 397.118689717998 201 0.025469954306526 11.604357751378 389.56783188009 1546.7354969288
10	9539412 8056 5996 224413 10.73812045574 399.64254017934 190 0.016495491118007 14.095885641247 393.27679135305 1695.0058211443
11	9547468 8823 6010 223371 10.760676168041 397.662913526755 207 0.0021831164111163 10.751948949011 390.79916866825 1430.0955962496
12	9556291 8428 6183 224387 11.127471110794 399.603306624474 198 0.0051585431978651 10.993524107418 392.88188699923 1549.9308416487
13	9564719 8194 6223 224609 11.19093478548 399.954983654952 193 0.054271041509915 13.040260896365 389.88080838412 1608.8321451106
14	9572913 9150 6324 224363 11.473621939573 399.560154072893 215 0.00053658455780424 9.1107839380427 389.84636881908 1269.3521332636
15	9582063 9286 6485 223883 11.887173010379 398.590426922207 218 0.0038164335498453 9.9818469917162 391.91993610699 1283.2710264163
16	9591349 7851 6518 221709 11.932170900127 394.672906297817 185 7.7533175843083e-05 10.912763165229 388.16468601702 1546.5525080538
17	9599200 8945 6809 222738 12.516522093298 396.458452501244 210 0.0040491929176511 11.330345311278 391.63948354417 1431.4269254164
18	9608145 6989 6967 223154 12.859651942465 397.25417476883 165 0.00096506622425339 9.7432648657487 390.3214061772 1589.4819963147
19	9615134 8799 7066 224181 12.999982028018 399.115039012459 207 0.0072027095285813 9.3679445434325 388.46581939989 1337.5916234167
20	9623933 8689 8813 221834 16.209459397045 394.953774610027 204 0.0075512171541706 11.127243400255 385.05177930703 1564.521218858
21	9632622 6974 9179 222064 16.922717444539 395.356757388892 164 0.015584260403354 10.442771411105 384.91643292696 1662.0838836825

