file 5684489 1614185357                                         
version 2
run Nonmonitoring-exponential-351-20210224-17:49:16-26876
attr configname Nonmonitoring-exponential
attr datetime 20210224-17:49:16
attr experiment Nonmonitoring-exponential
attr inifile aerocom.ini
attr iterationvars $0=15
attr iterationvarsf 15-
attr measurement $0=15
attr network Aerocom
attr processid 26876
attr repetition 51
attr replication #51
attr resultdir results
attr runnumber 351
attr seedset 51
param **.t 2s
param **.k 15ms
param **.X 0.05s
param **.m 1s
param **.tDistribution "\"exponential\""
param **.operationMode 1
param **.s "70 byte"
param **.dimPoolMax 10000
param **.dimPoolMin 8000
param **.nDL 16
param **.nA 1
param **.DLMaxCapacity 0
param **.trasmitting false

vector 0 Aerocom.aircraft[0].linkSelector responseTime:vector ETV
attr "" ""
attr source computeResponseTime
vector 1 Aerocom.aircraft[0].linkSelector waitingTime:vector ETV
attr "" ""
attr source computeWaitingTime
vector 2 Aerocom.aircraft[0].linkSelector queueLength:vector ETV
attr "" ""
attr source computeQueueLength
vector 3 Aerocom.aircraft[0].dataLink[9] actualCapacity:vector ETV
attr "" ""
attr source computeActualCapacity
vector 4 Aerocom.aircraft[0].linkSelector serviceTime:vector ETV
attr "" ""
attr source computeServiceTime
vector 5 Aerocom.aircraft[0].packetGenerator arrivalTime:vector ETV
attr "" ""
attr source computeArrivalTime
vector 6 Aerocom.aircraft[0].dataLink[9] tDistribution:vector ETV
attr "" ""
attr source computeTDistribution
vector 7 Aerocom.aircraft[0].dataLink[4] tDistribution:vector ETV
attr "" ""
attr source computeTDistribution
vector 8 Aerocom.aircraft[0].dataLink[12] tDistribution:vector ETV
attr "" ""
attr source computeTDistribution
vector 9 Aerocom.aircraft[0].dataLink[14] tDistribution:vector ETV
attr "" ""
attr source computeTDistribution
vector 10 Aerocom.aircraft[0].dataLink[7] tDistribution:vector ETV
attr "" ""
attr source computeTDistribution
vector 11 Aerocom.aircraft[0].dataLink[3] tDistribution:vector ETV
attr "" ""
attr source computeTDistribution
vector 12 Aerocom.aircraft[0].dataLink[10] tDistribution:vector ETV
attr "" ""
attr source computeTDistribution
vector 13 Aerocom.aircraft[0].dataLink[6] tDistribution:vector ETV
attr "" ""
attr source computeTDistribution
vector 14 Aerocom.aircraft[0].dataLink[11] tDistribution:vector ETV
attr "" ""
attr source computeTDistribution
vector 15 Aerocom.aircraft[0].dataLink[5] tDistribution:vector ETV
attr "" ""
attr source computeTDistribution
vector 16 Aerocom.aircraft[0].dataLink[15] tDistribution:vector ETV
attr "" ""
attr source computeTDistribution
vector 17 Aerocom.aircraft[0].dataLink[0] tDistribution:vector ETV
attr "" ""
attr source computeTDistribution
vector 18 Aerocom.aircraft[0].dataLink[13] tDistribution:vector ETV
attr "" ""
attr source computeTDistribution
vector 19 Aerocom.aircraft[0].dataLink[2] tDistribution:vector ETV
attr "" ""
attr source computeTDistribution
vector 20 Aerocom.aircraft[0].dataLink[1] tDistribution:vector ETV
attr "" ""
attr source computeTDistribution
vector 21 Aerocom.aircraft[0].dataLink[8] tDistribution:vector ETV
attr "" ""
attr source computeTDistribution
0	3133 1032877 3492 136507 10.003655521355 399.981473793995 25969 0.007021767479 0.074584724095 313.26442634591 4.8486734632735
1	1036010 872155 3492 136506 10.003655521355 399.973635048194 25968 0 0.066237478686 109.7393039458 1.5152674647022
2	1908165 698189 3492 136506 10.003655521355 399.973635048194 25968 0 7 7164 13672
3	2606354 776093 3492 136506 10.003655521355 399.973635048194 25968 8007 9969 232618018 2089772587852
4	3382447 1136087 3492 136506 10.003655521355 399.973635048194 25968 0.0070217674791855 0.0087423504433621 203.50811906922 1.5994495641529
5	4518534 1032646 3495 136505 10.008696774116 399.973635048194 25967 1.166076e-06 0.136687857751 389.99688064003 11.60317729689
6	5551180 7661 3550 136056 10.147042815086 398.784692074354 186 0.0034676309935838 17.605793512517 389.95366643089 1773.9747195335
7	5558841 8711 3566 135578 10.214391246041 397.373545694971 211 0.00065756734216423 11.955900656755 399.11505510569 1687.452477587
8	5567552 8686 3573 136251 10.269581513691 399.376103907645 211 0.059670334458778 11.321657160284 392.53030438499 1358.9405974399
9	5576238 8563 3599 136304 10.369224951562 399.479186656876 208 0.02431707732181 10.754342396157 390.05773316797 1370.4470846067
10	5584801 8667 3644 135654 10.530335432706 397.659619452298 205 0.010726436120428 11.889208367431 389.69327755365 1485.1826351437
11	5593468 8305 3802 135514 10.875595965393 397.210100380123 197 0.035245985290606 9.5856390192855 391.04598144858 1476.8617636992
12	5601773 8046 3818 135928 10.912928637724 398.490839601015 190 0.0011255820528345 16.177659286362 389.55770285946 1877.5488179534
13	5609819 8516 3879 135778 11.120333967496 397.997447249167 202 0.01263946949415 8.6047650576354 389.99847417843 1395.5500419219
14	5618335 8804 3903 136439 11.21759157919 399.799698071161 209 0.0095142077960558 10.69799868834 391.05980444158 1412.8770259701
15	5627139 8398 4005 136222 11.600866846281 399.249922391673 199 0.0086007677928938 10.254414320331 391.35525116753 1424.7237290143
16	5635537 7678 4006 135054 11.610129676724 395.89392143389 182 0.00020523397846084 15.341997188924 391.53483758526 1808.0502829882
17	5643215 8235 4028 135961 11.680863290644 398.561940868511 195 0.0086422050207295 10.000299753896 391.63612275377 1455.23825354
18	5651450 8018 4139 136488 12.029130299703 399.915801254669 190 0.00039403622576271 11.79071783274 391.28885736179 1601.116806827
19	5659468 8025 4267 136047 12.360642866619 398.738748006149 190 0.0060644199427468 12.910452874564 388.93296128332 1621.2860473423
20	5667493 8488 4476 135064 12.892543827096 395.956937878705 201 0.0071955891288715 9.6696753613414 387.72032331904 1373.0024987135
21	5675981 8507 4637 135709 13.343582077286 397.816175301769 201 0.0030674603790727 12.007322603634 387.21233925043 1416.7622205545

