version 2
run Nonmonitoring-exponential-509-20210224-17:49:28-27046
attr configname Nonmonitoring-exponential
attr datetime 20210224-17:49:28
attr experiment Nonmonitoring-exponential
attr inifile aerocom.ini
attr iterationvars $0=50
attr iterationvarsf 50-
attr measurement $0=50
attr network Aerocom
attr processid 27046
attr repetition 9
attr replication #9
attr resultdir results
attr runnumber 509
attr seedset 9
param **.t 2s
param **.k 50ms
param **.X 0.05s
param **.m 1s
param **.tDistribution "\"exponential\""
param **.operationMode 1
param **.s "70 byte"
param **.dimPoolMax 10000
param **.dimPoolMin 8000
param **.nDL 16
param **.nA 1
param **.DLMaxCapacity 0
param **.trasmitting false

vector 0 Aerocom.aircraft[0].packetGenerator arrivalTime:vector ETV
attr "" ""
attr source computeArrivalTime
vector 1 Aerocom.aircraft[0].linkSelector waitingTime:vector ETV
attr "" ""
attr source computeWaitingTime
vector 2 Aerocom.aircraft[0].linkSelector queueLength:vector ETV
attr "" ""
attr source computeQueueLength
vector 3 Aerocom.aircraft[0].dataLink[5] actualCapacity:vector ETV
attr "" ""
attr source computeActualCapacity
vector 4 Aerocom.aircraft[0].linkSelector serviceTime:vector ETV
attr "" ""
attr source computeServiceTime
vector 5 Aerocom.aircraft[0].linkSelector responseTime:vector ETV
attr "" ""
attr source computeResponseTime
vector 6 Aerocom.aircraft[0].dataLink[13] tDistribution:vector ETV
attr "" ""
attr source computeTDistribution
vector 7 Aerocom.aircraft[0].dataLink[7] tDistribution:vector ETV
attr "" ""
attr source computeTDistribution
vector 8 Aerocom.aircraft[0].dataLink[6] tDistribution:vector ETV
attr "" ""
attr source computeTDistribution
vector 9 Aerocom.aircraft[0].dataLink[2] tDistribution:vector ETV
attr "" ""
attr source computeTDistribution
vector 10 Aerocom.aircraft[0].dataLink[5] tDistribution:vector ETV
attr "" ""
attr source computeTDistribution
vector 11 Aerocom.aircraft[0].dataLink[11] tDistribution:vector ETV
attr "" ""
attr source computeTDistribution
vector 12 Aerocom.aircraft[0].dataLink[10] tDistribution:vector ETV
attr "" ""
attr source computeTDistribution
vector 13 Aerocom.aircraft[0].dataLink[4] tDistribution:vector ETV
attr "" ""
attr source computeTDistribution
vector 14 Aerocom.aircraft[0].dataLink[12] tDistribution:vector ETV
attr "" ""
attr source computeTDistribution
vector 15 Aerocom.aircraft[0].dataLink[15] tDistribution:vector ETV
attr "" ""
attr source computeTDistribution
vector 16 Aerocom.aircraft[0].dataLink[0] tDistribution:vector ETV
attr "" ""
attr source computeTDistribution
vector 17 Aerocom.aircraft[0].dataLink[1] tDistribution:vector ETV
attr "" ""
attr source computeTDistribution
vector 18 Aerocom.aircraft[0].dataLink[3] tDistribution:vector ETV
attr "" ""
attr source computeTDistribution
vector 19 Aerocom.aircraft[0].dataLink[9] tDistribution:vector ETV
attr "" ""
attr source computeTDistribution
vector 20 Aerocom.aircraft[0].dataLink[14] tDistribution:vector ETV
attr "" ""
attr source computeTDistribution
vector 21 Aerocom.aircraft[0].dataLink[8] tDistribution:vector ETV
attr "" ""
attr source computeTDistribution
0	1017	10.038235033635	0.067240537641
0	1023	10.105475571276	0.082976280703
0	1030	10.188451851979	0.010117578283
0	1035	10.198569430262	0.061667399726
0	1040	10.260236829988	0.088704771405
0	1046	10.348941601393	0.091117225569
0	1051	10.440058826962	0.03574228364
0	1056	10.475801110602	0.007644957057
0	1061	10.483446067659	0.061833232075
0	1066	10.545279299734	0.064973029333
0	1071	10.610252329067	0.065041282681
0	1076	10.675293611748	0.008127755062
0	1082	10.68342136681	0.143014462424
0	1090	10.826435829234	0.017850017791
0	1095	10.844285847025	0.024868137255
0	1100	10.86915398428	0.071491703095
0	1106	10.940645687375	0.140041431997
0	1112	11.080687119372	0.040863467385
0	1117	11.121550586757	0.032425184126
0	1123	11.153975770883	0.060382372676
0	1128	11.214358143559	0.117028224344
0	1133	11.331386367903	0.014621358923
0	1138	11.346007726826	0.072123839435
0	1143	11.418131566261	0.00197524937
0	1145	11.420106815631	0.025622252078
0	1153	11.445729067709	0.020591072774
0	1158	11.466320140483	0.003733663714
0	1160	11.470053804197	0.08832215292
0	1168	11.558375957117	0.025840613658
0	1173	11.584216570775	0.00372959079
0	1175	11.587946161565	0.040853225933
0	1183	11.628799387498	0.018132731998
0	1188	11.646932119496	0.040491160961
0	1193	11.687423280457	0.00836252725
0	1198	11.695785807707	0.011794184582
0	1203	11.707579992289	0.028674271469
0	1209	11.736254263758	0.143017796054
0	1215	11.879272059812	0.011170134884
0	1220	11.890442194696	0.04860829758
0	1225	11.939050492276	0.019039518529
0	1230	11.958090010805	0.061387088743
0	1235	12.019477099548	0.003953730506
0	1237	12.023430830054	0.064082723301
0	1245	12.087513553355	0.048218901248
0	1250	12.135732454603	0.146963246906
0	1255	12.282695701509	0.027228369118
0	1260	12.309924070627	0.018674803832
0	1265	12.328598874459	0.035019165378
0	1270	12.363618039837	0.005886280717
0	1272	12.369504320554	0.014178625738
0	1280	12.383682946292	0.065044824257
0	1285	12.448727770549	0.050118335853
0	1290	12.498846106402	0.018858370258
0	1295	12.51770447666	0.094643950926
0	1300	12.612348427586	0.020178166937
0	1305	12.632526594523	0.011146258285
0	1310	12.643672852808	0.003080282358
0	1312	12.646753135166	0.128900314205
0	1320	12.775653449371	0.010074319387
0	1325	12.785727768758	0.102635192265
0	1330	12.888362961023	0.013119987623
0	1335	12.901482948646	0.011821494511
0	1341	12.913304443157	0.001772084405
0	1343	12.915076527562	0.005129904935
0	1345	12.920206432497	0.049878242018
0	1356	12.970084674515	0.159455674189
0	1361	13.129540348704	0.01269200349
0	1366	13.142232352194	0.003501152906
0	1368	13.1457335051	0.055234165353
0	1376	13.200967670453	0.023338109846
0	1381	13.224305780299	0.048818608325
0	1386	13.273124388624	0.041890594497
0	1391	13.315014983121	0.065101846904
0	1397	13.380116830025	0.130981285343
0	1405	13.511098115368	0.089758495239
0	1411	13.600856610607	0.025953599224
0	1416	13.626810209831	0.006008726287
0	1418	13.632818936118	0.031551266776
0	1426	13.664370202894	0.008365605364
0	1431	13.672735808258	0.008556938265
0	1436	13.681292746523	0.005073841748
0	1438	13.686366588271	0.116114996742
0	1447	13.802481585013	0.005938665136
0	1449	13.808420250149	0.010613446446
0	1457	13.819033696595	0.02968841321
0	1462	13.848722109805	0.056948534539
0	1467	13.905670644344	0.136583196763
0	1475	14.042253841107	0.004011574933
0	1477	14.04626541604	0.091865636808
0	1485	14.138131052848	0.01888035215
0	1490	14.157011404998	0.103377350529
0	1496	14.260388755527	0.067363072756
0	1501	14.327751828283	0.09326484223
0	1508	14.421016670513	0.046325559431
0	1513	14.467342229944	0.008485544739
0	1518	14.475827774683	0.026800341702
0	1523	14.502628116385	0.133563893168
0	1528	14.636192009553	0.000556449857
0	1530	14.63674845941	0.119585179306
0	1539	14.756333638716	0.015755199415
0	1545	14.772088838131	0.022078540702
0	1550	14.794167378833	0.1548723724
0	1555	14.949039751233	0.037869642269
0	1560	14.986909393502	0.061417527177
0	1565	15.048326920679	0.042675697539
0	1571	15.091002618218	0.044147309724
0	1576	15.135149927942	0.009705112761
0	1581	15.144855040703	0.06976340356
0	1586	15.214618444263	0.044709279362
0	1591	15.259327723625	0.079807186941
0	1596	15.339134910566	0.176432969298
0	1601	15.515567879864	0.003704660692
0	1603	15.519272540556	0.291942050693
0	1614	15.811214591249	0.010953585163
0	1619	15.822168176412	0.004953431599
0	1621	15.827121608011	0.196239936492
0	1631	16.023361544503	0.001455906663
0	1633	16.024817451166	0.018870627243
0	1641	16.043688078409	0.013060429222
0	1646	16.056748507631	0.019663467539
0	1651	16.07641197517	0.055400463403
0	1656	16.131812438573	0.000730889962
0	1658	16.132543328535	0.012327822663
0	1663	16.144871151198	0.007076448525
0	1668	16.151947599723	0.084024329181
0	1676	16.235971928904	0.063062891846
0	1681	16.29903482075	0.015579173327
0	1686	16.314613994077	0.07876161157
0	1691	16.393375605647	0.059478759356
0	1696	16.452854365003	0.056621360043
0	1701	16.509475725046	0.069496346855
0	1706	16.578972071901	0.04347019502
0	1711	16.622442266921	0.043115997179
0	1717	16.6655582641	0.047143326379
0	1722	16.712701590479	0.025955629947
0	1727	16.738657220426	0.098962943495
0	1733	16.837620163921	0.06010136206
0	1738	16.897721525981	0.007089545841
0	1743	16.904811071822	0.036754390725
0	1748	16.941565462547	0.002287020337
0	1750	16.943852482884	0.07097110683
0	1759	17.014823589714	0.033057128523
0	1764	17.047880718237	0.153448022359
0	1773	17.201328740596	0.021315286405
0	1779	17.222644027001	0.155376409834
0	1787	17.378020436835	0.052427559597
0	1792	17.430447996432	0.037625634851
0	1797	17.468073631283	0.023518438438
0	1802	17.491592069721	0.001789535292
0	1804	17.493381605013	0.075053705403
0	1812	17.568435310416	0.052470250965
0	1818	17.620905561381	0.062844409115
0	1824	17.683749970496	0.077311477021
0	1829	17.761061447517	0.025778157206
0	1835	17.786839604723	0.105035558047
0	1840	17.89187516277	0.074616158935
0	1846	17.966491321705	0.003918359311
0	1848	17.970409681016	0.334966553492
0	1858	18.305376234508	0.008684364973
0	1863	18.314060599481	0.099970215997
0	1868	18.414030815478	0.039207399026
0	1873	18.453238214504	0.174779878458
0	1880	18.628018092962	0.006505312003
0	1882	18.634523404965	0.021459337489
0	1890	18.655982742454	0.037662403134
0	1895	18.693645145588	0.040059812848
0	1903	18.733704958436	0.038242369524
0	1908	18.77194732796	0.055013536919
0	1913	18.826960864879	0.144282147457
0	1918	18.971243012336	0.066415562253
0	1927	19.037658574589	0.045201246847
0	1932	19.082859821436	0.081947295446
0	1937	19.164807116882	0.030900983044
0	1942	19.195708099926	0.250713807163
0	1947	19.446421907089	0.016006833562
0	1952	19.462428740651	0.004987652807
0	1954	19.467416393458	0.05487500341
0	1963	19.522291396868	0.030022351165
0	1968	19.552313748033	0.08861500064
0	1974	19.640928748673	0.096008894048
0	1979	19.736937642721	0.011194119631
0	1984	19.748131762352	0.156419768258
0	1989	19.90455153061	0.002291454185
0	1991	19.906842984795	0.040726170273
0	2000	19.947569155068	0.053358531673
0	2007	20.000927686741	0.059827725369
0	2013	20.06075541211	0.000592595549
0	2015	20.061348007659	0.005251457071
0	2017	20.06659946473	0.13719496528
0	2030	20.20379443001	0.159565305537
0	2036	20.363359735547	0.050935996584
0	2041	20.414295732131	0.101392343764
0	2046	20.515688075895	0.034009535427
0	2051	20.549697611322	0.146997362183
0	2056	20.696694973505	0.079099584666
0	2063	20.775794558171	0.012754732361
0	2068	20.788549290532	0.164155188542
0	2075	20.952704479074	0.093474849449
0	2080	21.046179328523	0.070235161952
0	2087	21.116414490475	0.002987945577
0	2089	21.119402436052	0.135721386405
0	2098	21.255123822457	0.022028840682
0	2103	21.277152663139	0.098688219182
0	2111	21.375840882321	0.075419694873
0	2116	21.451260577194	0.032079331653
0	2121	21.483339908847	0.066532747007
0	2126	21.549872655854	0.007475826309
0	2128	21.557348482163	0.007994102722
0	2133	21.565342584885	0.0067361734
0	2138	21.572078758285	0.047748206904
0	2146	21.619826965189	0.003594207342
0	2148	21.623421172531	0.068399617233
0	2157	21.691820789764	0.02509237517
0	2162	21.716913164934	0.022178904048
0	2167	21.739092068982	0.168080557633
0	2175	21.907172626615	0.046857370082
0	2180	21.954029996697	0.067981854613
0	2185	22.02201185131	0.049189111938
0	2190	22.071200963248	0.026930165223
0	2195	22.098131128471	0.024492943132
0	2200	22.122624071603	0.208534055558
0	2207	22.331158127161	0.026306610938
0	2212	22.357464738099	0.133080312996
0	2218	22.490545051095	0.075125750418
0	2225	22.565670801513	0.027407233666
0	2230	22.593078035179	0.036486657705
0	2235	22.629564692884	0.023142280712
0	2240	22.652706973596	0.003969580803
0	2242	22.656676554399	0.071227035906
0	2251	22.727903590305	0.007299658521
0	2253	22.735203248826	0.017219491414
0	2261	22.75242274024	0.003577975606
0	2263	22.756000715846	0.113167214784
0	2272	22.86916793063	0.172737166188
0	2278	23.041905096818	0.002476623344
0	2280	23.044381720162	0.091032744262
0	2290	23.135414464424	0.007366798878
0	2292	23.142781263302	0.134984338485
0	2300	23.277765601787	0.038195010552
0	2305	23.315960612339	0.040661761951
0	2310	23.35662237429	0.009869556914
0	2315	23.366491931204	0.085060752694
0	2320	23.451552683898	0.004349817896
0	2323	23.455902501794	0.062579326816
0	2331	23.51848182861	0.026224517895
0	2336	23.544706346505	0.052291530366
0	2342	23.596997876871	0.036096167171
0	2347	23.633094044042	0.02171157396
0	2352	23.654805618002	0.030094595742
0	2357	23.684900213744	0.103233687362
0	2362	23.788133901106	0.118530799924
0	2368	23.90666470103	0.017160688869
0	2373	23.923825389899	0.122868093586
0	2379	24.046693483485	0.159151687411
0	2385	24.205845170896	0.009311166469
0	2390	24.215156337365	0.041299979776
0	2395	24.256456317141	0.009982422374
0	2401	24.266438739515	3.544651e-05
0	2403	24.266474186025	0.047713278079
0	2411	24.314187464104	0.001162793822
0	2413	24.315350257926	0.111970924522
0	2423	24.427321182448	0.069831246103
0	2428	24.497152428551	0.017395271292
0	2433	24.514547699843	0.03814511246
0	2438	24.552692812303	0.254234658071
0	2446	24.806927470374	0.021170321914
0	2451	24.828097792288	0.001204124144
0	2453	24.829301916432	0.022260776565
0	2461	24.851562692997	0.136103154097
0	2466	24.987665847094	4.7028382e-05
0	2468	24.987712875476	0.062817727759
0	2477	25.050530603235	0.241078653911
0	2484	25.291609257146	0.084317052867
0	2489	25.375926310013	0.079527341214
0	2495	25.455453651227	0.028693001296
0	2500	25.484146652523	0.105713046692
0	2506	25.589859699215	0.101604548797
0	2511	25.691464248012	0.004018537675
0	2513	25.695482785687	0.079112778162
0	2522	25.774595563849	0.059391272377
0	2527	25.833986836226	0.040599398951
0	2532	25.874586235177	0.097135331346
0	2537	25.971721566523	0.099170743486
0	2545	26.070892310009	0.148494966138
0	2550	26.219387276147	0.016288959618
0	2555	26.235676235765	0.031028397714
0	2560	26.266704633479	0.036112981
0	2565	26.302817614479	0.039522935203
0	2570	26.342340549682	0.002056521412
0	2572	26.344397071094	0.00416981963
0	2574	26.348566890724	0.102747287623
0	2586	26.451314178347	0.04808685297
0	2592	26.499401031317	0.034266334737
0	2598	26.533667366054	0.011624342213
0	2603	26.545291708267	0.031851801616
0	2610	26.577143509883	0.000827692129
0	2612	26.577971202012	0.00521466362
0	2614	26.583185865632	0.017466378559
0	2622	26.600652244191	0.06968176293
0	2630	26.670334007121	0.043237276147
0	2635	26.713571283268	0.026922958564
0	2640	26.740494241832	0.200080265191
0	2646	26.940574507023	0.018649296625
0	2651	26.959223803648	0.01593300524
0	2656	26.975156808888	0.027698691843
0	2661	27.002855500731	0.040054103816
0	2666	27.042909604547	0.120901596282
0	2672	27.163811200829	0.016817914143
0	2677	27.180629114972	0.267438018252
0	2684	27.448067133224	0.129357423419
0	2690	27.577424556643	0.011379601518
0	2695	27.588804158161	0.019577897398
0	2700	27.608382055559	0.026375967499
0	2705	27.634758023058	0.020955968442
0	2710	27.6557139915	0.013296466134
0	2715	27.669010457634	0.017083626437
0	2721	27.686094084071	0.039490511659
0	2726	27.72558459573	0.004942958203
0	2728	27.730527553933	0.060425034179
0	2737	27.790952588112	0.175431879099
0	2743	27.966384467211	0.010717378925
0	2748	27.977101846136	0.035414411406
0	2753	28.012516257542	0.064514171968
0	2759	28.07703042951	0.032001415342
0	2766	28.109031844852	0.005629129417
0	2768	28.114660974269	0.036183194597
0	2776	28.150844168866	0.015738840502
0	2781	28.166583009368	0.056489013988
0	2786	28.223072023356	0.002539946069
0	2788	28.225611969425	0.178515719923
0	2797	28.404127689348	0.006162732814
0	2799	28.410290422162	0.122416877911
0	2810	28.532707300073	0.019568272885
0	2815	28.552275572958	0.027642038284
0	2820	28.579917611242	0.087214638167
0	2827	28.667132249409	0.170494260472
0	2832	28.837626509881	0.002972686067
0	2834	28.840599195948	0.044539061111
0	2842	28.885138257059	0.000617492625
0	2844	28.885755749684	0.14431007171
0	2854	29.030065821394	0.048359138538
0	2860	29.078424959932	0.043991336843
0	2865	29.122416296775	0.022738928062
0	2870	29.145155224837	0.043441293117
0	2875	29.188596517954	0.075647878264
0	2880	29.264244396218	0.022240741921
0	2885	29.286485138139	0.051743696764
0	2890	29.338228834903	0.048069405702
0	2897	29.386298240605	0.130970935489
0	2903	29.517269176094	0.029104723787
0	2908	29.546373899881	0.013552298625
0	2913	29.559926198506	0.146813535434
0	2919	29.70673973394	0.033922668388
0	2924	29.740662402328	0.010434577132
0	2929	29.75109697946	0.038676022053
0	2935	29.789773001513	0.045885341707
0	2940	29.83565834322	0.030755041592
0	2945	29.866413384812	0.000131255584
0	2947	29.866544640396	0.027456957763
0	2955	29.894001598159	0.056172300396
0	2960	29.950173898555	0.039112384988
0	2967	29.989286283543	0.068789706761
0	2973	30.058075990304	0.052397741502
0	2978	30.110473731806	0.008555961452
0	2984	30.119029693258	0.093304343124
0	2990	30.212334036382	0.122258832807
0	2995	30.334592869189	0.012518975189
0	3000	30.347111844378	0.052077685127
0	3005	30.399189529505	0.012330776739
0	3010	30.411520306244	0.11194833037
0	3015	30.523468636614	0.026502911057
0	3020	30.549971547671	0.00258164173
0	3022	30.552553189401	0.038348820624
0	3030	30.590902010025	0.120275939686
0	3035	30.711177949711	0.016739359868
0	3040	30.727917309579	0.055571544543
0	3045	30.783488854122	0.176973772085
0	3050	30.960462626207	0.288570163151
0	3058	31.249032789358	0.020646617821
0	3063	31.269679407179	0.030002856347
0	3068	31.299682263526	0.055922770394
0	3074	31.35560503392	0.131882070754
0	3081	31.487487104674	0.146277675619
0	3086	31.633764780293	4.6582338e-05
0	3088	31.633811362631	0.022353088947
0	3096	31.656164451578	0.025427336883
0	3101	31.681591788461	0.118889357026
0	3107	31.800481145487	0.002755878724
0	3109	31.803237024211	0.030571428739
0	3117	31.83380845295	0.013995489211
0	3122	31.847803942161	0.101099225764
0	3127	31.948903167925	0.081508268619
0	3133	32.030411436544	0.104353459566
0	3139	32.13476489611	0.105913809444
0	3145	32.240678705554	0.033345669716
0	3150	32.27402437527	0.020630533115
0	3155	32.294654908385	0.051891309154
0	3160	32.346546217539	0.028548105589
0	3165	32.375094323128	0.011401491361
0	3170	32.386495814489	0.04464424629
0	3176	32.431140060779	0.017156436372
0	3181	32.448296497151	0.035072084501
0	3187	32.483368581652	0.032938892825
0	3192	32.516307474477	0.112070394821
0	3198	32.628377869298	0.064117890467
0	3204	32.692495759765	0.097007371902
0	3209	32.789503131667	0.082230860134
0	3214	32.871733991801	0.004910676393
0	3216	32.876644668194	0.018920201012
0	3224	32.895564869206	0.075261053951
0	3230	32.970825923157	0.008471310487
0	3235	32.979297233644	0.114532372337
0	3240	33.093829605981	0.041337478747
0	3246	33.135167084728	0.015887600549
0	3251	33.151054685277	0.087665712419
0	3256	33.238720397696	0.005748646287
0	3258	33.244469043983	0.06637019386
0	3266	33.310839237843	0.007609148691
0	3271	33.318448386534	0.012208144441
0	3276	33.330656530975	0.060679630881
0	3281	33.391336161856	4.9047355e-05
0	3283	33.391385209211	0.004071593191
0	3285	33.395456802402	0.02696737997
0	3296	33.422424182372	0.035434197083
0	3301	33.457858379455	0.010607933934
0	3306	33.468466313389	0.080559313884
0	3311	33.549025627273	0.05258595493
0	3317	33.601611582203	0.062436884101
0	3322	33.664048466304	0.261696229481
0	3330	33.925744695785	0.015433186852
0	3336	33.941177882637	0.042123662925
0	3341	33.983301545562	0.009179203539
0	3346	33.992480749101	0.009293888258
0	3352	34.001774637359	0.068354248546
0	3358	34.070128885905	0.008272380223
0	3363	34.078401266128	0.025799636781
0	3368	34.104200902909	0.000846485105
0	3370	34.105047388014	0.051957570623
0	3378	34.157004958637	0.006649810117
0	3380	34.163654768754	0.015450784341
0	3388	34.179105553095	0.056064822604
0	3394	34.235170375699	0.111963931704
0	3400	34.347134307403	0.036716982579
0	3405	34.383851289982	0.028406074302
0	3411	34.412257364284	0.061539235127
0	3416	34.473796599411	0.003862321811
0	3418	34.477658921222	0.192506185609
0	3427	34.670165106831	0.011690451402
0	3432	34.681855558233	0.045912209403
0	3437	34.727767767636	0.053831986696
0	3442	34.781599754332	0.001598442822
0	3444	34.783198197154	0.018415620954
0	3452	34.801613818108	0.005993158188
0	3454	34.807606976296	0.04681726499
0	3462	34.854424241286	0.159826315356
0	3468	35.014250556642	0.011160766412
0	3473	35.025411323054	0.083671354463
0	3479	35.109082677517	0.089445138239
0	3485	35.198527815756	0.001660809651
0	3487	35.200188625407	0.055438357901
0	3496	35.255626983308	0.000307022356
0	3498	35.255934005664	0.023113645675
0	3506	35.279047651339	0.005344080403
0	3508	35.284391731742	0.077400051173
0	3517	35.361791782915	0.01078378768
0	3522	35.372575570595	0.007510811248
0	3524	35.380086381843	0.030894117158
0	3532	35.410980499001	0.015979082396
0	3537	35.426959581397	0.062098815596
0	3544	35.489058396993	0.056150629062
0	3549	35.545209026055	0.113409686673
0	3557	35.658618712728	0.011427123133
0	3562	35.670045835861	0.039469572946
0	3567	35.709515408807	0.011869365615
0	3572	35.721384774422	0.118138013005
0	3577	35.839522787427	0.015427687181
0	3582	35.854950474608	0.049266572191
0	3587	35.904217046799	0.038820929769
0	3592	35.943037976568	0.094702827917
0	3597	36.037740804485	0.030501623045
0	3602	36.06824242753	0.088372122485
0	3607	36.156614550015	0.235040639293
0	3613	36.391655189308	0.157608615511
0	3619	36.549263804819	0.067811976679
0	3625	36.617075781498	0.116797662008
0	3630	36.733873443506	0.04263735837
0	3635	36.776510801876	0.107105582008
0	3640	36.883616383884	0.003167711063
0	3642	36.886784094947	0.052344072299
0	3650	36.939128167246	0.006538015101
0	3652	36.945666182347	0.104647542151
0	3661	37.050313724498	0.071832881451
0	3666	37.122146605949	0.047653384036
0	3671	37.169799989985	0.01165073354
0	3678	37.181450723525	0.003684426676
0	3680	37.185135150201	0.07964797166
0	3688	37.264783121861	0.028073232014
0	3693	37.292856353875	0.270095266383
0	3704	37.562951620258	0.008514786653
0	3709	37.571466406911	0.021802077888
0	3714	37.593268484799	0.004358210143
0	3716	37.597626694942	0.070007640205
0	3724	37.667634335147	0.129315472608
0	3729	37.796949807755	0.021936418711
0	3734	37.818886226466	0.031438187674
0	3739	37.85032441414	0.272933282966
0	3745	38.123257697106	0.02373290012
0	3751	38.146990597226	0.011051775651
0	3756	38.158042372877	0.014627163653
0	3761	38.17266953653	0.052314047434
0	3766	38.224983583964	0.053784137331
0	3771	38.278767721295	0.006257857306
0	3773	38.285025578601	0.06460783845
0	3781	38.349633417051	0.026590006551
0	3786	38.376223423602	0.001914261716
0	3788	38.378137685318	0.107656385297
0	3798	38.485794070615	0.133407040898
0	3804	38.619201111513	0.049550235865
0	3809	38.668751347378	0.034914917904
0	3814	38.703666265282	0.025079374004
0	3819	38.728745639286	0.028275935585
0	3826	38.757021574871	0.051601756462
0	3831	38.808623331333	0.042098390798
0	3836	38.850721722131	0.063676166792
0	3841	38.914397888923	0.057535551077
0	3846	38.97193344	0.091785239446
0	3852	39.063718679446	0.061287637214
0	3859	39.12500631666	0.04900124529
0	3864	39.17400756195	0.010040861034
0	3869	39.184048422984	0.006435813744
0	3871	39.190484236728	0.032782366763
0	3879	39.223266603491	0.057312656456
0	3887	39.280579259947	0.009789010885
0	3892	39.290368270832	0.031601266864
0	3897	39.321969537696	0.043634678297
0	3903	39.365604215993	0.038573893322
0	3909	39.404178109315	0.010015210311
0	3914	39.414193319626	0.007956806249
0	3916	39.422150125875	0.100226234021
0	3924	39.522376359896	0.04966518398
0	3929	39.572041543876	0.011889561363
0	3934	39.583931105239	0.02242912956
0	3940	39.606360234799	0.142618352343
0	3945	39.748978587142	0.000136351967
0	3947	39.749114939109	0.022564255292
0	3956	39.771679194401	0.054982652831
0	3962	39.826661847232	0.061328376035
0	3968	39.887990223267	0.005782508807
0	3970	39.893772732074	0.029762236343
0	3978	39.923534968417	0.011273871679
0	3983	39.934808840096	0.026921032976
0	3988	39.961729873072	0.066780984856
0	3994	40.028510857928	0.029241335808
0	3999	40.057752193736	0.019067711248
0	4004	40.076819904984	0.022618749536
0	4009	40.09943865452	0.033231557509
0	4015	40.132670212029	0.058200887045
0	4020	40.190871099074	0.017527786388
0	4025	40.208398885462	0.036764157158
0	4030	40.24516304262	0.005686114348
0	4032	40.250849156968	0.13305132374
0	4041	40.383900480708	0.028446265628
0	4046	40.412346746336	0.068884773537
0	4051	40.481231519873	0.035629905998
0	4056	40.516861425871	0.007723772724
0	4058	40.524585198595	0.019425907765
0	4066	40.54401110636	0.003391695962
0	4068	40.547402802322	0.043016446397
0	4076	40.590419248719	0.004512062131
0	4078	40.59493131085	0.068996391307
0	4086	40.663927702157	0.019029284749
0	4091	40.682956986906	0.074010102722
0	4096	40.756967089628	0.070749773909
0	4102	40.827716863537	0.034817613761
0	4109	40.862534477298	0.029510964268
0	4114	40.892045441566	0.018870193595
0	4119	40.910915635161	0.086158888663
0	4124	40.997074523824	0.0242724296
0	4129	41.021346953424	0.029248522286
0	4134	41.05059547571	0.143069542172
0	4140	41.193665017882	0.020326262878
0	4145	41.21399128076	0.032950547157
0	4150	41.246941827917	0.052939639193
0	4156	41.29988146711	0.025240658768
0	4161	41.325122125878	0.001908934324
0	4163	41.327031060202	0.145620356876
0	4171	41.472651417078	0.03796487274
0	4176	41.510616289818	0.015865275815
0	4181	41.526481565633	0.067790238351
0	4186	41.594271803984	0.041922028099
0	4191	41.636193832083	0.013456344708
0	4196	41.649650176791	0.046762055627
0	4201	41.696412232418	0.069462033303
0	4206	41.765874265721	0.017232591246
0	4211	41.783106856967	0.011398383912
0	4216	41.794505240879	0.022855546939
0	4221	41.817360787818	0.023697969918
0	4227	41.841058757736	0.02231539423
0	4232	41.863374151966	0.007806403455
0	4237	41.871180555421	0.02488191295
0	4242	41.896062468371	0.030532788308
0	4247	41.926595256679	0.010595286673
0	4252	41.937190543352	0.026219948721
0	4257	41.963410492073	0.090190627194
0	4265	42.053601119267	0.05268093163
0	4271	42.106282050897	0.054800266566
0	4276	42.161082317463	0.138190244143
0	4282	42.299272561606	0.086648645325
0	4287	42.385921206931	0.026085567069
0	4292	42.412006774	0.018911727005
0	4297	42.430918501005	0.025660976138
0	4303	42.456579477143	0.124367580625
0	4309	42.580947057768	0.103207191155
0	4314	42.684154248923	0.040189581303
0	4319	42.724343830226	0.000966526501
0	4321	42.725310356727	0.117998055518
0	4330	42.843308412245	0.098086666792
0	4336	42.941395079037	0.169858422282
0	4342	43.111253501319	0.08361736301
0	4348	43.194870864329	0.042767485159
0	4353	43.237638349488	0.018618772814
0	4358	43.256257122302	0.007797709563
0	4363	43.264054831865	0.045767035677
0	4369	43.309821867542	0.012914217118
0	4374	43.32273608466	0.020069489771
0	4379	43.342805574431	0.021180899807
0	4385	43.363986474238	0.003047733673
0	4387	43.367034207911	0.163052082018
0	4396	43.530086289929	0.044454923166
0	4401	43.574541213095	0.075404590606
0	4406	43.649945803701	0.049361196882
0	4411	43.699307000583	0.014855040795
0	4416	43.714162041378	0.010303696409
0	4421	43.724465737787	0.037530484977
0	4427	43.761996222764	0.014941803862
0	4432	43.776938026626	0.090080398829
0	4437	43.867018425455	0.006790824528
0	4439	43.873809249983	0.017643422496
0	4447	43.891452672479	0.022481155586
0	4452	43.913933828065	0.107857638306
0	4459	44.021791466371	0.038759803585
0	4465	44.060551269956	0.006466573085
0	4468	44.067017843041	0.104024762555
0	4479	44.171042605596	0.003641203589
0	4481	44.174683809185	0.05015549013
0	4489	44.224839299315	0.080913759594
0	4494	44.305753058909	0.059298421017
0	4499	44.365051479926	0.112582785894
0	4504	44.47763426582	0.022150631786
0	4509	44.499784897606	0.032062848531
0	4514	44.531847746137	0.054458785097
0	4519	44.586306531234	0.04189616111
0	4524	44.628202692344	0.079970721166
0	4529	44.70817341351	0.143818887424
0	4536	44.851992300934	0.025164629022
0	4543	44.877156929956	0.00590370632
0	4545	44.883060636276	0.061557866792
0	4553	44.944618503068	0.021038756658
0	4558	44.965657259726	0.007888433649
0	4563	44.973545693375	0.001225713261
0	4565	44.974771406636	0.04689997124
0	4573	45.021671377876	0.025054558786
0	4579	45.046725936662	0.028756703341
0	4584	45.075482640003	0.016503119945
0	4589	45.091985759948	0.030836426393
0	4595	45.122822186341	0.01377794252
0	4600	45.136600128861	0.081092375028
0	4607	45.217692503889	0.010477034676
0	4612	45.228169538565	0.003663516428
0	4614	45.231833054993	0.01003936176
0	4619	45.241872416753	0.02132442034
0	4627	45.263196837093	0.01724996396
0	4632	45.280446801053	0.024527316332
0	4637	45.304974117385	0.076704024896
0	4644	45.381678142281	0.004658181563
0	4646	45.386336323844	0.038290794235
0	4655	45.424627118079	0.069986149194
0	4660	45.494613267273	0.219872525938
0	4665	45.714485793211	0.037540101143
0	4670	45.752025894354	0.029381370929
0	4675	45.781407265283	0.058867342142
0	4681	45.840274607425	0.093632634629
0	4687	45.933907242054	0.00151841214
0	4689	45.935425654194	0.003122957736
0	4691	45.93854861193	0.013187760233
0	4699	45.951736372163	0.014774843237
0	4707	45.9665112154	0.018050980223
0	4712	45.984562195623	0.024102648558
0	4717	46.008664844181	2.1668026e-05
0	4719	46.008686512207	0.022242472298
0	4727	46.030928984505	0.094606017035
0	4732	46.12553500154	0.014644325702
0	4737	46.140179327242	0.006412619249
0	4739	46.146591946491	0.241317684682
0	4750	46.387909631173	0.022006821746
0	4755	46.409916452919	0.000142046036
0	4757	46.410058498955	0.033529479464
0	4765	46.443587978419	0.05649489905
0	4770	46.500082877469	0.024243032237
0	4775	46.524325909706	0.170868484565
0	4782	46.695194394271	0.006048688222
0	4784	46.701243082493	0.11811164179
0	4793	46.819354724283	0.062866713252
0	4798	46.882221437535	0.028379090428
0	4803	46.910600527963	0.020129252724
0	4808	46.930729780687	0.102067156027
0	4815	47.032796936714	0.102106677794
0	4820	47.134903614508	0.051232047892
0	4825	47.1861356624	0.0042637303
0	4827	47.1903993927	0.025155818091
0	4835	47.215555210791	0.148940119206
0	4840	47.364495329997	0.077004433899
0	4845	47.441499763896	0.00911618808
0	4850	47.450615951976	0.026462220657
0	4855	47.477078172633	0.003713883098
0	4857	47.480792055731	0.094888855565
0	4866	47.575680911296	0.0086416988
0	4871	47.584322610096	0.055146164107
0	4876	47.639468774203	0.090579822375
0	4882	47.730048596578	0.122769655349
0	4887	47.852818251927	0.091131320215
0	4892	47.943949572142	0.083753391186
0	4898	48.027702963328	0.002120378613
0	4900	48.029823341941	0.003283915305
0	4902	48.033107257246	0.001228947625
0	4904	48.034336204871	0.005458661506
0	4909	48.039794866377	0.172825835315
0	4923	48.212620701692	0.032210415014
0	4928	48.244831116706	0.009196803147
0	4933	48.254027919853	0.13992728053
0	4938	48.393955200383	0.022460460025
0	4943	48.416415660408	0.033106249919
0	4948	48.449521910327	0.05890678749
0	4953	48.508428697817	0.018824511294
0	4958	48.527253209111	0.047188713298
0	4963	48.574441922409	0.018432889099
0	4968	48.592874811508	0.106088497719
0	4973	48.698963309227	0.029489213445
0	4978	48.728452522672	0.004370521743
0	4980	48.732823044415	0.019536983069
0	4988	48.752360027484	0.002088958105
0	4990	48.754448985589	0.05856796545
0	4998	48.813016951039	0.180177003788
0	5006	48.993193954827	0.045404410739
0	5012	49.038598365566	0.000252041113
0	5014	49.038850406679	0.021073774652
0	5022	49.059924181331	0.010169471501
0	5027	49.070093652832	0.06554304917
0	5033	49.135636702002	0.025794519945
0	5038	49.161431221947	0.010046427026
0	5043	49.171477648973	0.014538243733
0	5048	49.186015892706	0.001039115665
0	5050	49.187055008371	0.006976994722
0	5052	49.194032003093	0.001790615621
0	5057	49.195822618714	0.062858722604
0	5068	49.258681341318	0.003189320631
0	5071	49.261870661949	0.049022443384
0	5080	49.310893105333	0.002630454961
0	5082	49.313523560294	0.023841187822
0	5090	49.337364748116	0.089599518957
0	5097	49.426964267073	0.043651337681
0	5103	49.470615604754	0.074174928556
0	5109	49.54479053331	0.027083948184
0	5114	49.571874481494	0.010645006628
0	5119	49.582519488122	0.028653014449
0	5125	49.611172502571	0.016564824197
0	5130	49.627737326768	0.016578187654
0	5135	49.644315514422	0.070591165533
0	5140	49.714906679955	0.012842407663
0	5145	49.727749087618	0.056474704922
0	5150	49.78422379254	0.044495760867
0	5155	49.828719553407	0.053421490967
0	5160	49.882141044374	0.009914469994
0	5165	49.892055514368	0.018720801144
0	5170	49.910776315512	0.003477418037
0	5172	49.914253733549	0.014407761552
0	5180	49.928661495101	0.010100691395
0	5185	49.938762186496	0.046341835889
0	5191	49.985104022385	0.056159615547
0	5196	50.041263637932	0.031861394021
0	5201	50.073125031953	0.019376596583
0	5206	50.092501628536	0.003438972691
0	5208	50.095940601227	0.012418537105
0	5214	50.108359138332	0.074868443669
0	5222	50.183227582001	0.035858674737
0	5227	50.219086256738	0.010181231758
0	5232	50.229267488496	0.059113812146
0	5238	50.288381300642	0.1533423657
0	5244	50.441723666342	0.015368132258
0	5249	50.4570917986	0.033877965974
0	5254	50.490969764574	0.068518864338
0	5261	50.559488628912	0.066874744552
0	5266	50.626363373464	0.03247229147
0	5271	50.658835664934	0.061363217557
0	5276	50.720198882491	0.090298532039
0	5282	50.81049741453	0.058149417708
0	5287	50.868646832238	0.042868414326
0	5292	50.911515246564	0.029164927067
0	5297	50.940680173631	0.012728393882
0	5302	50.953408567513	0.072320855132
0	5310	51.025729422645	0.047485531213
0	5315	51.073214953858	0.091531562987
0	5322	51.164746516845	0.09757552069
0	5328	51.262322037535	0.024178498649
0	5333	51.286500536184	0.028197974772
0	5338	51.314698510956	0.016910633324
0	5343	51.33160914428	0.052086901105
0	5348	51.383696045385	0.003605508941
0	5350	51.387301554326	0.001617052221
0	5352	51.388918606547	0.067637644698
0	5365	51.456556251245	0.035912060213
0	5370	51.492468311458	0.030271039654
0	5376	51.522739351112	0.088536860709
0	5382	51.611276211821	0.018761561531
0	5387	51.630037773352	0.05868820982
0	5393	51.688725983172	0.089131137692
0	5398	51.777857120864	0.013698371649
0	5403	51.791555492513	0.032340691511
0	5409	51.823896184024	0.038123127081
0	5414	51.862019311105	0.035906830323
0	5419	51.897926141428	0.025003773007
0	5425	51.922929914435	0.069403297263
0	5431	51.992333211698	0.045927266485
0	5438	52.038260478183	0.031800436266
0	5443	52.070060914449	0.041809522967
0	5449	52.111870437416	0.082232290758
0	5455	52.194102728174	0.135962601173
0	5460	52.330065329347	0.060865499216
0	5465	52.390930828563	0.146877002148
0	5470	52.537807830711	0.043864933308
0	5475	52.581672764019	0.067872381865
0	5480	52.649545145884	0.093469543287
0	5487	52.743014689171	0.125097934299
0	5495	52.86811262347	0.025608967478
0	5500	52.893721590948	0.022543155296
0	5505	52.916264746244	0.012675667427
0	5510	52.928940413671	0.007569406614
0	5512	52.936509820285	0.052344788278
0	5520	52.988854608563	0.093263995493
0	5525	53.082118604056	0.14593564593
0	5530	53.228054249986	0.015325295284
0	5535	53.24337954527	0.028373559485
0	5540	53.271753104755	0.075823972773
0	5546	53.347577077528	0.008493144127
0	5551	53.356070221655	0.000350258447
0	5553	53.356420480102	0.092225138782
0	5564	53.448645618884	0.011645787637
0	5569	53.460291406521	0.04327807656
0	5574	53.503569483081	0.0511207637
0	5579	53.554690246781	0.079751320062
0	5584	53.634441566843	0.086063644273
0	5589	53.720505211116	0.131795103697
0	5594	53.852300314813	0.044013782853
0	5599	53.896314097666	0.14057115908
0	5604	54.036885256746	0.0057252196
0	5606	54.042610476346	0.006816599359
0	5611	54.049427075705	0.026780200799
0	5619	54.076207276504	0.287167083827
0	5624	54.363374360331	0.025172722696
0	5629	54.388547083027	0.133859682943
0	5635	54.52240676597	0.187475897474
0	5644	54.709882663444	0.040074407548
0	5649	54.749957070992	0.00188486389
0	5651	54.751841934882	0.040525592667
0	5659	54.792367527549	0.022425416867
0	5664	54.814792944416	0.001143807232
0	5666	54.815936751648	0.028240679057
0	5675	54.844177430705	0.072385225479
0	5681	54.916562656184	0.042581999196
0	5686	54.95914465538	0.053588887582
0	5691	55.012733542962	0.034704737125
0	5697	55.047438280087	0.027513035397
0	5702	55.074951315484	0.003349888453
0	5704	55.078301203937	0.068230834372
0	5712	55.146532038309	0.018768879847
0	5717	55.165300918156	0.023120327305
0	5723	55.188421245461	0.003436304294
0	5725	55.191857549755	0.014610761746
0	5733	55.206468311501	0.04701651252
0	5738	55.253484824021	0.108102091671
0	5743	55.361586915692	0.051688783352
0	5748	55.413275699044	0.033722583054
0	5753	55.446998282098	0.065496125248
0	5758	55.512494407346	0.027869076056
0	5764	55.540363483402	0.092053145559
0	5769	55.632416628961	0.120701455692
0	5775	55.753118084653	0.105042883834
0	5780	55.858160968487	0.04645129792
0	5785	55.904612266407	0.108199775818
0	5790	56.012812042225	0.028666126312
0	5795	56.041478168537	0.158295312845
0	5802	56.199773481382	0.052218588735
0	5807	56.251992070117	0.086297438821
0	5812	56.338289508938	0.015275051328
0	5817	56.353564560266	0.024020798509
0	5822	56.377585358775	0.070358248187
0	5827	56.447943606962	0.091221939117
0	5833	56.539165546079	0.003521828418
0	5835	56.542687374497	0.001906578645
0	5837	56.544593953142	0.001886916278
0	5842	56.54648086942	0.021118245962
0	5850	56.567599115382	0.007611737523
0	5858	56.575210852905	0.028702255215
0	5863	56.60391310812	0.168054149442
0	5869	56.771967257562	0.002318642881
0	5871	56.774285900443	0.084781202592
0	5880	56.859067103035	0.001933481373
0	5882	56.861000584408	0.013484297727
0	5890	56.874484882135	0.097935548121
0	5895	56.972420430256	0.043310659161
0	5900	57.015731089417	0.025704264628
0	5905	57.041435354045	0.10690079619
0	5911	57.148336150235	0.037423287463
0	5918	57.185759437698	0.016046833008
0	5924	57.201806270706	0.077234256218
0	5930	57.279040526924	0.041820865847
0	5935	57.320861392771	0.126693767074
0	5942	57.447555159845	0.046680061663
0	5947	57.494235221508	0.041499821932
0	5952	57.53573504344	0.002159449949
0	5954	57.537894493389	0.055692142825
0	5962	57.593586636214	0.084472141705
0	5969	57.678058777919	0.132322919405
0	5974	57.810381697324	0.018128487163
0	5979	57.828510184487	0.036711492932
0	5984	57.865221677419	0.00116645551
0	5986	57.866388132929	0.220568355208
0	5995	58.086956488137	0.004380993334
0	5997	58.091337481471	0.003172673154
0	6002	58.094510154625	0.005655606175
0	6004	58.1001657608	0.113236384719
0	6016	58.213402145519	0.09225168595
0	6023	58.305653831469	0.019189585599
0	6028	58.324843417068	0.022409031167
0	6033	58.347252448235	0.006724271145
0	6035	58.35397671938	0.027586352583
0	6043	58.381563071963	0.125239704737
0	6050	58.5068027767	0.009408222022
0	6055	58.516210998722	0.000582053704
0	6057	58.516793052426	0.035456584319
0	6065	58.552249636745	0.055961138731
0	6071	58.608210775476	0.014029442158
0	6076	58.622240217634	0.024929760621
0	6083	58.647169978255	0.002133803583
0	6085	58.649303781838	0.020651705253
0	6093	58.669955487091	0.013304248409
0	6098	58.6832597355	0.013017906678
0	6103	58.696277642178	0.023391034897
0	6109	58.719668677075	0.066634811068
0	6114	58.786303488143	0.039067145577
0	6119	58.82537063372	0.032345158273
0	6124	58.857715791993	0.061496403709
0	6129	58.919212195702	0.006722920482
0	6131	58.925935116184	0.07542677368
0	6140	59.001361889864	0.042311847012
0	6145	59.043673736876	0.042913577095
0	6151	59.086587313971	0.028108706819
0	6157	59.11469602079	0.042462010697
0	6162	59.157158031487	0.067792098982
0	6169	59.224950130469	0.027579135609
0	6174	59.252529266078	0.007724233624
0	6179	59.260253499702	0.00778217204
0	6184	59.268035671742	0.074992002647
0	6192	59.343027674389	0.129930556238
0	6201	59.472958230627	0.069397798523
0	6206	59.54235602915	0.057267513063
0	6211	59.599623542213	0.054505778913
0	6216	59.654129321126	0.018449664246
0	6221	59.672578985372	0.022910942965
0	6226	59.695489928337	0.163663014828
0	6234	59.859152943165	0.004511906437
0	6236	59.863664849602	0.161762135098
0	6246	60.0254269847	0.023010741883
0	6251	60.048437726583	0.039486727651
0	6257	60.087924454234	0.005022582146
0	6260	60.09294703638	0.006209935886
0	6265	60.099156972266	0.07990359065
0	6273	60.179060562916	0.209727165917
0	6280	60.388787728833	0.000877955542
0	6282	60.389665684375	0.01014242404
0	6287	60.399808108415	0.121325920844
0	6296	60.521134029259	0.181567550244
0	6303	60.702701579503	0.019547347308
0	6308	60.722248926811	0.061551307193
0	6314	60.783800234004	0.043458033581
0	6319	60.827258267585	0.09421806329
0	6324	60.921476330875	0.058453039891
0	6329	60.979929370766	0.003992133223
0	6331	60.983921503989	0.011042298603
0	6336	60.994963802592	0.074483561199
0	6344	61.069447363791	0.030811496659
0	6349	61.10025886045	0.011219763307
0	6354	61.111478623757	0.040825965532
0	6361	61.152304589289	0.07156310438
0	6367	61.223867693669	0.052516211856
0	6372	61.276383905525	0.024881175648
0	6377	61.301265081173	0.088440915966
0	6383	61.389705997139	0.019668605177
0	6388	61.409374602316	0.024477251022
0	6393	61.433851853338	0.027426544711
0	6399	61.461278398049	0.014842924131
0	6404	61.47612132218	0.006699892367
0	6406	61.482821214547	0.034283285125
0	6414	61.517104499672	0.008138432092
0	6416	61.525242931764	0.003792694339
0	6421	61.529035626103	0.065084873512
0	6430	61.594120499615	0.02287504688
0	6435	61.616995546495	0.071288650823
0	6441	61.688284197318	0.0476849104
0	6446	61.735969107718	0.032826278062
0	6451	61.76879538578	0.085819496246
0	6458	61.854614882026	0.087555853199
0	6463	61.942170735225	0.036442936529
0	6468	61.978613671754	0.01390959619
0	6473	61.992523267944	0.081103595588
0	6479	62.073626863532	0.00587961103
0	6481	62.079506474562	0.019865416489
0	6490	62.099371891051	0.049073384265
0	6496	62.148445275316	0.036824673234
0	6501	62.18526994855	0.00958819982
0	6506	62.19485814837	0.017711460756
0	6512	62.212569609126	0.017180056145
0	6517	62.229749665271	0.020376193079
0	6522	62.25012585835	0.006807629229
0	6524	62.256933487579	0.001627987851
0	6529	62.25856147543	0.034834231936
0	6537	62.293395707366	0.008162709573
0	6539	62.301558416939	0.01795084434
0	6547	62.319509261279	0.061717629151
0	6552	62.38122689043	0.038546651843
0	6557	62.419773542273	0.022839610157
0	6562	62.44261315243	0.022351151916
0	6567	62.464964304346	0.061725032845
0	6572	62.526689337191	0.057603755854
0	6578	62.584293093045	0.005869393014
0	6580	62.590162486059	0.010380967421
0	6585	62.60054345348	0.017508989393
0	6593	62.618052442873	0.175998161355
0	6599	62.794050604228	0.184464389322
0	6609	62.97851499355	0.013718803355
0	6614	62.992233796905	0.000258071341
0	6616	62.992491868246	0.013621747489
0	6622	63.006113615735	0.002848328571
0	6624	63.008961944306	0.026301798132
0	6635	63.035263742438	0.026649829646
0	6640	63.061913572084	0.028418795995
0	6645	63.090332368079	0.146976741387
0	6650	63.237309109466	0.004643283271
0	6652	63.241952392737	0.087573822542
0	6661	63.329526215279	0.235011059638
0	6666	63.564537274917	0.030474700147
0	6671	63.595011975064	0.181169381248
0	6678	63.776181356312	0.022472887052
0	6683	63.798654243364	0.151179444512
0	6688	63.949833687876	0.21681289452
0	6695	64.166646582396	0.054204519205
0	6700	64.220851101601	0.040495932174
0	6706	64.261347033775	0.032869785524
0	6711	64.294216819299	0.054521116385
0	6716	64.348737935684	0.092987324712
0	6723	64.441725260396	0.026964693757
0	6729	64.468689954153	0.001423736067
0	6731	64.47011369022	0.006835485493
0	6733	64.476949175713	0.023703952495
0	6744	64.500653128208	0.244368091817
0	6750	64.745021220025	0.017344500782
0	6755	64.762365720807	0.003493545672
0	6757	64.765859266479	0.038056375614
0	6767	64.803915642093	0.005549111023
0	6769	64.809464753116	0.011136601344
0	6774	64.82060135446	0.096528243678
0	6785	64.917129598138	0.04090178003
0	6790	64.958031378168	0.007041906824
0	6792	64.965073284992	0.122056513176
0	6800	65.087129798168	0.025274029882
0	6805	65.11240382805	0.041254937846
0	6811	65.153658765896	0.01791873297
0	6816	65.171577498866	0.110656253804
0	6821	65.28223375267	0.025686570081
0	6826	65.307920322751	0.040779332872
0	6832	65.348699655623	0.067132195948
0	6837	65.415831851571	0.068538351358
0	6843	65.484370202929	0.121050802996
0	6848	65.605421005925	0.085412894683
0	6853	65.690833900608	0.006426232209
0	6855	65.697260132817	0.034218859031
0	6863	65.731478991848	0.156257161058
0	6869	65.887736152906	0.216425416474
0	6874	66.10416156938	0.023497635422
0	6879	66.127659204802	0.046495519472
0	6884	66.174154724274	0.04016701208
0	6889	66.214321736354	0.018794144343
0	6894	66.233115880697	0.225585931282
0	6901	66.458701811979	0.077390288733
0	6907	66.536092100712	0.008679872624
0	6912	66.544771973336	0.019859763936
0	6917	66.564631737272	0.022322222633
0	6922	66.586953959905	0.11634795922
0	6928	66.703301919125	0.329845612689
0	6935	67.033147531814	0.039836485619
0	6940	67.072984017433	0.02309297901
0	6946	67.096076996443	0.000129674035
0	6948	67.096206670478	0.030053462129
0	6956	67.126260132607	0.160064795487
0	6962	67.286324928094	0.020305182726
0	6967	67.30663011082	0.104365564267
0	6973	67.410995675087	0.026356562336
0	6978	67.437352237423	0.023292920305
0	6983	67.460645157728	0.020029821517
0	6988	67.480674979245	0.040339205324
0	6993	67.521014184569	0.003637533483
0	6995	67.524651718052	0.002131077764
0	6997	67.526782795816	0.050946927651
0	7008	67.577729723467	0.037816413392
0	7014	67.615546136859	0.056841268831
0	7020	67.67238740569	0.022410306762
0	7025	67.694797712452	0.000871445887
0	7027	67.695669158339	0.038442235735
0	7035	67.734111394074	0.000171579519
0	7037	67.734282973593	0.048647777062
0	7045	67.782930750655	0.001018998328
0	7047	67.783949748983	0.021459091064
0	7055	67.805408840047	0.007570625821
0	7057	67.812979465868	0.145825981178
0	7066	67.958805447046	0.074600317134
0	7072	68.03340576418	0.053103806168
0	7077	68.086509570348	0.017266257524
0	7082	68.103775827872	0.012246457744
0	7088	68.116022285616	0.105058345064
0	7093	68.22108063068	0.018101552396
0	7098	68.239182183076	0.006797851924
0	7100	68.245980035	0.046058054455
0	7108	68.292038089455	0.002675513156
0	7110	68.294713602611	0.028935697427
0	7118	68.323649300038	0.013313823975
0	7123	68.336963124013	0.034402189374
0	7128	68.371365313387	0.026270415417
0	7133	68.397635728804	0.171916863547
0	7139	68.569552592351	0.107763121858
0	7144	68.677315714209	0.067276341368
0	7150	68.744592055577	0.045982257869
0	7155	68.790574313446	0.018749975072
0	7160	68.809324288518	0.008310254112
0	7165	68.81763454263	0.066027978263
0	7172	68.883662520893	0.028595478892
0	7177	68.912257999785	0.100940437177
0	7182	69.013198436962	0.017332009785
0	7187	69.030530446747	0.126915331595
0	7192	69.157445778342	0.021647252208
0	7197	69.17909303055	0.005652558158
0	7199	69.184745588708	0.232210640257
0	7208	69.416956228965	0.07433437495
0	7214	69.491290603915	0.011506712068
0	7219	69.502797315983	0.029402863472
0	7224	69.532200179455	0.069001282488
0	7229	69.601201461943	0.005233626096
0	7231	69.606435088039	0.110700056064
0	7243	69.717135144103	0.001308857974
0	7245	69.718444002077	0.043945137789
0	7253	69.762389139866	0.027696267558
0	7259	69.790085407424	0.008545933212
0	7265	69.798631340636	0.000811447759
0	7267	69.799442788395	0.055336336869
0	7275	69.854779125264	0.033734023527
0	7280	69.888513148791	0.164172840947
0	7286	70.052685989738	0.069954249204
0	7292	70.122640238942	0.04574128615
0	7297	70.168381525092	0.070630314695
0	7305	70.239011839787	0.033113825587
0	7310	70.272125665374	0.03370673776
0	7315	70.305832403134	0.046382967137
0	7321	70.352215370271	0.101291074123
0	7328	70.453506444394	0.019315195314
0	7333	70.472821639708	0.035242927564
0	7338	70.508064567272	0.038205133712
0	7343	70.546269700984	0.077253153985
0	7348	70.623522854969	0.007306299752
0	7350	70.630829154721	0.087497541843
0	7358	70.718326696564	0.136757302407
0	7363	70.855083998971	0.106980623899
0	7369	70.96206462287	0.146931089587
0	7376	71.108995712457	0.015488640513
0	7382	71.12448435297	0.01551294843
0	7387	71.1399973014	0.004372683786
0	7389	71.144369985186	0.032201618427
0	7397	71.176571603613	0.07028675302
0	7402	71.246858356633	0.023706603236
0	7407	71.270564959869	0.05969433296
0	7413	71.330259292829	0.014836749488
0	7418	71.345096042317	0.040468890828
0	7423	71.385564933145	0.065328714865
0	7429	71.45089364801	0.029474775015
0	7434	71.480368423025	0.004933255861
0	7436	71.485301678886	0.123541582401
0	7444	71.608843261287	0.04153395459
0	7449	71.650377215877	0.053442094451
0	7454	71.703819310328	0.022660481537
0	7460	71.726479791865	0.056117406059
0	7465	71.782597197924	0.015321467069
0	7470	71.797918664993	0.097398876799
0	7475	71.895317541792	0.00344752296
0	7477	71.898765064752	0.084803649492
0	7487	71.983568714244	0.004723916341
0	7489	71.988292630585	0.003483347013
0	7494	71.991775977598	0.01378457521
0	7499	72.005560552808	0.017241946155
0	7507	72.022802498963	0.054985222004
0	7514	72.077787720967	0.048460907696
0	7520	72.126248628663	0.010954529638
0	7525	72.137203158301	0.004923917963
0	7527	72.142127076264	0.080488323952
0	7536	72.222615400216	0.050115326831
0	7542	72.272730727047	0.022455586119
0	7547	72.295186313166	0.158999756936
0	7553	72.454186070102	0.016089183898
0	7558	72.470275254	0.110231387297
0	7563	72.580506641297	0.104480374608
0	7569	72.684987015905	0.001094576032
0	7571	72.686081591937	0.006136230394
0	7573	72.692217822331	0.111002148452
0	7586	72.803219970783	0.014864476545
0	7591	72.818084447328	0.004832869038
0	7593	72.822917316366	0.052863557994
0	7603	72.87578087436	0.028644855495
0	7609	72.904425729855	0.012306674626
0	7614	72.916732404481	0.021285928055
0	7619	72.938018332536	0.00129556881
0	7621	72.939313901346	0.009784209331
0	7626	72.949098110677	0.034926253458
0	7634	72.984024364135	0.046764037797
0	7639	73.030788401932	0.012384459911
0	7644	73.043172861843	0.169931289404
0	7649	73.213104151247	0.066026698384
0	7654	73.279130849631	0.06552689523
0	7662	73.344657744861	0.078699691295
0	7667	73.423357436156	0.001284458671
0	7669	73.424641894827	0.036029971039
0	7677	73.460671865866	0.054785698218
0	7682	73.515457564084	0.057263923854
0	7687	73.572721487938	0.049933259784
0	7693	73.622654747722	0.044196114211
0	7698	73.666850861933	0.002222218621
0	7700	73.669073080554	0.031955217085
0	7708	73.701028297639	0.046412572241
0	7714	73.74744086988	0.006870743964
0	7716	73.754311613844	0.052182120777
0	7725	73.806493734621	0.040935944779
0	7730	73.8474296794	0.018667497869
0	7735	73.866097177269	0.007478736141
0	7737	73.87357591341	0.164519541074
0	7746	74.038095454484	0.083289257907
0	7751	74.121384712391	0.037752944858
0	7757	74.159137657249	0.06826498884
0	7762	74.227402646089	0.012370882397
0	7767	74.239773528486	0.034780489916
0	7772	74.274554018402	0.022488223459
0	7777	74.297042241861	0.015351662063
0	7782	74.312393903924	0.006322250223
0	7784	74.318716154147	0.079246703286
0	7793	74.397962857433	0.024331708771
0	7798	74.422294566204	0.033332058004
0	7803	74.455626624208	0.111856550303
0	7811	74.567483174511	0.030598821096
0	7816	74.598081995607	0.076836577902
0	7822	74.674918573509	0.04745888451
0	7827	74.722377458019	0.048419182965
0	7832	74.770796640984	0.03061081704
0	7837	74.801407458024	0.13289165438
0	7843	74.934299112404	0.018420239698
0	7848	74.952719352102	0.026488486829
0	7853	74.979207838931	0.005713700535
0	7855	74.984921539466	0.02455848491
0	7863	75.009480024376	0.061156553529
0	7868	75.070636577905	0.075124932425
0	7873	75.14576151033	0.038666392814
0	7878	75.184427903144	0.004244231235
0	7880	75.188672134379	0.014349117229
0	7888	75.203021251608	0.026960337534
0	7893	75.229981589142	0.055536624828
0	7899	75.28551821397	0.102904380291
0	7907	75.388422594261	0.045477256214
0	7913	75.433899850475	0.091490274298
0	7919	75.525390124773	0.175739016586
0	7926	75.701129141359	0.073376187348
0	7932	75.774505328707	0.025392629431
0	7938	75.799897958138	0.033808205491
0	7943	75.833706163629	0.009006391289
0	7948	75.842712554918	0.021962713636
0	7953	75.864675268554	0.003682551995
0	7955	75.868357820549	0.029833401723
0	7963	75.898191222272	0.016953848269
0	7968	75.915145070541	0.024229660091
0	7973	75.939374730632	0.025535848023
0	7978	75.964910578655	0.07991162525
0	7983	76.044822203905	0.083629637094
0	7988	76.128451840999	0.01291366606
0	7993	76.141365507059	0.026396319086
0	7998	76.167761826145	0.071625921044
0	8003	76.239387747189	0.013694335351
0	8008	76.25308208254	0.001513143531
0	8010	76.254595226071	0.027358160753
0	8018	76.281953386824	0.18477301707
0	8024	76.466726403894	0.037012863297
0	8030	76.503739267191	0.089985478406
0	8035	76.593724745597	0.016448496383
0	8041	76.61017324198	0.002280733507
0	8043	76.612453975487	0.034449402213
0	8051	76.6469033777	0.002141297917
0	8053	76.649044675617	0.14116577375
0	8063	76.790210449367	0.009239038491
0	8068	76.799449487858	0.028942776867
0	8073	76.828392264725	0.046720960293
0	8078	76.875113225018	0.021891389574
0	8083	76.897004614592	0.052116908554
0	8089	76.949121523146	0.114014325708
0	8095	77.063135848854	0.018254737246
0	8100	77.0813905861	0.013636699661
0	8105	77.095027285761	0.02931406671
0	8110	77.124341352471	0.020406821116
0	8115	77.144748173587	0.010096596186
0	8120	77.154844769773	0.10108932323
0	8126	77.255934093003	0.041994999595
0	8131	77.297929092598	0.064365996763
0	8137	77.362295089361	0.030300038008
0	8142	77.392595127369	0.035552442695
0	8147	77.428147570064	0.001033447754
0	8149	77.429181017818	0.074624916259
0	8158	77.503805934077	0.018839941534
0	8163	77.522645875611	0.026732025522
0	8168	77.549377901133	0.01568449248
0	8173	77.565062393613	0.031783176084
0	8178	77.596845569697	0.001788595018
0	8180	77.598634164715	0.003571974919
0	8182	77.602206139634	0.015483518565
0	8190	77.617689658199	0.050148682432
0	8198	77.667838340631	0.02099543064
0	8203	77.688833771271	0.043065665119
0	8208	77.73189943639	0.065628833649
0	8213	77.797528270039	0.014590380351
0	8218	77.81211865039	0.049831629074
0	8223	77.861950279464	0.033948742292
0	8228	77.895899021756	0.010991995743
0	8233	77.906891017499	0.086296846362
0	8238	77.993187863861	0.052426578343
0	8243	78.045614442204	0.007021090808
0	8245	78.052635533012	0.018775324307
0	8253	78.071410857319	0.073328670048
0	8259	78.144739527367	0.065656766302
0	8264	78.210396293669	0.004397978773
0	8266	78.214794272442	0.012895527931
0	8274	78.227689800373	0.018767587743
0	8279	78.246457388116	0.014385099573
0	8284	78.260842487689	0.044837126042
0	8289	78.305679613731	0.020367242142
0	8294	78.326046855873	0.056990085206
0	8299	78.383036941079	0.018928823275
0	8304	78.401965764354	0.004769359214
0	8306	78.406735123568	0.025319904073
0	8314	78.432055027641	0.132770200073
0	8321	78.564825227714	0.074003725781
0	8327	78.638828953495	0.120699056625
0	8333	78.75952801012	0.002137698494
0	8335	78.761665708614	0.001945737304
0	8337	78.763611445918	0.084318023193
0	8350	78.847929469111	0.064316847231
0	8356	78.912246316342	0.009439440553
0	8361	78.921685756895	0.202099129951
0	8367	79.123784886846	0.001262238406
0	8369	79.125047125252	9.4326983e-05
0	8371	79.125141452235	0.016343652355
0	8379	79.14148510459	0.029459103708
0	8388	79.170944208298	0.036440115114
0	8394	79.207384323412	0.049293400391
0	8399	79.256677723803	0.006412524833
0	8401	79.263090248636	0.115951861339
0	8411	79.379042109975	0.031664515636
0	8418	79.410706625611	0.036319302988
0	8423	79.447025928599	0.168258435584
0	8429	79.615284364183	0.063683471345
0	8435	79.678967835528	0.114388052165
0	8442	79.793355887693	0.031365737336
0	8447	79.824721625029	0.037861308453
0	8453	79.862582933482	0.002815817841
0	8455	79.865398751323	0.060737825439
0	8463	79.926136576762	0.083262926732
0	8470	80.009399503494	0.069427916575
0	8475	80.078827420069	0.100221517812
0	8480	80.179048937881	0.006896579587
0	8482	80.185945517468	0.190386192637
0	8491	80.376331710105	0.035534262406
0	8496	80.411865972511	0.118054492211
0	8502	80.529920464722	0.006278907784
0	8504	80.536199372506	0.051025684417
0	8512	80.587225056923	0.026947012016
0	8518	80.614172068939	0.027831904674
0	8524	80.642003973613	0.20399162046
0	8530	80.845995594073	0.005122505808
0	8532	80.851118099881	0.065862296902
0	8541	80.916980396783	0.095878306047
0	8547	81.01285870283	0.003163464205
0	8549	81.016022167035	0.03450834257
0	8557	81.050530509605	0.063986429114
0	8564	81.114516938719	0.116403305576
0	8572	81.230920244295	0.043820240562
0	8577	81.274740484857	0.038364983457
0	8582	81.313105468314	0.014426204985
0	8587	81.327531673299	0.038949899443
0	8592	81.366481572742	0.128696981533
0	8597	81.495178554275	0.009013864457
0	8602	81.504192418732	0.082461137567
0	8608	81.586653556299	0.056599769555
0	8614	81.643253325854	0.022776896154
0	8619	81.666030222008	0.055015908304
0	8625	81.721046130312	0.188649870552
0	8631	81.909696000864	0.048411238179
0	8636	81.958107239043	0.082034547673
0	8643	82.040141786716	0.057950672638
0	8648	82.098092459354	0.14592495344
0	8653	82.244017412794	0.010726421294
0	8658	82.254743834088	0.010203319055
0	8663	82.264947153143	0.029649421694
0	8668	82.294596574837	0.056154030505
0	8674	82.350750605342	0.046457453359
0	8680	82.397208058701	0.026686405475
0	8686	82.423894464176	0.041608240701
0	8692	82.465502704877	0.008240163251
0	8694	82.473742868128	0.035297740389
0	8702	82.509040608517	0.08301874788
0	8707	82.592059356397	0.041956111549
0	8714	82.634015467946	0.04268469283
0	8720	82.676700160776	0.025036208602
0	8726	82.701736369378	0.084091816525
0	8733	82.785828185903	0.017797664389
0	8739	82.803625850292	0.118378353956
0	8744	82.922004204248	0.023582036525
0	8749	82.945586240773	0.112630086941
0	8755	83.058216327714	0.120170163771
0	8760	83.178386491485	0.031329540289
0	8765	83.209716031774	0.038250568084
0	8771	83.247966599858	0.017655495371
0	8776	83.265622095229	0.017693086708
0	8781	83.283315181937	0.029027268108
0	8786	83.312342450045	0.094997200782
0	8792	83.407339650827	0.020297471884
0	8797	83.427637122711	0.030272961922
0	8802	83.457910084633	0.122425678001
0	8807	83.580335762634	0.029553781736
0	8812	83.60988954437	0.000528793825
0	8814	83.610418338195	0.009462959674
0	8819	83.619881297869	0.052475256051
0	8827	83.67235655392	0.00978290951
0	8832	83.68213946343	0.02159626472
0	8838	83.70373572815	0.100550571353
0	8845	83.804286299503	0.034616413298
0	8851	83.838902712801	0.011844469762
0	8856	83.850747182563	0.016468989909
0	8862	83.867216172472	0.022655324038
0	8868	83.88987149651	0.014053166562
0	8874	83.903924663072	0.067184891604
0	8879	83.971109554676	0.086680886029
0	8886	84.057790440705	0.057176239997
0	8891	84.114966680702	0.01346002848
0	8896	84.128426709182	0.01572040492
0	8901	84.144147114102	0.019222467673
0	8906	84.163369581775	0.094994030645
0	8911	84.25836361242	0.072880522042
0	8917	84.331244134462	0.109556880513
0	8924	84.440801014975	0.001368743712
0	8926	84.442169758687	0.047078230715
0	8934	84.489247989402	0.007095404695
0	8936	84.496343394097	0.007764863428
0	8942	84.504108257525	0.131639402754
0	8951	84.635747660279	0.115900006459
0	8957	84.751647666738	0.08094402306
0	8962	84.832591689798	0.00413107009
0	8964	84.836722759888	0.001109582928
0	8966	84.837832342816	0.010600852951
0	8974	84.848433195767	0.031768845387
0	8982	84.880202041154	0.056275114958
0	8987	84.936477156112	0.055540283593
0	8992	84.992017439705	0.124316058742
0	8997	85.116333498447	0.045452125058
0	9002	85.161785623505	0.059196143862
0	9007	85.220981767367	0.115797179202
0	9014	85.336778946569	0.045617206929
0	9020	85.382396153498	0.167204755449
0	9025	85.549600908947	0.034839447287
0	9030	85.584440356234	0.014418566345
0	9035	85.598858922579	0.066708187807
0	9041	85.665567110386	0.063211994075
0	9047	85.728779104461	0.019465482448
0	9052	85.748244586909	0.029961749121
0	9057	85.77820633603	0.037575594686
0	9062	85.815781930716	0.021372764652
0	9068	85.837154695368	0.169805338173
0	9077	86.006960033541	0.199680026515
0	9084	86.206640060056	0.071825443688
0	9091	86.278465503744	0.008805564974
0	9096	86.287271068718	0.01170435264
0	9101	86.298975421358	0.008090695684
0	9106	86.307066117042	0.002193716148
0	9108	86.30925983319	0.001650050776
0	9110	86.310909883966	0.025712567564
0	9122	86.33662245153	0.096291355474
0	9127	86.432913807004	0.018752961268
0	9132	86.451666768272	0.017661483289
0	9138	86.469328251561	0.046414670148
0	9144	86.515742921709	0.031363771199
0	9149	86.547106692908	0.123330313234
0	9155	86.670437006142	0.057707205382
0	9160	86.728144211524	0.022538540819
0	9165	86.750682752343	0.025788841126
0	9170	86.776471593469	0.005376920198
0	9173	86.781848513667	0.027028283207
0	9181	86.808876796874	0.017445242373
0	9186	86.826322039247	0.013658989638
0	9191	86.839981028885	0.164221809862
0	9199	87.004202838747	0.013398280852
0	9204	87.017601119599	0.235985613742
0	9213	87.253586733341	0.036528986049
0	9218	87.29011571939	0.01968493006
0	9223	87.30980064945	0.023460185908
0	9228	87.333260835358	0.057624583506
0	9233	87.390885418864	0.020198078373
0	9238	87.411083497237	0.00860193812
0	9243	87.419685435357	0.029692866027
0	9249	87.449378301384	0.031492170621
0	9254	87.480870472005	0.016043027406
0	9259	87.496913499411	0.137120868971
0	9266	87.634034368382	0.08146924832
0	9271	87.715503616702	0.051724727942
0	9276	87.767228344644	0.077827903742
0	9282	87.845056248386	0.023643737096
0	9287	87.868699985482	0.03163698562
0	9292	87.900336971102	0.039319968494
0	9298	87.939656939596	0.032967390409
0	9303	87.972624330005	0.040961563114
0	9308	88.013585893119	0.089719661068
0	9315	88.103305554187	0.018235344253
0	9320	88.12154089844	0.050608555723
0	9326	88.172149454163	0.045526893332
0	9331	88.217676347495	0.030674170242
0	9338	88.248350517737	0.024180449175
0	9343	88.272530966912	0.104763503364
0	9350	88.377294470276	0.060235812086
0	9356	88.437530282362	0.012853841061
0	9361	88.450384123423	0.041601736169
0	9367	88.491985859592	0.058577707159
0	9373	88.550563566751	0.011812601556
0	9378	88.562376168307	0.029467598341
0	9383	88.591843766648	0.011636232129
0	9388	88.603479998777	0.048264982905
0	9393	88.651744981682	0.011630207461
0	9398	88.663375189143	0.009038391117
0	9403	88.67241358026	0.073374455357
0	9409	88.745788035617	0.031724151214
0	9414	88.777512186831	0.016929599735
0	9420	88.794441786566	0.029465447076
0	9425	88.823907233642	0.010257168282
0	9430	88.834164401924	0.055568507642
0	9435	88.889732909566	0.029797156901
0	9440	88.919530066467	0.076952512476
0	9445	88.996482578943	0.040752610289
0	9450	89.037235189232	0.02916972556
0	9455	89.066404914792	0.141538981083
0	9461	89.207943895875	0.039035075044
0	9467	89.246978970919	0.002235245906
0	9469	89.249214216825	0.015323814709
0	9477	89.264538031534	0.002769808905
0	9479	89.267307840439	0.025040181072
0	9487	89.292348021511	0.067773642853
0	9492	89.360121664364	0.143592396487
0	9498	89.503714060851	0.006763344752
0	9500	89.510477405603	0.042436148428
0	9508	89.552913554031	0.091442138346
0	9513	89.644355692377	0.064161293823
0	9518	89.7085169862	0.015869954931
0	9523	89.724386941131	0.1076163701
0	9528	89.832003311231	0.009808494365
0	9533	89.841811805596	0.016637745253
0	9538	89.858449550849	0.203789120903
0	9543	90.062238671752	0.040158457234
0	9548	90.102397128986	0.094795269081
0	9554	90.197192398067	0.063152754511
0	9559	90.260345152578	0.029269693551
0	9564	90.289614846129	0.054915013931
0	9570	90.34452986006	0.011947109348
0	9575	90.356476969408	0.014704929255
0	9580	90.371181898663	0.004989784177
0	9582	90.37617168284	0.069820654601
0	9591	90.445992337441	0.007043800923
0	9593	90.453036138364	0.056841668693
0	9602	90.509877807057	0.177191276257
0	9610	90.687069083314	0.041632545939
0	9616	90.728701629253	0.177730945323
0	9621	90.906432574576	0.004010072232
0	9623	90.910442646808	0.008811993115
0	9628	90.919254639923	0.012588679779
0	9636	90.931843319702	0.085566032741
0	9643	91.017409352443	0.026274300044
0	9648	91.043683652487	0.081375187579
0	9655	91.125058840066	0.043823728555
0	9661	91.168882568621	0.017858892097
0	9666	91.186741460718	0.01405243233
0	9671	91.200793893048	0.09149063542
0	9677	91.292284528468	0.00249842634
0	9679	91.294782954808	0.032113079075
0	9687	91.326896033883	0.001120030731
0	9689	91.328016064614	0.146574811266
0	9698	91.47459087588	0.064950512802
0	9704	91.539541388682	0.038438200411
0	9709	91.577979589093	0.037071023793
0	9714	91.615050612886	0.019027264481
0	9719	91.634077877367	0.021493305642
0	9724	91.655571183009	0.012450102431
0	9730	91.66802128544	0.079453031533
0	9736	91.747474316973	0.006350108048
0	9738	91.753824425021	0.000375561066
0	9740	91.754199986087	0.035013420188
0	9751	91.789213406275	0.113513498292
0	9757	91.902726904567	0.006802022553
0	9759	91.90952892712	0.090463031838
0	9769	91.999991958958	0.014601588857
0	9774	92.014593547815	0.032585103247
0	9779	92.047178651062	0.046328531703
0	9785	92.093507182765	0.003953819685
0	9787	92.09746100245	0.040859792328
0	9795	92.138320794778	0.012192502806
0	9800	92.150513297584	0.107083947756
0	9807	92.25759724534	0.049934987663
0	9812	92.307532233003	0.000354983939
0	9814	92.307887216942	0.064229813334
0	9822	92.372117030276	0.017877400659
0	9827	92.389994430935	0.153924786204
0	9833	92.543919217139	0.000865247753
0	9835	92.544784464892	0.041400843627
0	9843	92.586185308519	0.038881383878
0	9849	92.625066692397	0.002093058317
0	9851	92.627159750714	0.001683926843
0	9853	92.628843677557	0.05841193291
0	9864	92.687255610467	0.072289566951
0	9869	92.759545177418	0.058646274939
0	9874	92.818191452357	0.05144559158
0	9880	92.869637043937	3.6272009e-05
0	9882	92.869673315946	0.029554173221
0	9891	92.899227489167	0.039039444146
0	9896	92.938266933313	0.006263695458
0	9898	92.944530628771	0.067198359358
0	9908	93.011728988129	0.033333443565
0	9913	93.045062431694	0.124874851202
0	9918	93.169937282896	0.058803742614
0	9923	93.22874102551	0.040585731803
0	9928	93.269326757313	0.075968508044
0	9933	93.345295265357	0.0223565495
0	9938	93.367651814857	0.021276225525
0	9944	93.388928040382	0.044161643612
0	9950	93.433089683994	0.000203624988
0	9952	93.433293308982	0.047754296251
0	9960	93.481047605233	0.003931127806
0	9962	93.484978733039	8.9458216e-05
0	9964	93.485068191255	0.068581198463
0	9975	93.553649389718	0.027377014437
0	9980	93.581026404155	0.048507646908
0	9986	93.629534051063	0.064791902351
0	9992	93.694325953414	0.015620740413
0	9997	93.709946693827	0.084567748832
0	10002	93.794514442659	0.049843745332
0	10007	93.844358187991	0.016092531082
0	10012	93.860450719073	0.031637609461
0	10017	93.892088328534	0.083686297207
0	10022	93.975774625741	0.026753463433
0	10027	94.002528089174	0.084361719515
0	10034	94.086889808689	0.033166323872
0	10039	94.120056132561	0.038496481816
0	10044	94.158552614377	0.009366119216
0	10049	94.167918733593	0.1032171235
0	10054	94.271135857093	0.019839343294
0	10059	94.290975200387	0.040000674927
0	10064	94.330975875314	0.020250172375
0	10069	94.351226047689	0.099462935268
0	10074	94.450688982957	0.001821142223
0	10076	94.45251012518	0.122822150696
0	10084	94.575332275876	0.032022325976
0	10089	94.607354601852	0.027946351489
0	10094	94.635300953341	0.038801796152
0	10099	94.674102749493	0.017165679156
0	10104	94.691268428649	0.034866686757
0	10111	94.726135115406	0.066587515173
0	10117	94.792722630579	0.030222821775
0	10122	94.822945452354	0.032299248184
0	10127	94.855244700538	0.084533849905
0	10132	94.939778550443	0.039536845078
0	10138	94.979315395521	0.019749432106
0	10143	94.999064827627	0.172836941973
0	10150	95.1719017696	0.107793411651
0	10155	95.279695181251	0.059587810805
0	10162	95.339282992056	0.11942708362
0	10167	95.458710075676	0.012684602947
0	10172	95.471394678623	0.025433743991
0	10177	95.496828422614	0.039876416398
0	10184	95.536704839012	0.029244400336
0	10189	95.565949239348	0.020186355756
0	10194	95.586135595104	0.100816593693
0	10200	95.686952188797	0.054264031394
0	10205	95.741216220191	0.007977507198
0	10210	95.749193727389	0.022087056027
0	10215	95.771280783416	0.009260883274
0	10220	95.78054166669	0.069845868928
0	10225	95.850387535618	0.007036129198
0	10227	95.857423664816	0.026376860923
0	10235	95.883800525739	0.012311100409
0	10241	95.896111626148	0.212423574517
0	10247	96.108535200665	0.03326060612
0	10253	96.141795806785	0.072689622838
0	10258	96.214485429623	0.061894104414
0	10263	96.276379534037	0.028266173962
0	10268	96.304645707999	0.027024362085
0	10273	96.331670070084	0.081792073721
0	10279	96.413462143805	0.067028936275
0	10289	96.48049108008	0.089398057272
0	10294	96.569889137352	0.039681193309
0	10300	96.609570330661	0.034040631216
0	10306	96.643610961877	0.080626405026
0	10313	96.724237366903	0.068298117224
0	10318	96.792535484127	0.035919706367
0	10323	96.828455190494	0.007562221003
0	10328	96.836017411497	0.042084239913
0	10334	96.87810165141	0.038939425014
0	10339	96.917041076424	0.06753994345
0	10345	96.984581019874	0.017779918666
0	10350	97.00236093854	0.029541931209
0	10355	97.031902869749	0.060268042315
0	10360	97.092170912064	0.167233175852
0	10368	97.259404087916	0.059418963683
0	10373	97.318823051599	0.062686545922
0	10378	97.381509597521	0.031224365632
0	10384	97.412733963153	0.010635673626
0	10389	97.423369636779	0.002121780238
0	10391	97.425491417017	0.355025525193
0	10406	97.78051694221	0.090537354789
0	10411	97.871054296999	0.024893641761
0	10416	97.89594793876	0.022113622878
0	10421	97.918061561638	0.051544891413
0	10426	97.969606453051	0.016520286761
0	10431	97.986126739812	0.078071894651
0	10438	98.064198634463	0.089714344415
0	10444	98.153912978878	0.022377121951
0	10451	98.176290100829	0.012372754003
0	10456	98.188662854832	0.095979297534
0	10463	98.284642152366	0.099889784782
0	10469	98.384531937148	0.047177519595
0	10474	98.431709456743	0.010361161879
0	10479	98.442070618622	0.118245416617
0	10485	98.560316035239	0.090499182127
0	10490	98.650815217366	0.006836867029
0	10492	98.657652084395	0.044448514231
0	10500	98.702100598626	0.077153311015
0	10505	98.779253909641	0.031363811658
0	10510	98.810617721299	0.077382239419
0	10515	98.887999960718	0.010748433593
0	10520	98.898748394311	0.082666660192
0	10525	98.981415054503	0.003582885834
0	10527	98.984997940337	0.010303796134
0	10532	98.995301736471	0.084828698642
0	10540	99.080130435113	0.023250224576
0	10545	99.103380659689	0.024281683569
0	10550	99.127662343258	0.060481395849
0	10555	99.188143739107	0.017601267392
0	10560	99.205745006499	0.003079205261
0	10562	99.20882421176	0.018951124566
0	10570	99.227775336326	0.196869459942
0	10578	99.424644796268	0.004859102799
0	10580	99.429503899067	0.074989063683
0	10588	99.50449296275	0.037395323209
0	10593	99.541888285959	0.048524543949
0	10598	99.590412829908	0.001210172434
0	10600	99.591623002342	0.070586149291
0	10609	99.662209151633	0.010162613164
0	10614	99.672371764797	4.0789994e-05
0	10616	99.672412554791	0.066527273053
0	10624	99.738939827844	0.007851842163
0	10626	99.746791670007	0.016429255867
0	10634	99.763220925874	0.002673108631
0	10636	99.765894034505	0.032386478869
0	10644	99.798280513374	0.089861594314
0	10649	99.888142107688	0.001175368967
0	10651	99.889317476655	0.159067143218
0	10659	100.048384619873	0.232817465475
0	10664	100.281202085348	0.012971713281
0	10669	100.294173798629	0.001372201116
0	10671	100.295545999745	0.042791540135
0	10679	100.33833753988	0.049095450164
0	10684	100.387432990044	0.086593206446
0	10691	100.47402619649	0.011175965956
0	10696	100.485202162446	0.022907555671
0	10701	100.508109718117	0.034838240741
0	10706	100.542947958858	0.004517790046
0	10708	100.547465748904	0.040851954339
0	10716	100.588317703243	0.02540528689
0	10721	100.613722990133	0.001095509675
0	10723	100.614818499808	0.238557952327
0	10733	100.853376452135	0.029210387257
0	10738	100.882586839392	0.036842214912
0	10743	100.919429054304	0.131941149697
0	10749	101.051370204001	0.073251623962
0	10754	101.124621827963	0.026389807299
0	10759	101.151011635262	0.106882568322
0	10764	101.257894203584	0.024307500342
0	10769	101.282201703926	0.00813851048
0	10774	101.290340214406	0.02691862602
0	10779	101.317258840426	0.024760144512
0	10784	101.342018984938	0.013647748187
0	10789	101.355666733125	0.191388122802
0	10794	101.547054855927	0.02352946482
0	10799	101.570584320747	0.002311792403
0	10802	101.57289611315	0.004621834358
0	10804	101.577517947508	0.072532234865
0	10815	101.650050182373	0.356092232888
0	10823	102.006142415261	0.036687419364
0	10828	102.042829834625	0.00642857158
0	10830	102.049258406205	0.004471631672
0	10835	102.053730037877	0.005484847332
0	10840	102.059214885209	0.032526598042
0	10848	102.091741483251	0.0034278787
0	10850	102.095169361951	0.000343909485
0	10852	102.095513271436	0.01363115006
0	10860	102.109144421496	0.020504883423
0	10868	102.129649304919	0.058199500353
0	10873	102.187848805272	0.045139600689
0	10878	102.232988405961	0.016731447367
0	10883	102.249719853328	0.038082253089
0	10889	102.287802106417	0.036288964411
0	10895	102.324091070828	0.004052719875
0	10897	102.328143790703	0.033114369903
0	10905	102.361258160606	0.090925576208
0	10910	102.452183736814	0.00979398376
0	10915	102.461977720574	0.008409264721
0	10920	102.470386985295	0.006852599199
0	10922	102.477239584494	0.007899786193
0	10927	102.485139370687	0.104642958632
0	10936	102.589782329319	0.038037831852
0	10942	102.627820161171	0.028616255978
0	10947	102.656436417149	0.011871546699
0	10952	102.668307963848	0.04597262454
0	10958	102.714280588388	0.00487613448
0	10960	102.719156722868	0.139711905788
0	10968	102.858868628656	0.046670178977
0	10974	102.905538807633	0.025057366905
0	10979	102.930596174538	0.066727471736
0	10984	102.997323646274	0.183880478727
0	10990	103.181204125001	0.010744475754
0	10995	103.191948600755	0.052355297036
0	11001	103.244303897791	0.098074402232
0	11007	103.342378300023	0.020184596901
0	11012	103.362562896924	0.130053332921
0	11019	103.492616229845	0.209925388197
0	11025	103.702541618042	0.026783406445
0	11030	103.729325024487	0.008193667234
0	11035	103.737518691721	0.007772451554
0	11037	103.745291143275	0.053272831215
0	11046	103.79856397449	0.042380939453
0	11051	103.840944913943	0.189186822351
0	11058	104.030131736294	0.002192623547
0	11060	104.032324359841	0.08373418551
0	11068	104.116058545351	0.016323679876
0	11073	104.132382225227	0.001352229856
0	11075	104.133734455083	0.055807424098
0	11083	104.189541879181	0.012659535648
0	11088	104.202201414829	0.038323019143
0	11094	104.240524433972	0.041620201806
0	11099	104.282144635778	0.036243031768
0	11104	104.318387667546	0.029564177651
0	11109	104.347951845197	0.062481579795
0	11114	104.410433424992	0.036351607334
0	11119	104.446785032326	0.024986470956
0	11124	104.471771503282	0.019353451065
0	11132	104.491124954347	0.029999291827
0	11137	104.521124246174	0.066400313548
0	11142	104.587524559722	0.008273304615
0	11147	104.595797864337	0.007363025225
0	11149	104.603160889562	0.074579161149
0	11157	104.677740050711	0.04831981437
0	11162	104.726059865081	0.01112724222
0	11167	104.737187107301	0.034414027302
0	11172	104.771601134603	0.106711335692
0	11178	104.878312470295	0.009908528347
0	11183	104.888220998642	0.01658156021
0	11188	104.904802558852	0.027960611074
0	11194	104.932763169926	0.032665053784
0	11199	104.96542822371	0.058770409037
0	11205	105.024198632747	0.133580217997
0	11211	105.157778850744	0.008756969809
0	11216	105.166535820553	0.016635111101
0	11221	105.183170931654	0.128355739892
0	11226	105.311526671546	0.01959271102
0	11231	105.331119382566	0.024298081801
0	11236	105.355417464367	0.111241310473
0	11241	105.46665877484	0.020372583487
0	11246	105.487031358327	0.134791721852
0	11252	105.621823080179	0.22822392404
0	11257	105.850047004219	0.006555074287
0	11259	105.856602078506	0.009734362652
0	11267	105.866336441158	0.026033962909
0	11272	105.892370404067	0.066142792386
0	11277	105.958513196453	0.008483775714
0	11282	105.966996972167	0.041666810578
0	11288	106.008663782745	0.036661785278
0	11294	106.045325568023	0.025834154829
0	11299	106.071159722852	0.012555701959
0	11304	106.083715424811	0.066869190682
0	11310	106.150584615493	0.02574355431
0	11316	106.176328169803	0.01713166314
0	11321	106.193459832943	0.024376005829
0	11327	106.217835838772	0.031910967695
0	11332	106.249746806467	0.024443939642
0	11337	106.274190746109	0.03296269531
0	11343	106.307153441419	0.030483801989
0	11350	106.337637243408	0.012944656823
0	11355	106.350581900231	0.010794450989
0	11360	106.36137635122	0.035005583805
0	11365	106.396381935025	0.033494553818
0	11370	106.429876488843	0.024094964464
0	11375	106.453971453307	0.027911988506
0	11380	106.481883441813	0.108285922946
0	11386	106.590169364759	0.029282555658
0	11392	106.619451920417	0.001927708087
0	11394	106.621379628504	0.267689589801
0	11403	106.889069218305	0.018801023631
0	11408	106.907870241936	0.013372187532
0	11413	106.921242429468	0.041837165924
0	11418	106.963079595392	0.054782481464
0	11423	107.017862076856	0.156771229168
0	11428	107.174633306024	0.053986882971
0	11433	107.228620188995	0.025206120873
0	11438	107.253826309868	0.033573635013
0	11443	107.287399944881	0.042889177458
0	11449	107.330289122339	0.028359182604
0	11455	107.358648304943	0.005530260713
0	11457	107.364178565656	0.008986828527
0	11462	107.373165394183	0.269982356033
0	11472	107.643147750216	0.063514668383
0	11478	107.706662418599	0.05982950537
0	11483	107.766491923969	0.074429583292
0	11488	107.840921507261	0.059266346514
0	11493	107.900187853775	0.017199370447
0	11498	107.917387224222	0.035791356833
0	11504	107.953178581055	0.00597627349
0	11506	107.959154854545	0.005043706459
0	11511	107.964198561004	0.132856905586
0	11519	108.09705546659	0.03158439408
0	11524	108.12863986067	0.01524288449
0	11529	108.14388274516	0.057435836372
0	11535	108.201318581532	0.011789855764
0	11540	108.213108437296	0.088953887214
0	11545	108.30206232451	0.044821332837
0	11550	108.346883657347	0.041576684589
0	11556	108.388460341936	0.001670872057
0	11558	108.390131213993	0.004625135839
0	11560	108.394756349832	0.09946994433
0	11572	108.494226294162	0.032224120464
0	11577	108.526450414626	0.015914033397
0	11583	108.542364448023	0.022293595922
0	11588	108.564658043945	0.015877636494
0	11593	108.580535680439	0.069444766068
0	11598	108.649980446507	0.020022568263
0	11603	108.67000301477	0.00722853998
0	11605	108.67723155475	0.008635672525
0	11610	108.685867227275	0.057236281883
0	11619	108.743103509158	0.002482751072
0	11621	108.74558626023	0.019032697655
0	11629	108.764618957885	0.011576243151
0	11634	108.776195201036	0.024604848874
0	11639	108.80080004991	0.046654058088
0	11644	108.847454107998	0.026840868682
0	11649	108.87429497668	0.132350245327
0	11654	109.006645222007	0.03312625146
0	11659	109.039771473467	0.013232907808
0	11664	109.053004381275	0.005615159436
0	11666	109.058619540711	0.023347957552
0	11675	109.081967498263	0.022375952105
0	11680	109.104343450368	0.021496242003
0	11685	109.125839692371	0.040603377752
0	11690	109.166443070123	0.095834656751
0	11696	109.262277726874	0.0077509075
0	11698	109.270028634374	0.027506778903
0	11706	109.297535413277	0.022970767406
0	11711	109.320506180683	0.173084816074
0	11717	109.493590996757	0.005380666013
0	11719	109.49897166277	0.005839193098
0	11724	109.504810855868	0.03268547419
0	11733	109.537496330058	0.039689527245
0	11740	109.577185857303	0.043831175927
0	11745	109.62101703323	0.093316344086
0	11750	109.714333377316	0.014521091825
0	11756	109.728854469141	0.01226215001
0	11761	109.741116619151	0.044238956948
0	11768	109.785355576099	0.040265485168
0	11773	109.825621061267	0.021278781081
0	11779	109.846899842348	0.004672211289
0	11781	109.851572053637	0.104675017055
0	11789	109.956247070692	0.011333405267
0	11794	109.967580475959	0.012683189955
0	11799	109.980263665914	0.046592350998
0	11805	110.026856016912	0.005543050072
0	11807	110.032399066984	0.032239108616
0	11815	110.0646381756	0.003734929984
0	11817	110.068373105584	0.058563305303
0	11826	110.126936410887	0.086835756018
0	11831	110.213772166905	0.077756274001
0	11836	110.291528440906	0.026922057463
0	11841	110.318450498369	0.014791411175
0	11846	110.333241909544	0.008173474131
0	11851	110.341415383675	0.221624540026
0	11858	110.563039923701	0.00430962281
0	11860	110.567349546511	0.011287695847
0	11868	110.578637242358	0.183022048595
0	11874	110.761659290953	0.105366217544
0	11879	110.867025508497	0.130454084378
[...]
19	23265	216.774799983285	1.6386171440566
19	23453	218.413417127342	0.36515476364597
19	23483	218.778571890988	0.7152068118145
19	23576	219.493778702802	1.1419117179353
19	23691	220.635690420737	1.4275988000916
19	23844	222.063289220829	3.1401762095543
19	24200	225.203465430383	1.2401481941593
19	24373	226.443613624542	1.9440588350835
19	24605	228.387672459625	1.1530031484274
19	24764	229.540675608052	1.5983518637421
19	24909	231.139027471794	0.90099209453091
19	25002	232.040019566325	2.9175706844968
19	25319	234.957590250822	0.73898537275989
19	25401	235.696575623582	2.675014659849
19	25678	238.371590283431	0.02602373991345
19	25684	238.397614023344	7.5491748904641
19	26530	245.946788913808	0.032574321723035
19	26537	245.979363235531	1.7749799690614
19	26707	247.754343204592	0.4353359925332
19	26754	248.189679197125	1.6431336190833
19	26931	249.832812816208	1.4475135348207
19	27066	251.280326351029	0.70956570619523
19	27142	251.989892057224	2.8329846361074
19	27439	254.822876693331	2.1928702482835
19	27661	257.015746941614	0.29320151363374
19	27673	257.308948455248	8.5385915801287
19	28660	265.847540035377	1.3203856557481
19	28845	267.167925691125	2.245434470951
19	29057	269.413360162076	0.15554131679181
19	29068	269.568901478868	1.0988882374004
19	29183	270.667789716268	1.8366147592629
19	29365	272.504404475531	1.173067604014
19	29533	273.677472079545	5.1046476195861
19	30071	278.782119699131	5.2397627082109
19	30684	284.021882407342	0.36230278157525
19	30697	284.384185188917	2.5654818500687
19	30978	286.949667038986	4.3512001739129
19	31432	291.300867212899	0.25824187484696
19	31453	291.559109087746	0.16497801922785
19	31479	291.724087106974	1.2911563472622
19	31598	293.015243454236	0.14332310827684
19	31625	293.158566562513	2.4348076590292
19	31910	295.593374221542	1.8815088676488
19	32086	297.474883089191	0.34571062308646
19	32108	297.820593712277	1.1143607168972
19	32257	298.934954429174	0.047346373747026
19	32261	298.982300802921	0.4175981157538
19	32297	299.399898918675	3.2869950060848
19	32654	302.68689392476	0.46589886530647
19	32709	303.152792790066	1.3050112264149
19	32822	304.457804016481	0.20673734324579
19	32849	304.664541359727	1.6751748989572
19	33038	306.339716258684	1.1760816622974
19	33114	307.515797920981	5.3085833645718
19	33652	312.824381285553	3.3494439114569
19	34043	316.17382519701	11.92964442206
19	35307	328.10346961907	0.61982136925191
19	35364	328.723290988322	4.6208095119904
19	35873	333.344100500312	3.7123667961226
19	36248	337.056467296435	1.3826036189445
19	36416	338.43907091538	1.3313889827876
19	36548	339.770459898168	1.22775851273
19	36702	340.998218410898	0.088491441399087
19	36714	341.086709852297	4.1287389956304
19	37196	345.215448847927	2.1591444800535
19	37375	347.37459332798	2.0577516085873
19	37612	349.432344936567	7.8044908991951
19	38508	357.236835835762	0.16805925183044
19	38524	357.404895087592	0.23152821910999
19	38543	357.636423306702	0.63746055409436
19	38596	358.273883860796	0.41678644643601
19	38625	358.690670307232	10.366034344865
19	39788	369.056704652097	0.15947897993936
19	39800	369.216183632036	1.6699361733612
19	40006	370.886119805397	0.45826488281719
19	40098	371.344384688214	1.4430439783236
19	40254	372.787428666538	3.4166410676619
19	40533	376.2040697342	3.1699458857955
19	40878	379.374015619996	0.66869541597427
19	40948	380.04271103597	2.275780536204
19	41185	382.318491572174	3.9703487587035
19	41603	386.288840330878	2.5682476836906
19	41882	388.857088014569	1.127177496292
19	41957	389.984265510861	1.9094431251963
19	42165	391.893708636057	0.72806061250486
19	42245	392.621769248562	0.64341983991479
19	42353	393.265189088477	0.51458542434508
19	42395	393.779774512822	1.043624986344
19	42549	394.823399499166	0.44289939216399
19	42630	395.26629889133	0.42715968561039
19	42671	395.69345857694	1.8166170299196
19	42865	397.51007560686	0.22019807867566
19	42903	397.730273685536	0.66699631138501
19	42972	398.397269996921	1.3381086130746
19	43132	399.735378609996	0.89692427961444
20	1823	17.637783293584	1.0665766776626
20	1901	18.704359971247	2.2410635922489
20	2074	20.945423563496	0.96143434179463
20	2174	21.906857905291	1.9857172548953
20	2367	23.892575160186	0.36741377245638
20	2397	24.259988932642	1.8095342136919
20	2544	26.069523146334	1.0594747559227
20	2671	27.128997902257	1.2965289644303
20	2808	28.425526866687	1.7239459025283
20	2989	30.149472769215	2.3859970564239
20	3197	32.535469825639	2.4154058510453
20	3467	34.950875676684	0.080826086997891
20	3475	35.031701763682	0.53372088009293
20	3554	35.565422643775	2.9278256744745
20	3800	38.493248318249	4.3290780618909
20	4329	42.82232638014	1.9860685501099
20	4535	44.80839493025	0.30259321551663
20	4594	45.110988145767	0.19767283534042
20	4639	45.308660981107	0.49408252770918
20	4680	45.802743508816	3.2113398437481
20	5011	49.014083352564	0.38472294421048
20	5096	49.398806296774	3.3925486572139
20	5492	52.791354953988	0.48528944705257
20	5542	53.276644401041	1.1670930174429
20	5634	54.443737418484	3.7792021278622
20	6021	58.222939546346	1.0524556694362
20	6186	59.275395215782	0.14863593478977
20	6198	59.424031150572	0.31634563000559
20	6232	59.740376780578	0.10423981565277
20	6233	59.844616596231	1.3703508328964
20	6366	61.214967429127	0.98340967975689
20	6508	62.198377108884	0.72315739796768
20	6607	62.921534506852	0.076976583804227
20	6618	62.998511090656	3.2509986662794
20	6899	66.249509756935	3.9497480122545
20	7303	70.199257769189	0.83157407045288
20	7374	71.030831839642	0.93910926655104
20	7486	71.969941106193	1.6180388103815
20	7692	73.587979916574	0.56612376806338
20	7756	74.154103684637	0.71019677921781
20	7842	74.864300463855	0.49934439233331
20	7906	75.363644856188	0.43113274121191
20	7937	75.7947775974	2.3476357896697
20	8258	78.14241338707	1.6891178785849
20	8449	79.831531265655	0.87927807509286
20	8529	80.710809340748	0.97529643822592
20	8624	81.686105778974	0.19745639590568
20	8630	81.88356217488	5.3094605989671
20	9210	87.193022773847	0.012221573211427
20	9211	87.205244347058	0.58870733974718
20	9281	87.793951686805	0.71536209833627
20	9372	88.509313785141	0.59635543595147
20	9460	89.105669221092	2.0180595789533
20	9654	91.123728800045	3.8335069908329
20	10137	94.957235790878	1.6494894168596
20	10299	96.606725207738	0.35696589004091
20	10344	96.963691097779	12.804356878247
20	11767	109.768047976026	2.7648077262986
20	12038	112.532855702325	2.8485901948864
20	12326	115.381445897211	1.6279536303831
20	12486	117.009399527594	2.5358497486812
20	12744	119.545249276275	1.7578951406011
20	12944	121.303144416876	5.0622667427261
20	13554	126.365411159602	0.38059276453125
20	13606	126.746003924133	0.17754068936424
20	13617	126.923544613497	4.2380944613776
20	14062	131.161639074875	0.21312808614757
20	14092	131.374767161023	1.2737552975516
20	14231	132.648522458575	0.023984998577559
20	14237	132.672507457153	11.058144132687
20	15331	143.73065158984	3.6238032297432
20	15768	147.354454819583	0.36072350503056
20	15802	147.715178324614	5.2327179582757
20	16362	152.94789628289	0.92735851312027
20	16453	153.87525479601	0.7632729101245
20	16534	154.638527706134	2.3479281021699
20	16816	156.986455808304	3.9550009139314
20	17214	160.941456722235	0.53812348419112
20	17276	161.479580206426	1.3102317099905
20	17431	162.789811916416	4.071645966897
20	17910	166.861457883313	0.032662020934009
20	17916	166.894119904247	2.0432998544558
20	18128	168.937419758703	1.1903828166893
20	18197	170.127802575392	0.97181678314278
20	18322	171.099619358535	3.1966613466723
20	18667	174.296280705207	0.96157790493488
20	18770	175.257858610142	1.1445763544567
20	18884	176.402434964599	0.22937250896426
20	18907	176.631807473563	1.1600689760506
20	19040	177.791876449614	4.232835731542
20	19463	182.024712181156	6.5243688240408
20	20197	188.549081005197	2.3174606175834
20	20460	190.86654162278	0.051849843388096
20	20471	190.918391466168	1.53401812877
20	20613	192.452409594938	0.94878703118175
20	20739	193.40119662612	1.9201204346216
20	20927	195.321317060742	3.173922242676
20	21264	198.495239303418	0.44307739596273
20	21302	198.938316699381	1.5710187070257
20	21455	200.509335406407	1.7456807301198
20	21649	202.255016136527	2.5672596786707
20	21918	204.822275815198	0.36957664244273
20	21957	205.191852457641	0.40836268034125
20	22000	205.600215137982	1.0613558325184
20	22125	206.6615709705	0.46017259451455
20	22167	207.121743565015	1.4750017157455
20	22389	208.596745280761	1.434425530414
20	22545	210.031170811175	6.1525209712199
20	23181	216.183691782395	0.68599885732999
20	23271	216.869690639725	5.0493018896951
20	23838	221.91899252942	4.0732047332373
20	24298	225.992197262657	2.0011093126165
20	24564	227.993306575273	5.5005277288264
20	25178	233.493834304099	0.3452454600084
20	25222	233.839079764107	2.4683727043203
20	25468	236.307452468427	0.22109721516466
20	25479	236.528549683592	0.96901314398622
20	25610	237.497562827578	1.6874140063504
20	25747	239.184976833928	2.9812061717717
20	26040	242.1661830057	2.7765785344845
20	26393	244.942761540184	0.91899694712519
20	26518	245.861758487309	2.4386783962458
20	26775	248.300436883555	2.3714260783927
20	27009	250.671862961948	1.705158898352
20	27168	252.3770218603	0.48198423085751
20	27224	252.859006091158	1.5581650968345
20	27397	254.417171187993	0.0643681004335
20	27399	254.481539288426	1.8373769915814
20	27577	256.318916280007	3.5210848357501
20	27982	259.840001115757	6.0846107878051
20	28679	265.924611903562	2.2222057112013
20	28944	268.146817614763	1.0426267853782
20	29046	269.189444400141	0.83097400634333
20	29115	270.020418406484	1.734186191672
20	29301	271.754604598156	0.22757791838202
20	29318	271.982182516538	4.8741242872024
20	29873	276.85630680374	0.83030666554658
20	29951	277.686613469287	0.20762701333368
20	29980	277.894240482621	3.0713590486238
20	30323	280.965599531245	1.3306638195747
20	30469	282.29626335082	7.8379476108836
20	31325	290.134210961704	0.61468630573985
20	31379	290.748897267444	7.5772048661532
20	32193	298.326102133597	0.15318003647059
20	32206	298.479282170068	0.58373996373036
20	32270	299.063022133798	0.51096825911466
20	32312	299.573990392913	3.4499690152111
20	32692	303.023959408124	0.73126665669438
20	32754	303.755226064818	0.97659629053434
20	32852	304.731822355352	2.2557144447173
20	33075	306.987536800069	3.2150087917047
20	33399	310.202545591774	0.088278918298887
20	33402	310.290824510073	3.5447595894166
20	33764	313.83558409949	1.9685341684841
20	34009	315.804118267974	0.2925316314963
20	34042	316.09664989947	4.9507829005247
20	34651	321.047432799995	1.7943230625562
20	34816	322.841755862551	0.74056561918067
20	34886	323.582321481732	2.9273219897271
20	35159	326.509643471459	6.4437786703664
20	35860	332.953422141825	2.3732938919537
20	36069	335.326716033779	1.1642266013058
20	36189	336.490942635085	7.156257915298
20	36960	343.647200550383	1.7717581337073
20	37211	345.41895868409	2.6589855827161
20	37467	348.077944266806	1.6381322660988
20	37646	349.716076532905	5.1750048790304
20	38289	354.891081411935	1.5704529005691
20	38458	356.461534312504	0.25641791978005
20	38479	356.717952232284	0.18856940172453
20	38491	356.906521634009	1.3087725970522
20	38595	358.215294231061	0.3337125825791
20	38619	358.54900681364	0.95388801485963
20	38727	359.5028948285	2.7950103443624
20	39054	362.297905172862	3.0039785085641
20	39399	365.301883681426	3.4837188450915
20	39764	368.785602526518	3.2725091294212
20	40182	372.058111655939	0.11010980762461
20	40187	372.168221463564	0.11613705420811
20	40193	372.284358517772	3.661267271602
20	40509	375.945625789374	0.9996180403853
20	40644	376.945243829759	0.057540980786938
20	40651	377.002784810546	0.99176952083759
20	40733	377.994554331384	2.4460992447247
20	40991	380.440653576109	2.5281020964448
20	41197	382.968755672554	0.55104743887739
20	41273	383.519803111431	2.1647753217229
20	41554	385.684578433154	0.60342609784575
20	41602	386.288004531	1.5825934787517
20	41753	387.870598009752	2.9397546442088
20	42043	390.810352653961	0.82612669386468
20	42127	391.636479347826	0.22530781942838
20	42164	391.861787167254	7.8434573277742
20	43121	399.705244495028	1.9142137538884
21	2012	20.023213867345	1.2825674519238
21	2108	21.305781319269	0.0050003456176461
21	2109	21.310781664887	0.91567327808323
21	2206	22.22645494297	0.43337480179199
21	2244	22.659829744762	1.5084682628179
21	2384	24.16829800758	2.1965050160984
21	2582	26.364803023678	1.7291896317231
21	2765	28.093992655401	0.19144052733937
21	2796	28.28543318274	0.30252516865916
21	2825	28.587958351399	0.062179676505299
21	2826	28.650138027904	1.331768728557
21	2965	29.981906756461	2.4359477777187
21	3175	32.41785453418	4.7557255434673
21	3674	37.173580077647	2.4243392159014
21	3939	39.597919293548	6.987773491989
21	4780	46.585692785537	3.3897511830105
21	5190	49.975443968547	0.58210878746083
21	5260	50.557552756008	4.9652159578234
21	5763	55.522768713831	3.464843094664
21	6139	58.987611808495	0.48415368692354
21	6200	59.471765495419	2.5606945419812
21	6478	62.0324600374	0.69273131143886
21	6598	62.725191348839	1.7272209917214
21	6728	64.45241234056	5.8630506796568
21	7320	70.315463020217	1.9095584903514
21	7538	72.225021510568	3.0513398488995
21	7898	75.276361359467	5.9258612126015
21	8571	81.202222572068	0.77085010599552
21	8641	81.973072678064	3.9405941174307
21	9076	85.913666795495	0.14812578285209
21	9082	86.061792578347	0.44006036583835
21	9143	86.501852944185	0.6428477951851
21	9209	87.14470073937	1.2641445056545
21	9355	88.408845245024	0.33264192462814
21	9408	88.741487169652	1.5495644232428
21	9566	90.291051592895	0.13060262321756
21	9590	90.421654216113	0.18994284034912
21	9608	90.611597056462	0.072483288950531
21	9609	90.684080345413	1.8361764307029
21	9832	92.520256776116	0.42870796886359
21	9903	92.94896474498	1.776527946218
21	10110	94.725492691198	3.4340647751777
21	10446	98.159557466376	2.5801997071886
21	10732	100.739757173565	12.849116715621
21	12166	113.588873889186	0.63937387894859
21	12240	114.228247768135	2.1201327689092
21	12419	116.348380537044	0.52611696969249
21	12470	116.874497506736	3.6153961762588
21	12862	120.489893682995	3.7994332680212
21	13304	124.289326951016	0.99296098264372
21	13446	125.28228793366	1.1503081178893
21	13560	126.432596051549	0.60240099940768
21	13629	127.034997050957	3.8694644685431
21	14047	130.9044615195	1.0449065115952
21	14144	131.949368031095	0.21461147766367
21	14184	132.163979508759	1.0535801506667
21	14309	133.217559659426	0.19068298122881
21	14332	133.408242640655	4.1910989023825
21	14725	137.599341543038	0.39501632084705
21	14767	137.994357863885	2.0773130892186
21	14973	140.071670953104	0.85187597526773
21	15042	140.923546928372	1.4010718316102
21	15201	142.324618759982	1.0200503252953
21	15294	143.344669085277	0.76950346306294
21	15380	144.11417254834	0.1619031183495
21	15387	144.276075666689	0.16800937363051
21	15408	144.44408504032	2.1945309345345
21	15679	146.638615974855	0.27385180923822
21	15718	146.912467784093	6.1450269223663
21	16373	153.057494706459	1.9518807219818
21	16579	155.009375428441	8.0155142217991
21	17460	163.02488965024	0.73370448751781
21	17534	163.758594137758	1.5348600740004
21	17745	165.293454211758	1.7594773437786
21	17927	167.052931555537	1.3356544685459
21	18063	168.388586024083	2.0247409550913
21	18235	170.413326979174	4.3333045888117
21	18706	174.746631567986	2.2006418904466
21	18940	176.947273458433	4.4414064911537
21	19424	181.388679949587	1.9280111054136
21	19608	183.316691055001	1.5192760593392
21	19770	184.83596711434	2.455761274471
21	20025	187.291728388811	3.7998114638863
21	20486	191.091539852697	2.891428469481
21	20794	193.982968322178	1.4478817960687
21	20934	195.430850118247	8.8493003179517
21	21861	204.280150436199	3.9579030889616
21	22342	208.238053525161	2.7745372249257
21	22672	211.012590750087	2.9222632562794
21	22988	213.934854006366	3.1793683007788
21	23307	217.114222307145	0.4476916679884
21	23353	217.561913975133	0.24148492152455
21	23391	217.803398896658	1.1155314373811
21	23499	218.918930334039	0.69372084322117
21	23586	219.61265117726	0.66562282686358
21	23649	220.278274004124	2.1277538694369
21	23878	222.406027873561	0.6530810656897
21	23996	223.059108939251	5.9050123167385
21	24682	228.96412125599	2.4830097450644
21	24932	231.447131001054	0.54510598653937
21	24995	231.992236987593	1.3520539037423
21	25156	233.344290891335	1.2707770900674
21	25295	234.615067981402	1.0721389957655
21	25400	235.687206977167	4.5548542175532
21	25853	240.24206119472	0.99919186413576
21	25933	241.241253058856	3.773712516605
21	26416	245.014965575461	1.9459867400608
21	26616	246.960952315522	3.4583597327844
21	26979	250.419312048306	0.66513299328997
21	27051	251.084445041596	0.10457315734015
21	27055	251.189018198936	6.0399793595154
21	27662	257.228997558451	2.9743345849217
21	28010	260.203332143373	3.3789241528495
21	28393	263.582256296223	2.3463805345372
21	28680	265.92863683076	0.38054376028347
21	28743	266.309180591043	1.5404211220219
21	28914	267.849601713065	3.2545570305048
21	29237	271.10415874357	1.8287071640474
21	29418	272.932865907617	1.3835867036212
21	29601	274.316452611238	0.80271794040117
21	29672	275.119170551639	1.8421593587525
21	29874	276.961329910392	1.8066119251841
21	30070	278.767941835576	0.47905062396753
21	30106	279.246992459544	6.3597632816116
21	30827	285.606755741156	0.49493276623647
21	30869	286.101688507392	2.8540881636764
21	31213	288.955776671068	1.2098537791476
21	31332	290.165630450216	0.71246438964546
21	31395	290.878094839861	1.9086313391163
21	31582	292.786726178977	3.3851486968998
21	31948	296.171874875877	0.023458974850294
21	31954	296.195333850727	5.4773812267183
21	32566	301.672715077445	1.6226411346185
21	32721	303.295356212063	1.061347873941
21	32816	304.356704086004	2.3854683095539
21	33058	306.742172395558	6.2188426125777
21	33664	312.961015008136	2.0844328267882
21	33898	315.045447834924	1.7724611666079
21	34119	316.817909001532	7.4645939343023
21	34936	324.282502935834	1.3058107625496
21	35077	325.588313698384	0.11659824261739
21	35088	325.704911941001	1.2295805982983
21	35201	326.934492539299	0.41156086417863
21	35256	327.346053403478	3.8920011328081
21	35683	331.238054536286	3.1743586403041
21	35979	334.41241317659	0.33459073310699
21	36008	334.747003909697	0.80805080306628
21	36090	335.555054712763	0.23540002042254
21	36102	335.790454733186	3.7485026685846
21	36526	339.538957401771	0.5270499589505
21	36580	340.066007360722	0.46565403053981
21	36649	340.531661391262	0.23855841467255
21	36681	340.770219805935	2.7661949909389
21	36944	343.536414796874	0.35155610592552
21	37006	343.8879709028	0.043073396509897
21	37012	343.93104429931	1.0748078600733
21	37147	345.005852159383	0.068822589789427
21	37158	345.074674749172	0.20140964361966
21	37204	345.276084392792	5.6136605915998
21	37758	350.889744984392	0.1543864287509
21	37779	351.044131413143	3.950326943068
21	38295	354.994458356211	0.19589537767755
21	38319	355.190353733889	0.32565875066648
21	38362	355.516012484555	0.032553997047586
21	38368	355.548566481603	0.3888091938066
21	38415	355.93737567541	1.5434749560407
21	38531	357.480850631451	1.5014727281792
21	38668	358.98232335963	0.85471089264944
21	38772	359.837034252279	2.8863643719919
21	39098	362.723398624271	1.1833120219083
21	39252	363.906710646179	6.3859652035491
21	39952	370.292675849728	0.93062813114383
21	40073	371.223303980872	5.7329885733146
21	40645	376.956292554187	0.61297058383639
21	40696	377.569263138023	2.3981263340021
21	40936	379.967389472025	1.4655608798461
21	41097	381.432950351871	1.5011461518742
21	41194	382.934096503745	0.281041622959
21	41229	383.215138126704	4.4383395047993
21	41731	387.653477631503	1.0888671263616
21	41850	388.742344757865	1.7452770667644
21	42015	390.487621824629	0.53264443701045
21	42056	391.020266261639	1.920159044507
21	42301	392.940425306146	1.0005500490802
21	42410	393.940975355226	1.186741343742
21	42618	395.127716698968	0.31647405583345
21	42652	395.444190754801	0.24345162909231
21	42670	395.687642383893	3.2675640044648
21	43032	398.955206388358	2.1735898617705

