version 2
run Nonmonitoring-exponential-531-20210224-17:49:31-27064
attr configname Nonmonitoring-exponential
attr datetime 20210224-17:49:31
attr experiment Nonmonitoring-exponential
attr inifile aerocom.ini
attr iterationvars $0=50
attr iterationvarsf 50-
attr measurement $0=50
attr network Aerocom
attr processid 27064
attr repetition 31
attr replication #31
attr resultdir results
attr runnumber 531
attr seedset 31
param **.t 2s
param **.k 50ms
param **.X 0.05s
param **.m 1s
param **.tDistribution "\"exponential\""
param **.operationMode 1
param **.s "70 byte"
param **.dimPoolMax 10000
param **.dimPoolMin 8000
param **.nDL 16
param **.nA 1
param **.DLMaxCapacity 0
param **.trasmitting false

vector 0 Aerocom.aircraft[0].dataLink[2] tDistribution:vector ETV
attr "" ""
attr source computeTDistribution
vector 1 Aerocom.aircraft[0].packetGenerator arrivalTime:vector ETV
attr "" ""
attr source computeArrivalTime
vector 2 Aerocom.aircraft[0].linkSelector waitingTime:vector ETV
attr "" ""
attr source computeWaitingTime
vector 3 Aerocom.aircraft[0].linkSelector queueLength:vector ETV
attr "" ""
attr source computeQueueLength
vector 4 Aerocom.aircraft[0].dataLink[5] actualCapacity:vector ETV
attr "" ""
attr source computeActualCapacity
vector 5 Aerocom.aircraft[0].linkSelector serviceTime:vector ETV
attr "" ""
attr source computeServiceTime
vector 6 Aerocom.aircraft[0].linkSelector responseTime:vector ETV
attr "" ""
attr source computeResponseTime
vector 7 Aerocom.aircraft[0].dataLink[13] tDistribution:vector ETV
attr "" ""
attr source computeTDistribution
vector 8 Aerocom.aircraft[0].dataLink[10] tDistribution:vector ETV
attr "" ""
attr source computeTDistribution
vector 9 Aerocom.aircraft[0].dataLink[8] tDistribution:vector ETV
attr "" ""
attr source computeTDistribution
vector 10 Aerocom.aircraft[0].dataLink[4] tDistribution:vector ETV
attr "" ""
attr source computeTDistribution
vector 11 Aerocom.aircraft[0].dataLink[14] tDistribution:vector ETV
attr "" ""
attr source computeTDistribution
vector 12 Aerocom.aircraft[0].dataLink[12] tDistribution:vector ETV
attr "" ""
attr source computeTDistribution
vector 13 Aerocom.aircraft[0].dataLink[1] tDistribution:vector ETV
attr "" ""
attr source computeTDistribution
vector 14 Aerocom.aircraft[0].dataLink[0] tDistribution:vector ETV
attr "" ""
attr source computeTDistribution
vector 15 Aerocom.aircraft[0].dataLink[11] tDistribution:vector ETV
attr "" ""
attr source computeTDistribution
vector 16 Aerocom.aircraft[0].dataLink[7] tDistribution:vector ETV
attr "" ""
attr source computeTDistribution
vector 17 Aerocom.aircraft[0].dataLink[6] tDistribution:vector ETV
attr "" ""
attr source computeTDistribution
vector 18 Aerocom.aircraft[0].dataLink[15] tDistribution:vector ETV
attr "" ""
attr source computeTDistribution
vector 19 Aerocom.aircraft[0].dataLink[9] tDistribution:vector ETV
attr "" ""
attr source computeTDistribution
vector 20 Aerocom.aircraft[0].dataLink[3] tDistribution:vector ETV
attr "" ""
attr source computeTDistribution
vector 21 Aerocom.aircraft[0].dataLink[5] tDistribution:vector ETV
attr "" ""
attr source computeTDistribution
0	1090	10.047475910071	2.0202732740116
0	1369	12.067749184083	1.2404801698481
0	1513	13.308229353931	2.3667990227504
0	1752	15.675028376681	3.8750880195202
0	2228	19.550116396201	2.2262666823403
0	2523	21.776383078541	1.7905026216102
0	2725	23.566885700151	3.232213619861
0	3087	26.799099320012	3.6031475469697
0	3523	30.402246866982	3.7843100289802
0	3916	34.186556895962	0.73439124396681
0	3981	34.920948139929	4.3724417755586
0	4323	39.293389915488	0.57896852155509
0	4389	39.872358437043	0.47962291323176
0	4454	40.351981350275	6.1383620790196
0	5109	46.490343429295	3.3632811656826
0	5467	49.853624594978	0.66698226775465
0	5532	50.520606862733	3.1140744073889
0	5814	53.634681270122	0.10443094009819
0	5820	53.73911221022	0.34080450339981
0	5850	54.07991671362	0.52666012891091
0	5874	54.606576842531	0.80989142736507
0	6019	55.416468269896	0.25307852704722
0	6045	55.669546796943	1.686621711244
0	6246	57.356168508187	1.4124939148435
0	6407	58.768662423031	1.2817763035657
0	6580	60.050438726597	7.5784452194215
0	7363	67.628883946018	2.8219684909487
0	7682	70.450852436967	1.3639479162617
0	7813	71.814800353229	8.2778390519082
0	8774	80.092639405137	5.4062803892349
0	9456	85.498919794372	0.92891586877087
0	9520	86.427835663143	0.22059256056848
0	9559	86.648428223711	1.0121233910418
0	9673	87.660551614753	2.4300760722524
0	9933	90.090627687005	6.9696957922365
0	10733	97.060323479242	3.1982938618231
0	11135	100.258617341065	1.4925048913774
0	11279	101.751122232442	1.7673999282891
0	11415	103.518522160731	4.7330905869569
0	11951	108.251612747688	1.6202153694039
0	12142	109.871828117092	9.058302466284
0	13187	118.930130583376	2.8665780170306
0	13530	121.796708600407	1.6124565143627
0	13695	123.40916511477	0.28272334661178
0	13729	123.691888461382	2.4984935074859
0	14097	126.190381968868	2.0104947066322
0	14323	128.2008766755	0.32396544024148
0	14362	128.524842115741	0.46494280762724
0	14406	128.989784923368	5.0329307276955
0	14988	134.022715651064	2.3934553843961
0	15309	136.41617103546	1.6594106297041
0	15512	138.075581665164	0.9678419079237
0	15572	139.043423573088	0.71267801438616
0	15651	139.756101587474	0.61351020368264
0	15723	140.369611791157	0.96917369897451
0	15800	141.338785490132	3.6739054832598
0	16268	145.012690973392	1.6782391133676
0	16463	146.69093008676	0.21849126698379
0	16485	146.909421353744	10.279672563954
0	17582	157.189093917698	0.190012864949
0	17592	157.379106782647	2.5359798233505
0	17883	159.915086605998	3.1289589573924
0	18145	163.04404556339	0.40755688775592
0	18192	163.451602451146	0.10489622604449
0	18204	163.55649867719	0.66093329428819
0	18271	164.217431971478	1.5925538933581
0	18395	165.809985864836	2.7117710388441
0	18722	168.52175690368	0.54322610485027
0	18791	169.06498300853	0.25323116895514
0	18832	169.318214177485	1.5094745940531
0	18983	170.827688771538	1.5284802830295
0	19180	172.356169054568	0.058238516905484
0	19191	172.414407571473	2.420906619688
0	19454	174.835314191161	3.6037478908103
0	19870	178.439062081971	0.50967642754032
0	19922	178.948738509511	2.4741238784561
0	20217	181.422862387967	0.11391629849856
0	20233	181.536778686466	0.31953833409186
0	20272	181.856317020558	2.3720004563732
0	20514	184.228317476931	3.9664815319839
0	20945	188.194799008915	1.0755841847685
0	21031	189.270383193684	1.6424651827564
0	21219	190.91284837644	3.3055189492194
0	21520	194.218367325659	0.188925678113
0	21543	194.407293003772	0.45577884041203
0	21591	194.863071844184	1.7321465791245
0	21755	196.595218423309	2.2845779601814
0	22003	198.87979638349	2.8235184904208
0	22259	201.703314873911	1.337497974034
0	22459	203.040812847945	1.3266357977909
0	22582	204.367448645736	1.5765946654847
0	22736	205.944043311221	0.94046417059611
0	22861	206.884507481817	0.85333177339703
0	22950	207.737839255214	1.0660037862512
0	23071	208.803843041465	2.3332239228806
0	23309	211.137066964346	3.1922582207503
0	23658	214.329325185096	4.6240872538415
0	24135	218.953412438938	0.15645737693807
0	24143	219.109869815876	1.5410120018166
0	24301	220.650881817693	0.27410122664271
0	24329	220.924983044336	3.5079291493634
0	24700	224.432912193699	1.7852997089083
0	24878	226.218211902607	2.4639532793144
0	25122	228.682165181921	2.2670074939253
0	25426	230.949172675846	2.6034422106874
0	25750	233.552614886533	0.22801962586053
0	25772	233.780634512394	1.5276775166217
0	25986	235.308312029016	0.14656296999532
0	26010	235.454874999011	0.54330546842201
0	26049	235.998180467433	3.4588585907025
0	26474	239.457039058135	0.12847143058216
0	26490	239.585510488717	1.9187480877532
0	26725	241.50425857647	0.66625405743448
0	26806	242.170512633904	1.2976652404109
0	26970	243.468177874315	0.65482386948643
0	27054	244.123001743801	1.4952157958249
0	27273	245.618217539626	0.49512048907867
0	27342	246.113338028705	2.0958238638551
0	27544	248.20916189256	3.412458564468
0	27891	251.621620457028	2.7226298094076
0	28172	254.344250266436	4.4271706464228
0	28600	258.771420912859	3.9374767625636
0	29028	262.708897675423	0.97991295882471
0	29137	263.688810634248	0.64316641301932
0	29179	264.331977047267	1.392576932124
0	29312	265.724553979391	0.75238927729088
0	29390	266.476943256682	0.52457886959988
0	29431	267.001522126282	1.2658141889199
0	29536	268.267336315202	2.3530604087316
0	29749	270.620396723934	7.5397225851797
0	30518	278.160119309114	0.96378977667941
0	30627	279.123909085793	1.8459565233529
0	30870	280.969865609146	1.8471110975462
0	31084	282.816976706692	2.0499212391765
0	31278	284.866897945868	1.9147784822108
0	31453	286.781676428079	1.118487803517
0	31631	287.900164231596	9.1147097909843
0	32559	297.01487402258	1.0223014649573
0	32625	298.037175487537	0.65373492947975
0	32680	298.690910417017	2.3656855216274
0	32975	301.056595938644	2.4579625640524
0	33287	303.514558502696	2.0522285176664
0	33522	305.566787020362	0.2215633974019
0	33547	305.788350417764	1.8206293715103
0	33738	307.608979789274	0.27668388716678
0	33765	307.885663676441	0.41486718520888
0	33822	308.30053086165	2.4117062397819
0	34059	310.712237101432	0.77908815138735
0	34102	311.491325252819	0.21421891063986
0	34114	311.705544163459	0.06550519010485
0	34120	311.771049353564	4.0684045038802
0	34617	315.839453857444	3.4165172728514
0	34960	319.255971130295	2.5231814396732
0	35265	321.779152569968	0.76489474035683
0	35319	322.544047310325	0.51019926585294
0	35399	323.054246576178	4.3478387963038
0	35830	327.402085372482	5.6323583199489
0	36314	333.034443692431	0.28327263802902
0	36354	333.31771633046	7.9567852052427
0	37189	341.274501535703	0.98333068418755
0	37332	342.257832219891	1.4079366161927
0	37534	343.665768836084	2.0647946914069
0	37733	345.730563527491	0.31931484579535
0	37750	346.049878373286	5.9171227425486
0	38426	351.967001115835	0.34756595052526
0	38477	352.31456706636	0.73134350374256
0	38563	353.045910570103	2.6113877955937
0	38765	355.657298365697	1.3191799014465
0	38932	356.976478267144	0.64648547667191
0	39018	357.622963743816	0.93205094450439
0	39140	358.55501468832	1.7710344703469
0	39294	360.326049158667	1.2991642772745
0	39438	361.625213435942	6.2182092821579
0	40045	367.8434227181	8.2193028400875
0	40938	376.062725558188	0.81748428570894
0	41016	376.880209843897	3.5596207110755
0	41480	380.439830554972	2.0574206530287
0	41681	382.497251208001	2.2603515730903
0	41873	384.757602781091	2.2399821920369
0	42152	386.997584973128	0.53976917942571
0	42209	387.537354152554	0.30837586226913
0	42256	387.845730014823	0.46330917730014
0	42286	388.309039192123	0.36600302179495
0	42314	388.675042213918	3.4910033546196
0	42709	392.166045568538	0.45380764656739
0	42759	392.619853215105	0.47174261923222
0	42820	393.091595834337	1.0922716418337
0	42943	394.183867476171	2.7013804882835
0	43203	396.885247964454	0.015412996196897
0	43208	396.900660960651	1.7368449918936
0	43443	398.637505952545	2.8007147498702
1	1091	10.085658199435	0.033988143821
1	1096	10.119646343256	0.087820058994
1	1101	10.20746640225	0.002627446882
1	1103	10.210093849132	0.087998997852
1	1112	10.298092846984	0.02421833358
1	1117	10.322311180564	0.006905721948
1	1119	10.329216902512	0.010293152815
1	1127	10.339510055327	0.08053724592
1	1133	10.420047301247	0.033052691661
1	1138	10.453099992908	0.01466213623
1	1143	10.467762129138	0.001370693397
1	1145	10.469132822535	0.148798249368
1	1156	10.617931071903	0.058952756672
1	1161	10.676883828575	0.026003414509
1	1166	10.702887243084	0.032481917912
1	1171	10.735369160996	0.049744729894
1	1176	10.78511389089	0.079491132081
1	1181	10.864605022971	0.050204448359
1	1186	10.91480947133	0.091240684912
1	1192	11.006050156242	0.113405940002
1	1198	11.119456096244	0.112736829672
1	1203	11.232192925916	0.004786593766
1	1205	11.236979519682	0.005329717295
1	1210	11.242309236977	0.012489012861
1	1215	11.254798249838	0.106962241937
1	1224	11.361760491775	0.03409117045
1	1229	11.395851662225	0.022854863817
1	1234	11.418706526042	0.014533587082
1	1239	11.433240113124	0.044819300956
1	1244	11.47805941408	0.010271943309
1	1249	11.488331357389	0.007648241244
1	1254	11.495979598633	0.001416488068
1	1256	11.497396086701	0.031050115994
1	1265	11.528446202695	0.011377305843
1	1271	11.539823508538	0.001535616875
1	1273	11.541359125413	0.009287985679
1	1278	11.550647111092	0.08818852636
1	1286	11.638835637452	0.036928198523
1	1292	11.675763835975	0.11377045481
1	1300	11.789534290785	0.013224020713
1	1305	11.802758311498	0.007095297953
1	1307	11.809853609451	0.019862038771
1	1315	11.829715648222	0.134846921641
1	1321	11.964562569863	0.001874954952
1	1323	11.966437524815	0.002620800172
1	1325	11.969058324987	0.036744561506
1	1336	12.005802886493	0.008484130504
1	1341	12.014287016997	0.003477431054
1	1343	12.017764448051	0.003519229527
1	1345	12.021283677578	0.021170191154
1	1356	12.042453868732	0.005971447875
1	1358	12.048425316607	0.016319173618
1	1367	12.064744490225	0.156066435225
1	1373	12.22081092545	0.030943428427
1	1378	12.251754353877	0.015233713034
1	1383	12.266988066911	0.11980241055
1	1388	12.386790477461	0.011184636882
1	1393	12.397975114343	0.004246393464
1	1395	12.402221507807	0.058918500802
1	1403	12.461140008609	0.030812712081
1	1408	12.49195272069	0.097375080389
1	1413	12.589327801079	0.055710032488
1	1418	12.645037833567	0.009028774778
1	1423	12.654066608345	0.020218047751
1	1428	12.674284656096	0.012855041285
1	1433	12.687139697381	0.030274618865
1	1438	12.717414316246	0.022705514694
1	1443	12.74011983094	0.01068214265
1	1448	12.75080197359	0.087076415247
1	1453	12.837878388837	0.075951754946
1	1458	12.913830143783	0.007147486506
1	1460	12.920977630289	0.024424554218
1	1468	12.945402184507	0.005497374817
1	1470	12.950899559324	0.002395060777
1	1475	12.953294620101	0.042930419
1	1483	12.996225039101	0.016987391354
1	1488	13.013212430455	0.025538128016
1	1493	13.038750558471	0.049858905181
1	1498	13.088609463652	0.124665666108
1	1503	13.21327512976	0.028732863548
1	1508	13.242007993308	0.111633926133
1	1514	13.353641919441	0.080612906886
1	1520	13.434254826327	0.062127997021
1	1526	13.496382823348	0.024723312527
1	1531	13.521106135875	0.083361469331
1	1536	13.604467605206	0.096554466148
1	1541	13.701022071354	0.010458685615
1	1546	13.711480756969	0.015311023243
1	1551	13.726791780212	0.051196916836
1	1557	13.777988697048	0.063948105199
1	1562	13.841936802247	0.060521609157
1	1567	13.902458411404	0.01188572282
1	1572	13.914344134224	0.066666136503
1	1579	13.981010270727	0.006931485618
1	1581	13.987941756345	0.164372235317
1	1590	14.152313991662	0.012722077863
1	1595	14.165036069525	0.125741569814
1	1605	14.290777639339	0.082919825063
1	1610	14.373697464402	0.007491985712
1	1612	14.381189450114	0.020935270497
1	1620	14.402124720611	0.022162373797
1	1625	14.424287094408	0.006978033272
1	1627	14.43126512768	0.05951852855
1	1635	14.49078365623	0.099852350682
1	1641	14.590636006912	0.02345289231
1	1646	14.614088899222	0.072788854547
1	1651	14.686877753769	0.055496278303
1	1657	14.742374032072	0.14166678724
1	1664	14.884040819312	0.026951111023
1	1669	14.910991930335	0.059847479724
1	1674	14.970839410059	0.105457093229
1	1679	15.076296503288	0.00891064009
1	1684	15.085207143378	0.019617654191
1	1689	15.104824797569	0.019515866435
1	1694	15.124340664004	0.00176823771
1	1696	15.126108901714	0.028072456324
1	1704	15.154181358038	0.023480276747
1	1709	15.177661634785	0.039089834925
1	1714	15.21675146971	0.067766492292
1	1719	15.284517962002	0.027893674173
1	1724	15.312411636175	0.025884691246
1	1729	15.338296327421	0.050855433289
1	1734	15.38915176071	0.014895008545
1	1739	15.404046769255	0.17190454176
1	1746	15.575951311015	0.129222567462
1	1753	15.705173878477	0.046319674364
1	1758	15.751493552841	0.064609909599
1	1763	15.81610346244	0.078862917975
1	1769	15.894966380415	0.011554584228
1	1774	15.906520964643	0.060967205288
1	1780	15.967488169931	0.000533294128
1	1782	15.968021464059	0.022168617379
1	1790	15.990190081438	0.049193642728
1	1795	16.039383724166	0.003425674669
1	1797	16.042809398835	0.012707184913
1	1805	16.055516583748	0.028249562588
1	1810	16.083766146336	0.008767473534
1	1815	16.09253361987	0.067653860788
1	1820	16.160187480658	0.010258789472
1	1826	16.17044627013	0.028912855029
1	1831	16.199359125159	0.046431445316
1	1836	16.245790570475	0.049677076757
1	1841	16.295467647232	0.0028519887
1	1844	16.298319635932	0.008534841047
1	1849	16.306854476979	0.011701820645
1	1857	16.318556297624	0.038424096501
1	1862	16.356980394125	0.075422706456
1	1869	16.432403100581	0.039874753006
1	1874	16.472277853587	0.0006764321
1	1876	16.472954285687	0.022142954411
1	1884	16.495097240098	0.030017682452
1	1889	16.52511492255	0.00251736769
1	1891	16.52763229024	0.008237951567
1	1896	16.535870241807	0.059647757246
1	1904	16.595517999053	0.024639844208
1	1910	16.620157843261	0.111906799458
1	1916	16.732064642719	0.047172635811
1	1922	16.77923727853	0.031854269575
1	1927	16.811091548105	0.019136297134
1	1933	16.830227845239	0.199682199731
1	1940	17.02991004497	0.105577319174
1	1946	17.135487364144	0.007092977933
1	1948	17.142580342077	0.036022568121
1	1956	17.178602910198	0.003024567815
1	1958	17.181627478013	0.115650467746
1	1966	17.297277945759	0.049731243165
1	1971	17.347009188924	0.029279976302
1	1976	17.376289165226	0.012583666354
1	1981	17.38887283158	0.22225331842
1	1988	17.61112615	0.005374758806
1	1990	17.616500908806	0.037520709809
1	1998	17.654021618615	0.010683653221
1	2003	17.664705271836	0.048557648735
1	2008	17.713262920571	0.030081168606
1	2013	17.743344089177	0.001397753982
1	2015	17.744741843159	0.040856241994
1	2023	17.785598085153	0.074870322748
1	2028	17.860468407901	0.005133620023
1	2030	17.865602027924	0.062972474163
1	2038	17.928574502087	0.043615801649
1	2043	17.972190303736	0.010310255841
1	2048	17.982500559577	0.027948191375
1	2053	18.010448750952	0.078838172245
1	2059	18.089286923197	0.04620576112
1	2065	18.135492684317	0.154366415491
1	2071	18.289859099808	0.055847441242
1	2076	18.34570654105	0.073237495686
1	2082	18.418944036736	0.040251407119
1	2087	18.459195443855	0.110117784769
1	2092	18.569313228624	0.02089443055
1	2098	18.590207659174	0.009624365203
1	2103	18.599832024377	0.126444209692
1	2108	18.726276234069	0.051048433764
1	2114	18.777324667833	0.002131858611
1	2116	18.779456526444	0.011814470841
1	2121	18.791270997285	0.031755285307
1	2131	18.823026282592	0.061595054354
1	2136	18.884621336946	0.006467607672
1	2138	18.891088944618	0.00935169875
1	2143	18.900440643368	0.015470454169
1	2151	18.915911097537	0.017149210975
1	2156	18.933060308512	0.045520126929
1	2161	18.978580435441	0.004540929631
1	2163	18.983121365072	0.020172746722
1	2171	19.003294111794	0.067916448157
1	2176	19.071210559951	0.030588374375
1	2181	19.101798934326	0.002000856671
1	2183	19.103799790997	0.01139790891
1	2188	19.115197699907	0.118868872109
1	2197	19.234066572016	0.018747166879
1	2202	19.252813738895	0.014446518451
1	2207	19.267260257346	0.017913867831
1	2212	19.285174125177	0.060759602362
1	2217	19.345933727539	0.012327821442
1	2222	19.358261548981	0.219568542503
1	2229	19.577830091484	0.021565315713
1	2234	19.599395407197	0.156868288941
1	2240	19.756263696138	0.09295897373
1	2245	19.849222669868	0.004312048662
1	2247	19.85353471853	0.012812586681
1	2255	19.866347305211	0.024187683693
1	2261	19.890534988904	0.028083445515
1	2266	19.918618434419	0.048975070109
1	2271	19.967593504528	0.00392440601
1	2273	19.971517910538	0.007571122072
1	2278	19.97908903261	0.04229449918
1	2286	20.02138353179	0.107956862091
1	2291	20.129340393881	0.021554996013
1	2297	20.150895389894	0.009776521548
1	2302	20.160671911442	0.089407371523
1	2309	20.250079282965	0.00983001234
1	2314	20.259909295305	0.001903622423
1	2317	20.261812917728	0.006213599487
1	2322	20.268026517215	0.039115115693
1	2330	20.307141632908	0.118172276777
1	2336	20.425313909685	0.022056199004
1	2341	20.447370108689	0.015662291925
1	2346	20.463032400614	0.130202282445
1	2351	20.593234683059	0.001364919116
1	2353	20.594599602175	0.038833925621
1	2361	20.633433527796	0.034223727506
1	2367	20.667657255302	0.025330834541
1	2372	20.692988089843	0.010999870484
1	2377	20.703987960327	0.000373754551
1	2379	20.704361714878	0.057928814809
1	2387	20.762290529687	0.007458347901
1	2392	20.769748877588	0.022515105119
1	2397	20.792263982707	0.120678598112
1	2403	20.912942580819	0.015212095579
1	2408	20.928154676398	0.070794904489
1	2413	20.998949580887	0.054093155643
1	2418	21.05304273653	0.024553179793
1	2423	21.077595916323	0.03165292096
1	2428	21.109248837283	0.001086141643
1	2430	21.110334978926	0.054975980592
1	2438	21.165310959518	0.083262300165
1	2443	21.248573259683	0.024250379111
1	2448	21.272823638794	0.033070603692
1	2454	21.305894242486	0.073087799224
1	2460	21.37898204171	0.010197714472
1	2465	21.389179756182	0.023001814023
1	2470	21.412181570205	0.016861564954
1	2475	21.429043135159	0.064021820808
1	2482	21.493064955967	0.020116413557
1	2487	21.513181369524	0.02258769283
1	2492	21.535769062354	0.130358496534
1	2497	21.666127558888	0.03187312061
1	2503	21.698000679498	0.011477339443
1	2508	21.709478018941	0.025443078737
1	2513	21.734921097678	0.033136540237
1	2518	21.768057637915	0.018921380826
1	2524	21.786979018741	0.041335764543
1	2530	21.828314783284	0.004489154611
1	2532	21.832803937895	0.121322365939
1	2540	21.954126303834	0.099693976325
1	2546	22.053820280159	0.059380315742
1	2552	22.113200595901	0.004194010641
1	2554	22.117394606542	0.012309657741
1	2562	22.129704264283	0.002387283669
1	2564	22.132091547952	0.026235108192
1	2572	22.158326656144	0.086299893684
1	2577	22.244626549828	0.039759917591
1	2583	22.284386467419	0.030164716874
1	2589	22.314551184293	0.022989583146
1	2594	22.337540767439	0.101984733604
1	2601	22.439525501043	0.057836237686
1	2607	22.497361738729	0.005128743814
1	2609	22.502490482543	0.092324016823
1	2619	22.594814499366	0.085594135833
1	2624	22.680408635199	0.009705265367
1	2629	22.690113900566	0.068126659501
1	2634	22.758240560067	0.005728890845
1	2636	22.763969450912	0.025618403089
1	2644	22.789587854001	0.006604790729
1	2646	22.79619264473	0.092407944082
1	2654	22.888600588812	0.011771503897
1	2659	22.900372092709	0.013385681761
1	2664	22.91375777447	0.000158341543
1	2666	22.913916116013	0.277038983173
1	2679	23.190955099186	0.029001646948
1	2684	23.219956746134	0.087025093331
1	2689	23.306981839465	0.038737507889
1	2694	23.345719347354	0.044941613707
1	2700	23.390660961061	0.071600868475
1	2705	23.462261829536	0.03540122632
1	2710	23.497663055856	0.007718099856
1	2712	23.505381155712	0.018559852889
1	2720	23.523941008601	0.043983583013
1	2726	23.567924591614	0.005991201058
1	2728	23.573915792672	0.003540394187
1	2733	23.577456186859	0.044278300919
1	2741	23.621734487778	0.088490699725
1	2748	23.710225187503	0.028147660755
1	2753	23.738372848258	0.005802852015
1	2755	23.744175700273	0.043822675663
1	2764	23.787998375936	0.143212946262
1	2769	23.931211322198	0.006801635538
1	2771	23.938012957736	0.045051928904
1	2779	23.98306488664	0.008097799115
1	2784	23.991162685755	0.127341504483
1	2790	24.118504190238	0.018781248248
1	2795	24.137285438486	0.003406555239
1	2797	24.140691993725	0.019016292843
1	2805	24.159708286568	0.024123216987
1	2810	24.183831503555	0.078457635209
1	2815	24.262289138764	0.140271787824
1	2820	24.402560926588	0.047727777423
1	2826	24.450288704011	0.049065716198
1	2831	24.499354420209	0.048953791772
1	2836	24.548308211981	0.042300926974
1	2841	24.590609138955	0.04435707242
1	2846	24.634966211375	0.013993116841
1	2851	24.648959328216	0.005828063662
1	2853	24.654787391878	0.029209648594
1	2861	24.683997040472	0.066249509227
1	2867	24.750246549699	0.026800497538
1	2872	24.777047047237	0.001509833943
1	2874	24.77855688118	0.090552752876
1	2882	24.869109634056	0.012509053064
1	2887	24.88161868712	0.112884963726
1	2892	24.994503650846	0.007250755774
1	2894	25.00175440662	0.033275170468
1	2902	25.035029577088	0.038497064944
1	2907	25.073526642032	0.01296506868
1	2912	25.086491710712	0.024991409731
1	2917	25.111483120443	0.007817004604
1	2922	25.119300125047	0.022403267824
1	2928	25.141703392871	0.111682058837
1	2933	25.253385451708	0.014778572315
1	2938	25.268164024023	0.062229540666
1	2943	25.330393564689	0.058576958336
1	2948	25.388970523025	0.026121345022
1	2954	25.415091868047	0.044578261592
1	2959	25.459670129639	0.019981193926
1	2964	25.479651323565	0.143136747666
1	2970	25.622788071231	0.071459176345
1	2975	25.694247247576	0.051312976562
1	2981	25.745560224138	0.149905166378
1	2986	25.895465390516	0.080218306834
1	2991	25.97568369735	0.096536924006
1	2997	26.072220621356	0.0367387352
1	3002	26.108959356556	0.003565584137
1	3004	26.112524940693	0.14095999102
1	3013	26.253484931713	0.012221101797
1	3018	26.26570603351	0.052525066745
1	3023	26.318231100255	0.028084662277
1	3028	26.346315762532	0.13486020456
1	3035	26.481175967092	0.071551523179
1	3040	26.552727490271	0.030739767141
1	3045	26.583467257412	0.001735897931
1	3047	26.585203155343	0.027201154303
1	3055	26.612404309646	0.004353184614
1	3057	26.61675749426	0.042338125477
1	3065	26.659095619737	0.005827310858
1	3067	26.664922930595	0.002505211033
1	3072	26.667428141628	0.018963039484
1	3081	26.686391181112	0.11301332531
1	3088	26.799404506422	0.026635084203
1	3093	26.826039590625	0.024999637404
1	3099	26.851039228029	0.012155997159
1	3104	26.863195225188	0.028800697674
1	3109	26.891995922862	0.022538626403
1	3114	26.914534549265	0.098816033823
1	3119	27.013350583088	0.04483885605
1	3124	27.058189439138	0.088162748452
1	3129	27.14635218759	0.008494524385
1	3134	27.154846711975	0.011316849799
1	3139	27.166163561774	0.055732629319
1	3145	27.221896191093	0.005178103605
1	3147	27.227074294698	0.121429620088
1	3155	27.348503914786	0.058470515854
1	3161	27.40697443064	0.021201308032
1	3166	27.428175738672	0.010879030611
1	3171	27.439054769283	0.068133440077
1	3176	27.50718820936	0.001173579446
1	3178	27.508361788806	0.048486918517
1	3186	27.556848707323	0.067102413106
1	3191	27.623951120429	0.008308233857
1	3196	27.632259354286	0.023686532714
1	3201	27.655945887	0.058524709955
1	3206	27.714470596955	0.049138591646
1	3211	27.763609188601	0.005553662935
1	3214	27.769162851536	0.065285717051
1	3222	27.834448568587	0.009712771377
1	3227	27.844161339964	0.012042625572
1	3232	27.856203965536	0.002086004056
1	3234	27.858289969592	0.004916215735
1	3236	27.863206185327	0.042197324655
1	3247	27.905403509982	0.080048512352
1	3252	27.985452022334	0.050669259243
1	3257	28.036121281577	0.034598282177
1	3262	28.070719563754	0.021409949766
1	3267	28.09212951352	0.005973521029
1	3269	28.098103034549	0.194955268571
1	3281	28.29305830312	0.074255004345
1	3286	28.367313307465	0.007770138956
1	3288	28.375083446421	0.005681018376
1	3293	28.380764464797	0.007660317944
1	3298	28.388424782741	0.007154348569
1	3303	28.39557913131	0.002095352158
1	3305	28.397674483468	0.052335571236
1	3316	28.450010054704	0.001470037856
1	3318	28.45148009256	0.01544556578
1	3326	28.46692565834	0.090746530571
1	3331	28.557672188911	0.049793239914
1	3336	28.607465428825	0.007013338034
1	3338	28.614478766859	0.010740120709
1	3346	28.625218887568	0.01282084582
1	3351	28.638039733388	0.101123996095
1	3356	28.739163729483	0.012858513827
1	3361	28.75202224331	0.007794796375
1	3363	28.759817039685	0.090747854377
1	3373	28.850564894062	0.03689636273
1	3379	28.887461256792	0.096848281943
1	3384	28.984309538735	0.028526182043
1	3389	29.012835720778	0.089079025814
1	3394	29.101914746592	0.055262154082
1	3399	29.157176900674	0.004413852978
1	3401	29.161590753652	0.007004751021
1	3406	29.168595504673	0.132998614451
1	3416	29.301594119124	0.051914702439
1	3421	29.353508821563	0.037297987242
1	3428	29.390806808805	0.007293349797
1	3430	29.398100158602	0.020831589324
1	3438	29.418931747926	0.060681791559
1	3444	29.479613539485	0.010794161535
1	3449	29.49040770102	0.033353193147
1	3455	29.523760894167	0.043697294703
1	3460	29.56745818887	0.134899980631
1	3466	29.702358169501	0.033044244249
1	3471	29.73540241375	0.044873619274
1	3476	29.780276033024	0.140769885088
1	3482	29.921045918112	0.253199871878
1	3490	30.17424578999	0.027496885182
1	3497	30.201742675172	0.009577229561
1	3502	30.211319904733	0.028433159543
1	3507	30.239753064276	0.042802034807
1	3513	30.282555099083	0.068244354997
1	3518	30.35079945408	0.05907224899
1	3524	30.40987170307	0.010363110307
1	3530	30.420234813377	0.038232723194
1	3535	30.458467536571	0.100117825214
1	3541	30.558585361785	0.087868776332
1	3548	30.646454138117	0.024891925733
1	3553	30.67134606385	0.137593072471
1	3558	30.808939136321	0.07994420606
1	3564	30.888883342381	0.025925929314
1	3569	30.914809271695	0.052148504552
1	3574	30.966957776247	0.008076648731
1	3579	30.975034424978	0.010903087803
1	3584	30.985937512781	0.008233328074
1	3589	30.994170840855	0.001975082134
1	3591	30.996145922989	0.030684994444
1	3599	31.026830917433	0.022440475192
1	3604	31.049271392625	0.015716099743
1	3609	31.064987492368	0.045523648513
1	3614	31.110511140881	0.078195497262
1	3622	31.188706638143	0.013433945934
1	3627	31.202140584077	0.140328881622
1	3633	31.342469465699	0.117255263905
1	3639	31.459724729604	0.015636945717
1	3644	31.475361675321	0.009300057378
1	3649	31.484661732699	0.001568503402
1	3651	31.486230236101	0.024837176769
1	3659	31.51106741287	0.038433960542
1	3664	31.549501373412	0.007965635552
1	3669	31.557467008964	0.171591820014
1	3676	31.729058828978	0.083624159118
1	3681	31.812682988096	0.023684185505
1	3686	31.836367173601	0.020626713937
1	3691	31.856993887538	0.131773175162
1	3697	31.9887670627	0.065049004202
1	3703	32.053816066902	0.00043001673
1	3705	32.054246083632	0.0332548607
1	3713	32.087500944332	0.062997017748
1	3718	32.15049796208	0.00300714998
1	3720	32.15350511206	0.044576931396
1	3730	32.198082043456	0.078925676302
1	3736	32.277007719758	0.060291787309
1	3741	32.337299507067	0.107482106199
1	3746	32.444781613266	0.189799746091
1	3753	32.634581359357	0.009057658033
1	3758	32.64363901739	0.0731132643
1	3763	32.71675228169	0.038435646417
1	3769	32.755187928107	0.056729805721
1	3775	32.811917733828	0.000323471019
1	3777	32.812241204847	0.019719047504
1	3786	32.831960252351	0.171090813148
1	3792	33.003051065499	0.030359498645
1	3797	33.033410564144	0.027146881031
1	3802	33.060557445175	0.010538764257
1	3807	33.071096209432	0.090084840962
1	3812	33.161181050394	0.050735205371
1	3818	33.211916255765	0.000139406595
1	3820	33.21205566236	0.025526362396
1	3828	33.237582024756	0.094285875329
1	3833	33.331867900085	0.026515775346
1	3838	33.358383675431	0.073238399574
1	3843	33.431622075005	0.057256585772
1	3848	33.488878660777	0.018184170319
1	3853	33.507062831096	0.046193123894
1	3858	33.55325595499	0.041474566222
1	3863	33.594730521212	0.106268168218
1	3868	33.70099868943	0.060527603568
1	3873	33.761526292998	0.009298510862
1	3878	33.77082480386	0.033098601735
1	3883	33.803923405595	0.110089295039
1	3888	33.914012700634	0.002771544625
1	3890	33.916784245259	0.089165029384
1	3900	34.005949274643	0.005487343533
1	3902	34.011436618176	0.167593960646
1	3911	34.179030578822	0.029886738096
1	3917	34.208917316918	0.073604215758
1	3922	34.282521532676	0.074039623233
1	3929	34.356561155909	0.112161510604
1	3934	34.468722666513	0.00800804717
1	3939	34.476730713683	0.01767529757
1	3944	34.494406011253	0.055972478847
1	3950	34.5503784901	0.005064900364
1	3952	34.555443390464	0.159925217172
1	3960	34.715368607636	0.082773521538
1	3965	34.798142129174	0.006487303931
1	3967	34.804629433105	0.056629383316
1	3975	34.861258816421	0.068069807936
1	3982	34.929328624357	0.035427097622
1	3988	34.964755721979	0.011840490241
1	3993	34.97659621222	0.008064680738
1	3998	34.984660892958	0.01886015505
1	4004	35.003521048008	0.009041756891
1	4009	35.012562804899	0.069605343188
1	4014	35.082168148087	0.053279387443
1	4020	35.13544753553	0.115907538944
1	4027	35.251355074474	0.04206507407
1	4032	35.293420148544	0.010951156058
1	4037	35.304371304602	0.462083663123
1	4045	35.766454967725	0.044150356846
1	4050	35.810605324571	0.003657091979
1	4052	35.81426241655	0.068865535485
1	4062	35.883127952035	0.026376844488
1	4067	35.909504796523	0.011380274217
1	4072	35.92088507074	0.073895334105
1	4077	35.994780404845	0.162974497788
1	4083	36.157754902633	0.133206936494
1	4090	36.290961839127	0.039517277878
1	4095	36.330479117005	0.04676044698
1	4100	36.377239563985	0.01686539331
1	4105	36.394104957295	0.100743570115
1	4111	36.49484852741	0.299849180426
1	4119	36.794697707836	0.091949262671
1	4124	36.886646970507	0.054899040602
1	4129	36.941546011109	0.038046047494
1	4134	36.979592058603	0.066789527972
1	4140	37.046381586575	0.06601880544
1	4145	37.112400392015	0.107135158965
1	4150	37.21953555098	0.09088447725
1	4156	37.31042002823	0.110720368139
1	4162	37.421140396369	0.036511551217
1	4168	37.457651947586	0.016558535843
1	4173	37.474210483429	0.225705059885
1	4179	37.699915543314	0.05977507358
1	4184	37.759690616894	0.05990849933
1	4189	37.819599116224	0.035551939209
1	4196	37.855151055433	0.00815836551
1	4201	37.863309420943	0.117575759454
1	4206	37.980885180397	0.121462730398
1	4211	38.102347910795	0.074843375167
1	4217	38.177191285962	0.048060182395
1	4224	38.225251468357	0.005021146239
1	4226	38.230272614596	0.358253153308
1	4236	38.588525767904	0.007172004495
1	4238	38.595697772399	0.022657183658
1	4246	38.618354956057	0.028387509898
1	4251	38.646742465955	0.017713573986
1	4256	38.664456039941	0.014889261871
1	4261	38.679345301812	0.016598042295
1	4266	38.695943344107	0.019309864227
1	4271	38.715253208334	0.021412851669
1	4276	38.736666060003	0.124071732674
1	4282	38.860737792677	0.078027191522
1	4287	38.938764984199	0.035688698619
1	4292	38.974453682818	0.090604388309
1	4298	39.065058071127	0.018279375943
1	4303	39.08333744707	0.142607763883
1	4308	39.225945210953	0.027252441881
1	4313	39.253197652834	0.028889860368
1	4318	39.282087513202	0.011902452851
1	4324	39.293989966053	0.024714556801
1	4329	39.318704522854	0.104334394858
1	4334	39.423038917712	0.058728571698
1	4339	39.48176748941	0.044108253785
1	4344	39.525875743195	0.014216187209
1	4349	39.540091930404	0.005507834499
1	4351	39.545599764903	0.004585027059
1	4356	39.550184791962	0.233111302524
1	4369	39.783296094486	0.032958475038
1	4374	39.816254569524	0.019740408158
1	4379	39.835994977682	0.027257198179
1	4384	39.863252175861	0.010221767689
1	4390	39.87347394355	0.002363827407
1	4392	39.875837770957	0.054802169461
1	4400	39.930639940418	0.005628149349
1	4402	39.936268089767	0.000289332045
1	4404	39.936557421812	0.031672468196
1	4417	39.968229890008	0.011713252186
1	4422	39.979943142194	0.159827164627
1	4431	40.139770306821	0.063398837259
1	4436	40.20316914408	0.105134926289
1	4442	40.308304070369	0.029772811472
1	4447	40.338076881841	0.007966895204
1	4449	40.346043777045	0.100188236864
1	4462	40.446232013909	0.113443488124
1	4470	40.559675502033	0.017588126493
1	4475	40.577263628526	0.074048168965
1	4480	40.651311797491	0.128717880139
1	4487	40.78002967763	0.079805291089
1	4493	40.859834968719	0.055618618315
1	4499	40.915453587034	0.025094905134
1	4504	40.940548492168	0.002736603794
1	4506	40.943285095962	0.016882595073
1	4514	40.960167691035	0.004777546165
1	4516	40.9649452372	0.047647707322
1	4524	41.012592944522	0.088420159246
1	4529	41.101013103768	0.013238732188
1	4534	41.114251835956	0.018378884044
1	4539	41.13263072	0.099155269756
1	4545	41.231785989756	0.125185715593
1	4550	41.356971705349	0.078003622653
1	4555	41.434975328002	0.065934276141
1	4560	41.500909604143	0.00310938682
1	4562	41.504018990963	0.040286973001
1	4570	41.544305963964	0.020210177657
1	4575	41.564516141621	0.032149861123
1	4580	41.596666002744	0.04698275908
1	4585	41.643648761824	0.049890685619
1	4591	41.693539447443	0.008427793291
1	4596	41.701967240734	0.1623373427
1	4603	41.864304583434	0.002570613335
1	4605	41.866875196769	0.013766408402
1	4610	41.880641605171	0.008967874274
1	4618	41.889609479445	0.017769301365
1	4624	41.90737878081	0.02084938902
1	4629	41.92822816983	0.176047736285
1	4635	42.104275906115	0.049786205486
1	4640	42.154062111601	0.041511169907
1	4645	42.195573281508	0.035255917876
1	4650	42.230829199384	0.064864758131
1	4655	42.295693957515	0.04867115021
1	4660	42.344365107725	0.050512939781
1	4665	42.394878047506	0.052216699266
1	4670	42.447094746772	0.105598546356
1	4678	42.552693293128	0.077889090121
1	4683	42.630582383249	0.112203073204
1	4688	42.742785456453	0.031701557793
1	4693	42.774487014246	0.043587521649
1	4698	42.818074535895	0.085146322585
1	4703	42.90322085848	0.002547302173
1	4705	42.905768160653	0.176860756849
1	4716	43.082628917502	0.176139902112
1	4721	43.258768819614	0.007029163299
1	4723	43.265797982913	0.0615673502
1	4731	43.327365333113	0.015685969978
1	4736	43.343051303091	0.128634527348
1	4743	43.471685830439	1.0542495e-05
1	4745	43.471696372934	0.000640550559
1	4747	43.472336923493	0.030885719528
1	4758	43.503222643021	0.099150414826
1	4767	43.602373057847	0.079576262124
1	4772	43.681949319971	0.00599718768
1	4774	43.687946507651	0.071963642097
1	4784	43.759910149748	0.01704859037
1	4789	43.776958740118	0.131492327005
1	4795	43.908451067123	0.040180587052
1	4800	43.948631654175	0.021204116299
1	4805	43.969835770474	0.041105546187
1	4811	44.010941316661	0.074532799796
1	4816	44.085474116457	0.034237314085
1	4822	44.119711430542	0.04004330349
1	4827	44.159754734032	0.01743577379
1	4832	44.177190507822	0.003326110035
1	4834	44.180516617857	0.06036477764
1	4843	44.240881395497	0.062401561382
1	4848	44.303282956879	0.033200418217
1	4855	44.336483375096	0.016941811363
1	4860	44.353425186459	0.033395550144
1	4865	44.386820736603	0.037870390193
1	4871	44.424691126796	0.120854330749
1	4877	44.545545457545	0.089497029008
1	4883	44.635042486553	0.014906565848
1	4888	44.649949052401	0.001230132481
1	4890	44.651179184882	0.004099200596
1	4892	44.655278385478	0.010852220055
1	4897	44.666130605533	0.004476126197
1	4902	44.67060673173	0.070555769776
1	4913	44.741162501506	0.115564645387
1	4919	44.856727146893	0.07981640232
1	4924	44.936543549213	0.012661087647
1	4929	44.94920463686	0.009892863705
1	4934	44.959097500565	0.012062016062
1	4939	44.971159516627	0.0071774509
1	4941	44.978336967527	0.054046452683
1	4949	45.03238342021	0.092012076182
1	4955	45.124395496392	0.030463601612
1	4960	45.154859098004	0.060444738736
1	4965	45.21530383674	0.068278908955
1	4970	45.283582745695	0.079763560527
1	4976	45.363346306222	0.140237762397
1	4982	45.503584068619	0.048373317523
1	4987	45.551957386142	0.08068756447
1	4992	45.632644950612	0.011392035875
1	4997	45.644036986487	0.029347291294
1	5002	45.673384277781	0.033808435592
1	5007	45.707192713373	0.002433302335
1	5009	45.709626015708	0.017409903291
1	5017	45.727035918999	0.018290874645
1	5022	45.745326793644	0.026325532841
1	5027	45.771652326485	0.040575383428
1	5032	45.812227709913	0.007200686889
1	5034	45.819428396802	0.074966997268
1	5044	45.89439539407	0.003028941852
1	5046	45.897424335922	0.041213459196
1	5054	45.938637795118	0.074640882563
1	5061	46.013278677681	0.039248955208
1	5067	46.052527632889	0.031957631588
1	5072	46.084485264477	0.084179428614
1	5077	46.168664693091	0.006083598744
1	5079	46.174748291835	0.069892824748
1	5089	46.244641116583	0.043858376629
1	5094	46.288499493212	0.051753206161
1	5099	46.340252699373	0.009100740462
1	5104	46.349353439835	0.165893217161
1	5111	46.515246656996	0.00181334002
1	5113	46.517059997016	0.097822503219
1	5121	46.614882500235	0.106224597954
1	5126	46.721107098189	0.015888734254
1	5131	46.736995832443	0.117047240848
1	5138	46.854043073291	0.00595840541
1	5140	46.860001478701	0.120338318854
1	5148	46.980339797555	0.056055132682
1	5153	47.036394930237	0.019492103625
1	5158	47.055887033862	0.071831364634
1	5163	47.127718398496	0.162421096881
1	5169	47.290139495377	0.005246012811
1	5171	47.295385508188	0.089186960859
1	5179	47.384572469047	0.026501423872
1	5184	47.411073892919	0.038125390477
1	5189	47.449199283396	0.024447148944
1	5195	47.47364643234	0.06481901365
1	5200	47.53846544599	0.077055466411
1	5205	47.615520912401	0.053050543593
1	5210	47.668571455994	0.043220068683
1	5216	47.711791524677	0.078217417391
1	5223	47.790008942068	0.129935459499
1	5228	47.919944401567	0.002626386747
1	5230	47.922570788314	0.022799427584
1	5238	47.945370215898	0.040420779698
1	5244	47.985790995596	0.026050448086
1	5249	48.011841443682	0.008643012424
1	5254	48.020484456106	0.007326742449
1	5256	48.027811198555	0.059651197318
1	5265	48.087462395873	0.079494748556
1	5270	48.166957144429	0.070937027792
1	5276	48.237894172221	0.053275276138
1	5281	48.291169448359	0.060177349508
1	5286	48.351346797867	0.093352405685
1	5291	48.444699203552	0.175788241511
1	5299	48.620487445063	0.012346901134
1	5305	48.632834346197	0.00304713787
1	5307	48.635881484067	0.002679029862
1	5309	48.638560513929	0.02733046561
1	5320	48.665890979539	0.016358722258
1	5325	48.682249701797	0.032138737417
1	5331	48.714388439214	0.042629607224
1	5336	48.757018046438	0.012033899585
1	5341	48.769051946023	0.065443275351
1	5346	48.834495221374	0.001447422503
1	5348	48.835942643877	0.070180324126
1	5356	48.906122968003	0.004566291021
1	5358	48.910689259024	0.054356907277
1	5367	48.965046166301	0.112178853393
1	5372	49.077225019694	0.040910180199
1	5378	49.118135199893	0.008674283947
1	5383	49.12680948384	0.060598149234
1	5389	49.187407633074	0.050552865557
1	5394	49.237960498631	0.01834797036
1	5399	49.256308468991	0.026225198563
1	5404	49.282533667554	0.0366218888
1	5409	49.319155556354	0.089799001934
1	5415	49.408954558288	0.014976480443
1	5420	49.423931038731	0.002761844091
1	5422	49.426692882822	0.038036211201
1	5430	49.464729094023	0.041829959247
1	5436	49.50655905327	0.03391802657
1	5441	49.54047707984	0.021143556144
1	5446	49.561620635984	0.069642094077
1	5451	49.631262730061	0.051407493102
1	5456	49.682670223163	0.002426728529
1	5458	49.685096951692	0.296868469955
1	5471	49.981965421647	0.082705489732
1	5476	50.064670911379	0.049353035689
1	5481	50.114023947068	0.004730074063
1	5483	50.118754021131	0.025389076508
1	5491	50.144143097639	0.053240334051
1	5496	50.19738343169	0.037618351795
1	5501	50.235001783485	0.076535515991
1	5507	50.311537299476	0.09135296554
1	5512	50.402890265016	0.014931093285
1	5517	50.417821358301	0.008716469554
1	5522	50.426537827855	0.037294588556
1	5527	50.463832416411	0.138169851796
1	5533	50.602002268207	0.147971493545
1	5539	50.749973761752	0.000436523772
1	5541	50.750410285524	0.056722529676
1	5549	50.8071328152	0.159804367668
1	5555	50.966937182868	0.000805055998
1	5557	50.967742238866	0.026075761297
1	5565	50.993818000163	0.253927972187
1	5571	51.24774597235	0.054712875051
1	5576	51.302458847401	0.082877763906
1	5581	51.385336611307	0.023880716003
1	5586	51.40921732731	0.151407168354
1	5592	51.560624495664	0.0464609644
1	5597	51.607085460064	0.028839407774
1	5602	51.635924867838	0.008975263398
1	5607	51.644900131236	0.07282365432
1	5613	51.717723785556	0.009327039437
1	5618	51.727050824993	0.25911226656
1	5625	51.986163091553	0.062977220377
1	5634	52.04914031193	0.019865460293
1	5639	52.069005772223	0.104965539496
1	5644	52.173971311719	0.002240783283
1	5646	52.176212095002	0.056907165338
1	5654	52.23311926034	0.155428722537
1	5660	52.388547982877	0.017066936395
1	5665	52.405614919272	0.024749470445
1	5670	52.430364389717	0.020280931455
1	5675	52.450645321172	0.027218112007
1	5680	52.477863433179	0.242002617164
1	5686	52.719866050343	0.023138581666
1	5691	52.743004632009	0.016217219885
1	5696	52.759221851894	0.088550743016
1	5703	52.84777259491	0.089148590395
1	5709	52.936921185305	0.070638565588
1	5714	53.007559750893	0.014700658174
1	5719	53.022260409067	0.010621754908
1	5724	53.032882163975	0.026267440084
1	5729	53.059149604059	0.006428286523
1	5732	53.065577890582	0.034473639597
1	5740	53.100051530179	0.01886067327
1	5745	53.118912203449	0.033423778878
1	5751	53.152335982327	0.006553842618
1	5753	53.158889824945	0.126865386416
1	5761	53.285755211361	0.059668263347
1	5766	53.345423474708	0.007978493654
1	5768	53.353401968362	0.024121837774
1	5776	53.377523806136	0.026267974002
1	5781	53.403791780138	0.025316304471
1	5786	53.429108084609	0.049229371534
1	5792	53.478337456143	0.003172444273
1	5794	53.481509900416	0.001001255033
1	5796	53.482511155449	0.045779949704
1	5808	53.528291105153	0.116051577287
1	5815	53.64434268244	0.152676680693
1	5821	53.797019363133	0.040626501336
1	5827	53.837645864469	0.002962764844
1	5829	53.840608629313	0.11093763015
1	5840	53.951546259463	0.096281497954
1	5845	54.047827757417	0.206772079641
1	5851	54.254599837058	0.121320415315
1	5858	54.375920252373	0.078330254774
1	5863	54.454250507147	0.049556312573
1	5868	54.50380681972	0.134882567718
1	5875	54.638689387438	0.000971453678
1	5877	54.639660841116	0.0328336308
1	5885	54.672494471916	0.081984691477
1	5890	54.754479163393	0.026557532456
1	5895	54.781036695849	0.018064014405
1	5900	54.799100710254	0.008555665898
1	5905	54.807656376152	0.007697303462
1	5907	54.815353679614	0.014994952988
1	5915	54.830348632602	0.007825040328
1	5918	54.83817367293	0.000235001338
1	5923	54.838408674268	0.033663421117
1	5931	54.872072095385	0.050264186932
1	5936	54.922336282317	0.018683214416
1	5941	54.941019496733	0.004685527174
1	5943	54.945705023907	0.020487180742
1	5951	54.966192204649	0.047881096394
1	5956	55.014073301043	0.01575253862
1	5961	55.029825839663	0.016854041721
1	5966	55.046679881384	0.000122839448
1	5968	55.046802720832	0.025055949808
1	5977	55.07185867064	0.044328397106
1	5982	55.116187067746	0.008663282526
1	5987	55.124850350272	0.0072348489
1	5989	55.132085199172	0.082194805972
1	5998	55.214280005144	0.10005394376
1	6004	55.314333948904	0.030343201079
1	6009	55.344677149983	0.014524865829
1	6014	55.359202015812	0.069048938684
1	6020	55.428250954496	0.03231389214
1	6025	55.460564846636	0.073312913414
1	6030	55.53387776005	0.052088366344
1	6035	55.585966126394	0.016148049925
1	6040	55.602114176319	0.105469708122
1	6046	55.707583884441	0.013079409488
1	6051	55.720663293929	0.033710963272
1	6056	55.754374257201	0.163943378959
1	6061	55.91831763616	0.04006264692
1	6066	55.95838028308	0.017408462003
1	6071	55.975788745083	0.027467706445
1	6078	56.003256451528	0.003627490311
1	6080	56.006883941839	0.021032881798
1	6089	56.027916823637	0.096216526861
1	6094	56.124133350498	0.019015671756
1	6099	56.143149022254	0.118819313762
1	6105	56.261968336016	0.001860455685
1	6107	56.263828791701	0.027414579541
1	6115	56.291243371242	0.001203026516
1	6117	56.292446397758	0.161478002132
1	6126	56.45392439989	0.081360205193
1	6131	56.535284605083	0.05001071432
1	6137	56.585295319403	0.000201820782
1	6139	56.585497140185	0.011863617283
1	6144	56.597360757468	0.003044787661
1	6146	56.600405545129	0.02452605392
1	6157	56.624931599049	0.0121707461
1	6163	56.637102345149	0.023511346975
1	6168	56.660613692124	0.199871005041
1	6174	56.860484697165	0.039306832579
1	6180	56.899791529744	0.091350124232
1	6185	56.991141653976	0.005423339304
1	6187	56.99656499328	0.042695231541
1	6195	57.039260224821	0.020820573646
1	6200	57.060080798467	0.000646866921
1	6202	57.060727665388	0.051373190696
1	6210	57.112100856084	0.026688858256
1	6215	57.13878971434	0.013338826526
1	6220	57.152128540866	0.068078679087
1	6225	57.220207219953	0.038128709869
1	6231	57.258335929822	0.007145251504
1	6233	57.265481181326	0.029980297861
1	6241	57.295461479187	0.172145341083
1	6247	57.46760682027	0.013696052389
1	6253	57.481302872659	0.016428166726
1	6258	57.497731039385	0.013434154812
1	6263	57.511165194197	0.005908859655
1	6265	57.517074053852	0.052936040248
1	6274	57.5700100941	0.052672453256
1	6279	57.622682547356	0.009470546478
1	6284	57.632153093834	0.041638536631
1	6289	57.673791630465	0.048541501688
1	6294	57.722333132153	0.06098749138
1	6299	57.783320623533	0.022594243718
1	6304	57.805914867251	0.024448338047
1	6309	57.830363205298	0.011797925146
1	6314	57.842161130444	0.02187349957
1	6319	57.864034630014	0.086726724442
1	6325	57.950761354456	0.050787128213
1	6330	58.001548482669	0.019104755365
1	6335	58.020653238034	0.022011071769
1	6340	58.042664309803	0.146403329906
1	6346	58.189067639709	0.121574344192
1	6351	58.310641983901	0.025774119979
1	6356	58.33641610388	0.049992986692
1	6362	58.386409090572	0.011542036388
1	6367	58.39795112696	0.019078177256
1	6372	58.417029304216	0.000851564306
1	6374	58.417880868522	0.068904879893
1	6382	58.486785748415	0.031418046654
1	6388	58.518203795069	0.214112205264
1	6397	58.732316000333	0.025414342802
1	6402	58.757730343135	0.034674411635
1	6408	58.79240475477	0.046567155869
1	6414	58.838971910639	0.018106795902
1	6419	58.857078706541	0.006782271442
1	6421	58.863860977983	0.012294731723
1	6429	58.876155709706	0.090251026608
1	6435	58.966406736314	0.087917440325
1	6440	59.054324176639	0.005434891646
1	6442	59.059759068285	0.029205799006
1	6450	59.088964867291	0.054139682189
1	6455	59.14310454948	0.057498285775
1	6461	59.200602835255	0.009271208333
1	6466	59.209874043588	0.064682477224
1	6471	59.274556520812	0.017223600397
1	6477	59.291780121209	0.031847342524
1	6482	59.323627463733	0.012309187866
1	6487	59.335936651599	0.013514118204
1	6492	59.349450769803	0.071408079041
1	6497	59.420858848844	0.005966734181
1	6499	59.426825583025	0.004763950059
1	6504	59.431589533084	0.028623124869
1	6513	59.460212657953	0.007039745622
1	6515	59.467252403575	0.01718295747
1	6523	59.484435361045	0.043077608623
1	6529	59.527512969668	0.016491079852
1	6534	59.54400404952	0.05940724867
1	6539	59.60341129819	0.099238136193
1	6545	59.702649434383	0.041714747416
1	6550	59.744364181799	0.027259939733
1	6555	59.771624121532	0.11770232307
1	6561	59.889326444602	0.025404175214
1	6566	59.914730619816	0.118860740575
1	6574	60.033591360391	0.068402607471
1	6581	60.101993967862	0.035350617262
1	6588	60.137344585124	0.069597407845
1	6593	60.206941992969	0.008108352513
1	6595	60.215050345482	0.053347543155
1	6603	60.268397888637	0.001645415206
1	6605	60.270043303843	0.036514452202
1	6613	60.306557756045	0.022399095098
1	6618	60.328956851143	0.011247647973
1	6624	60.340204499116	0.171570774449
1	6631	60.511775273565	0.067573168459
1	6636	60.579348442024	0.096745516655
1	6641	60.676093958679	0.026105337224
1	6646	60.702199295903	0.091581473208
1	6651	60.793780769111	0.050134691113
1	6656	60.843915460224	0.027215912207
1	6662	60.871131372431	0.075615989357
1	6667	60.946747361788	0.018417175143
1	6673	60.965164536931	0.067229930945
1	6678	61.032394467876	0.14342075875
1	6683	61.175815226626	0.018282440554
1	6688	61.19409766718	0.040769591196
1	6694	61.234867258376	0.012791244082
1	6699	61.247658502458	0.051459663633
1	6705	61.299118166091	0.057561477092
1	6710	61.356679643183	0.039168052635
1	6716	61.395847695818	0.013156016739
1	6721	61.409003712557	0.067347620839
1	6728	61.476351333396	0.040339826727
1	6733	61.516691160123	0.030935941383
1	6738	61.547627101506	0.090070383645
1	6745	61.637697485151	0.087353578373
1	6750	61.725051063524	0.08963050796
1	6757	61.814681571484	0.028701994583
1	6763	61.843383566067	0.071591493555
1	6769	61.914975059622	0.040355265143
1	6774	61.955330324765	0.01857566913
1	6779	61.973905993895	0.002066789462
1	6781	61.975972783357	0.001966143812
1	6783	61.977938927169	0.021560911366
1	6795	61.999499838535	0.118059788105
1	6800	62.11755962664	0.057549003031
1	6807	62.175108629671	0.074776075452
1	6812	62.249884705123	0.001290313822
1	6814	62.251175018945	0.000992739435
1	6816	62.25216775838	0.009403674859
1	6821	62.261571433239	0.009369673943
1	6826	62.270941107182	0.048657883826
1	6837	62.319598991008	0.075877513022
1	6842	62.39547650403	0.097610638966
1	6847	62.493087142996	0.010769926789
1	6852	62.503857069785	0.012042934371
1	6857	62.515900004156	0.052536123288
1	6862	62.568436127444	0.131809658563
1	6868	62.700245786007	0.016084724723
1	6873	62.71633051073	0.070949408901
1	6878	62.787279919631	0.083905087403
1	6883	62.871185007034	0.001599188603
1	6885	62.872784195637	0.01134262934
1	6890	62.884126824977	0.016750555513
1	6898	62.90087738049	0.040149460602
1	6905	62.941026841092	0.104641634165
1	6911	63.045668475257	0.012783383333
1	6916	63.05845185859	0.006137625727
1	6918	63.064589484317	0.013761295022
1	6926	63.078350779339	0.066322219826
1	6932	63.144672999165	0.046497462513
1	6937	63.191170461678	0.032674178758
1	6943	63.223844640436	0.039108467595
1	6948	63.262953108031	0.060339158647
1	6953	63.323292266678	0.004416865703
1	6955	63.327709132381	0.067500667415
1	6963	63.395209799796	0.159965970795
1	6969	63.555175770591	0.005828893249
1	6971	63.56100466384	0.099307513466
1	6979	63.660312177306	0.023904980652
1	6984	63.684217157958	0.143090345432
1	6989	63.82730750339	0.022788511153
1	6994	63.850096014543	0.102724936023
1	7001	63.952820950566	0.015553390414
1	7006	63.96837434098	0.227418483957
1	7012	64.195792824937	0.028535932929
1	7017	64.224328757866	0.008786846821
1	7022	64.233115604687	0.02986348335
1	7027	64.262979088037	0.015274987745
1	7032	64.278254075782	0.03526769831
1	7038	64.313521774092	0.025110811002
1	7043	64.338632585094	0.116442583251
1	7049	64.455075168345	0.065215097127
1	7056	64.520290265472	0.576507760142
1	7063	65.096798025614	0.081678109944
1	7069	65.178476135558	0.025506155284
1	7074	65.203982290842	0.001956261646
1	7076	65.205938552488	0.054004590912
1	7084	65.2599431434	0.003969054725
1	7086	65.263912198125	0.072040311376
1	7094	65.335952509501	0.003018813162
1	7096	65.338971322663	0.045666972567
1	7104	65.38463829523	0.000338168004
1	7106	65.384976463234	0.023616479543
1	7116	65.408592942777	0.038469018504
1	7121	65.447061961281	0.0232055516
1	7127	65.470267512881	0.059742803498
1	7132	65.530010316379	0.030291100792
1	7137	65.560301417171	0.067415913262
1	7143	65.627717330433	0.111367294653
1	7148	65.739084625086	0.114782814429
1	7155	65.853867439515	0.011514114219
1	7161	65.865381553734	0.064834373319
1	7167	65.930215927053	0.032484777068
1	7172	65.962700704121	0.065224201677
1	7178	66.027924905798	0.005278652312
1	7180	66.03320355811	0.020009722169
1	7188	66.053213280279	0.006399476506
1	7190	66.059612756785	0.077665755275
1	7199	66.13727851206	0.020394582224
1	7204	66.157673094284	0.007316856943
1	7206	66.164989951227	0.097312266105
1	7215	66.262302217332	0.048596037281
1	7222	66.310898254613	0.116166902011
1	7230	66.427065156624	0.071203262917
1	7236	66.498268419541	0.036516875968
1	7242	66.534785295509	0.015284062612
1	7247	66.550069358121	0.023800363461
1	7252	66.573869721582	0.12151812868
1	7257	66.695387850262	0.025201354943
1	7262	66.720589205205	0.00103887287
1	7264	66.721628078075	0.0085868127
1	7269	66.730214890775	0.00689200179
1	7274	66.737106892565	0.000706725821
1	7276	66.737813618386	0.019496888742
1	7284	66.757310507128	0.007282548417
1	7289	66.764593055545	0.172153976227
1	7298	66.936747031772	0.032320912177
1	7304	66.969067943949	0.062932797899
1	7309	67.032000741848	0.083882214388
1	7317	67.115882956236	0.003090811321
1	7319	67.118973767557	0.064419536871
1	7327	67.183393304428	0.00777828465
1	7329	67.191171589078	0.088848138224
1	7337	67.280019727302	0.001213456771
1	7339	67.281233184073	0.039061395923
1	7347	67.320294579996	0.142161916555
1	7353	67.462456496551	0.089050875117
1	7358	67.551507371668	0.179799026269
1	7365	67.731306397937	0.119150884981
1	7373	67.850457282918	0.020770018655
1	7378	67.871227301573	0.010492561707
1	7384	67.88171986328	0.007264104221
1	7386	67.888983967501	0.01339196217
1	7394	67.902375929671	0.062148585577
1	7400	67.964524515248	0.033978012793
1	7405	67.998502528041	0.187087347714
1	7413	68.185589875755	0.062799447894
1	7418	68.248389323649	0.062343566007
1	7424	68.310732889656	0.011526867695
1	7429	68.322259757351	0.100233358777
1	7435	68.422493116128	0.016880535503
1	7440	68.439373651631	0.017978465232
1	7445	68.457352116863	0.081290561885
1	7452	68.538642678748	0.114128347034
1	7458	68.652771025782	0.000460761394
1	7460	68.653231787176	0.048696630951
1	7470	68.701928418127	0.012152477437
1	7475	68.714080895564	0.03755397505
1	7480	68.751634870614	0.068821537803
1	7486	68.820456408417	0.031641840306
1	7491	68.852098248723	0.021225662481
1	7496	68.873323911204	0.008720500972
1	7501	68.882044412176	0.000112127427
1	7503	68.882156539603	0.164237290194
1	7511	69.046393829797	0.003800732017
1	7513	69.050194561814	0.017018171073
1	7521	69.067212732887	0.001370872538
1	7524	69.068583605425	0.046463432356
1	7532	69.115047037781	0.029688829572
1	7539	69.144735867353	0.023633476585
1	7544	69.168369343938	0.000790685756
1	7546	69.169160029694	0.027538496898
1	7554	69.196698526592	0.077314757635
1	7561	69.274013284227	0.009139371396
1	7566	69.283152655623	0.039534397752
1	7572	69.322687053375	0.016231741666
1	7577	69.338918795041	0.104532869057
1	7584	69.443451664098	0.05226993822
1	7589	69.495721602318	0.017408481725
1	7594	69.513130084043	0.026392250703
1	7600	69.539522334746	0.141102058819
1	7605	69.680624393565	0.10995152986
1	7610	69.790575923425	0.060586506965
1	7615	69.85116243039	0.027132905585
1	7620	69.878295335975	0.003617609723
1	7622	69.881912945698	0.077225137082
1	7630	69.95913808278	0.021235913784
1	7635	69.980373996564	0.028761288618
1	7640	70.009135285182	0.159720814332
1	7645	70.168856099514	0.005351985018
1	7647	70.174208084532	0.019823517836
1	7656	70.194031602368	0.026984252409
1	7661	70.221015854777	0.017867219192
1	7666	70.238883073969	0.067769213425
1	7671	70.306652287394	0.057560218524
1	7677	70.364212505918	0.098275046215
1	7683	70.462487552133	0.030696288675
1	7688	70.493183840808	0.085345700763
1	7693	70.578529541571	0.02303562056
1	7698	70.601565162131	0.09791035615
1	7704	70.699475518281	0.011398185503
1	7709	70.710873703784	0.070550308122
1	7714	70.781424011906	0.170171844773
1	7720	70.951595856679	0.022400207797
1	7725	70.973996064476	0.01731596057
1	7731	70.991312025046	0.140979846217
1	7736	71.132291871263	0.055536783976
1	7741	71.187828655239	0.029717015855
1	7746	71.217545671094	0.057944450209
1	7751	71.275490121303	0.045981206943
1	7756	71.321471328246	0.095765984795
1	7761	71.417237313041	0.049925710646
1	7766	71.467163023687	0.012363957233
1	7771	71.47952698092	0.03180161048
1	7776	71.5113285914	0.024445505668
1	7781	71.535774097068	0.04334161938
1	7786	71.579115716448	0.073133523023
1	7791	71.652249239471	0.005920023866
1	7793	71.658169263337	0.059455690961
1	7801	71.717624954298	0.026569077582
1	7806	71.74419403188	0.067393110704
1	7811	71.811587142584	0.058170006977
1	7817	71.869757149561	0.137663416132
1	7822	72.007420565693	0.006784728477
1	7824	72.01420529417	0.001657689436
1	7829	72.015862983606	0.007051957632
1	7834	72.022914941238	0.044714757786
1	7842	72.067629699024	0.082751599373
1	7847	72.150381298397	0.006836276266
1	7850	72.157217574663	0.133163178147
1	7859	72.29038075281	0.018250794719
1	7864	72.308631547529	0.023088276749
1	7869	72.331719824278	0.04979775036
1	7875	72.381517574638	0.074747623066
1	7880	72.456265197704	0.066311554561
1	7885	72.522576752265	0.03020566826
1	7890	72.552782420525	0.125254190559
1	7896	72.678036611084	0.036667594649
1	7901	72.714704205733	0.014086105107
1	7907	72.72879031084	0.092358759474
1	7913	72.821149070314	0.042685132288
1	7918	72.863834202602	0.035749695242
1	7923	72.899583897844	0.062220301766
1	7928	72.96180419961	0.087286248371
1	7934	73.049090447981	0.053716800895
1	7939	73.102807248876	0.116168061232
1	7944	73.218975310108	0.097024479643
1	7950	73.315999789751	0.028618437188
1	7956	73.344618226939	0.042942292976
1	7961	73.387560519915	0.004123091109
1	7963	73.391683611024	0.003703401745
1	7968	73.395387012769	0.007504473663
1	7973	73.402891486432	0.047812992377
1	7981	73.450704478809	0.04841952317
1	7986	73.499124001979	0.007470049599
1	7991	73.506594051578	0.113955092256
1	7997	73.620549143834	0.048938732674
1	8002	73.669487876508	0.010471200115
1	8007	73.679959076623	0.062945159589
1	8013	73.742904236212	0.074724120105
1	8019	73.817628356317	0.047002279012
1	8024	73.864630635329	0.004525205435
1	8026	73.869155840764	0.003758778376
1	8031	73.87291461914	0.071071500944
1	8040	73.943986120084	0.009523980262
1	8045	73.953510100346	0.017405755803
1	8050	73.970915856149	0.050039554276
1	8055	74.020955410425	0.000257547139
1	8057	74.021212957564	0.059313504105
1	8065	74.080526461669	0.029831345123
1	8070	74.110357806792	0.311992511829
1	8077	74.422350318621	0.018311196432
1	8083	74.440661515053	0.022437319234
1	8089	74.463098834287	0.039144105553
1	8094	74.50224293984	0.050549126709
1	8100	74.552792066549	0.017251563819
1	8105	74.570043630368	0.00326652022
1	8107	74.573310150588	0.036966454697
1	8115	74.610276605285	0.012365755054
1	8120	74.622642360339	0.016253947144
1	8125	74.638896307483	0.007199439415
1	8127	74.646095746898	0.004479807308
1	8132	74.650575554206	0.009071879954
1	8137	74.65964743416	0.013991893636
1	8145	74.673639327796	0.039854178191
1	8150	74.713493505987	0.00458163501
1	8152	74.718075140997	0.049781677176
1	8160	74.767856818173	0.06673419675
1	8166	74.834591014923	0.075547088969
1	8171	74.910138103892	0.053166004659
1	8176	74.963304108551	0.051836859783
1	8181	75.015140968334	0.0724220685
1	8186	75.087563036834	0.02115572771
1	8191	75.108718764544	0.081835035372
1	8196	75.190553799916	0.039019661743
1	8202	75.229573461659	0.03084246319
1	8207	75.260415924849	0.13641171191
1	8215	75.396827636759	0.048720628468
1	8221	75.445548265227	0.061022995347
1	8227	75.506571260574	0.02858304328
1	8232	75.535154303854	0.002715764893
1	8234	75.537870068747	0.027222061616
1	8242	75.565092130363	0.0164844118
1	8247	75.581576542163	0.114099454205
1	8254	75.695675996368	0.061058098299
1	8259	75.756734094667	0.112220393623
1	8264	75.86895448829	0.010312228828
1	8269	75.879266717118	0.012351233874
1	8276	75.891617950992	0.004722919323
1	8278	75.896340870315	0.031325654982
1	8287	75.927666525297	0.012373637102
1	8292	75.940040162399	0.035745428493
1	8297	75.975785590892	0.00854714978
1	8302	75.984332740672	0.019983545665
1	8307	76.004316286337	0.153049696067
1	8312	76.157365982404	0.087639606759
1	8317	76.245005589163	0.043446264091
1	8323	76.288451853254	0.048536627474
1	8329	76.336988480728	0.166650871065
1	8336	76.503639351793	0.014211074619
1	8341	76.517850426412	0.095087237286
1	8347	76.612937663698	0.079800416552
1	8353	76.69273808025	0.00602646777
1	8355	76.69876454802	0.049051372284
1	8363	76.747815920304	0.028063055209
1	8368	76.775878975513	0.069511353943
1	8373	76.845390329456	0.038497270929
1	8378	76.883887600385	0.02843354595
1	8383	76.912321146335	0.005027858339
1	8385	76.917349004674	0.030359271981
1	8393	76.947708276655	0.016886953554
1	8398	76.964595230209	0.020635451373
1	8403	76.985230681582	0.0321877817
1	8408	77.017418463282	0.038716906255
1	8413	77.056135369537	0.031254052403
1	8418	77.08738942194	0.002482504285
1	8420	77.089871926225	0.100576420743
1	8428	77.190448346968	0.005099613365
1	8430	77.195547960333	0.022588484867
1	8438	77.2181364452	0.130587627842
1	8444	77.348724073042	0.004991305885
1	8446	77.353715378927	0.080130736119
1	8454	77.433846115046	0.009305406313
1	8459	77.443151521359	0.032220180431
1	8464	77.47537170179	0.005993246277
1	8466	77.481364948067	0.040911753145
1	8474	77.522276701212	0.002322287878
1	8476	77.52459898909	0.020199103031
1	8484	77.544798092121	0.020877241267
1	8489	77.565675333388	0.021936011746
1	8494	77.587611345134	0.001683727541
1	8496	77.589295072675	0.044904933938
1	8504	77.634200006613	0.006478222086
1	8506	77.640678228699	0.017933402351
1	8515	77.65861163105	0.094768599837
1	8521	77.753380230887	0.070273422624
1	8527	77.823653653511	0.025855225769
1	8532	77.84950887928	0.016953877894
1	8538	77.866462757174	0.03600997848
1	8543	77.902472735654	0.0186747043
1	8548	77.921147439954	0.149542019618
1	8554	78.070689459572	0.02273428644
1	8559	78.093423746012	0.003608460362
1	8561	78.097032206374	0.016288156029
1	8569	78.113320362403	0.051822151279
1	8576	78.165142513682	0.017124869255
1	8581	78.182267382937	0.107200611697
1	8586	78.289467994634	0.150125870496
1	8593	78.43959386513	0.172739294806
1	8599	78.612333159936	0.010269494885
1	8604	78.622602654821	0.001819651957
1	8606	78.624422306778	0.051174342692
1	8614	78.67559664947	0.228871074276
1	8622	78.904467723746	0.01908394822
1	8627	78.923551671966	0.064274940512
1	8634	78.987826612478	0.022508491238
1	8639	79.010335103716	0.058811031122
1	8646	79.069146134838	0.070381758978
1	8652	79.139527893816	0.06685221303
1	8658	79.206380106846	0.003135009026
1	8660	79.209515115872	0.064240001974
1	8668	79.273755117846	0.001014751043
1	8670	79.274769868889	0.019662240759
1	8678	79.294432109648	0.009956005382
1	8683	79.30438811503	0.012648145541
1	8688	79.317036260571	0.07521069956
1	8694	79.392246960131	0.003752551255
1	8696	79.395999511386	0.043738615808
1	8704	79.439738127194	0.118855867884
1	8710	79.558593995078	0.022763143303
1	8715	79.581357138381	0.014005376294
1	8720	79.595362514675	0.097808415805
1	8727	79.69317093048	0.069758088377
1	8733	79.762929018857	0.01590725842
1	8738	79.778836277277	0.056438320716
1	8743	79.835274597993	0.045396774454
1	8749	79.880671372447	0.099191407462
1	8755	79.979862779909	0.083894720158
1	8762	80.063757500067	0.007847096108
1	8767	80.071604596175	0.019938339094
1	8772	80.091542935269	0.063272700487
1	8778	80.154815635756	0.016893254479
1	8783	80.171708890235	0.008420730365
1	8788	80.1801296206	0.005875185862
1	8790	80.186004806462	0.050075526006
1	8800	80.236080332468	0.035246790717
1	8806	80.271327123185	0.045091265064
1	8812	80.316418388249	0.025116979748
1	8817	80.341535367997	0.064330903185
1	8822	80.405866271182	0.008308456776
1	8827	80.414174727958	0.109837172353
1	8832	80.524011900311	0.051167478919
1	8837	80.57517937923	0.042231373226
1	8842	80.617410752456	0.011889565158
1	8848	80.629300317614	0.01864423171
1	8853	80.647944549324	8.0029815e-05
1	8855	80.648024579139	0.001198597935
1	8857	80.649223177074	0.068939735079
1	8868	80.718162912153	0.002459439166
1	8870	80.720622351319	0.024527929525
1	8879	80.745150280844	0.001949058927
1	8881	80.747099339771	0.02377217388
1	8889	80.770871513651	0.006592257583
1	8891	80.777463771234	0.114070220178
1	8900	80.891533991412	0.041507658599
1	8907	80.933041650011	0.022557977248
1	8912	80.955599627259	0.001787760876
1	8914	80.957387388135	0.043361257055
1	8922	81.00074864519	0.025369055018
1	8927	81.026117700208	0.013677493781
1	8932	81.039795193989	0.0089460149
1	8937	81.048741208889	0.090673132514
1	8943	81.139414341403	0.007762112879
1	8948	81.147176454282	0.101569061438
1	8953	81.24874551572	0.011822954396
1	8958	81.260568470116	0.010532308504
1	8963	81.27110077862	0.022486428795
1	8968	81.293587207415	0.005822604167
1	8970	81.299409811582	0.019436515279
1	8978	81.318846326861	0.038666340771
1	8983	81.357512667632	0.007980222741
1	8988	81.365492890373	0.007701909878
1	8993	81.373194800251	0.047489906312
1	8998	81.420684706563	0.038077400509
1	9003	81.458762107072	0.079265567187
1	9009	81.538027674259	0.036779491094
1	9014	81.574807165353	0.21147633796
1	9019	81.786283503313	0.048189470888
1	9024	81.834472974201	0.050047020848
1	9029	81.884519995049	0.106159819951
1	9035	81.990679815	0.007759701358
1	9040	81.998439516358	0.071220708573
1	9045	82.069660224931	0.036899347906
1	9050	82.106559572837	0.015224853897
1	9055	82.121784426734	0.01118786486
1	9060	82.132972291594	0.033042733831
1	9066	82.166015025425	0.035614546483
1	9074	82.201629571908	0.03075174019
1	9080	82.232381312098	0.063681248418
1	9085	82.296062560516	0.018064425813
1	9090	82.314126986329	0.006323526111
1	9092	82.32045051244	0.051602079947
1	9100	82.372052592387	0.038489136493
1	9105	82.41054172888	0.082263998749
1	9110	82.492805727629	0.047268777678
1	9115	82.540074505307	0.129825345124
1	9121	82.669899850431	0.010726474732
1	9126	82.680626325163	0.027638457706
1	9131	82.708264782869	0.077943497902
1	9136	82.786208280771	0.029247175798
1	9141	82.815455456569	0.055653112939
1	9147	82.871108569508	0.086085400331
1	9152	82.957193969839	0.018129012041
1	9157	82.97532298188	0.047275841983
1	9162	83.022598823863	0.007112317408
1	9167	83.029711141271	0.013568634321
1	9172	83.043279775592	0.005357210848
1	9174	83.04863698644	0.034382119958
1	9182	83.083019106398	0.062871654608
1	9188	83.145890761006	0.093343144185
1	9194	83.239233905191	0.100474761811
1	9199	83.339708667002	0.063738585075
1	9204	83.403447252077	0.003418999087
1	9206	83.406866251164	0.015255377194
1	9214	83.422121628358	0.010941300141
1	9219	83.433062928499	0.141851501845
1	9224	83.574914430344	0.006457107852
1	9226	83.581371538196	0.032415821143
1	9234	83.613787359339	0.005932236042
1	9236	83.619719595381	0.032953840477
1	9244	83.652673435858	0.043627466173
1	9249	83.696300902031	0.005572926706
1	9251	83.701873828737	0.003931140777
1	9256	83.705804969514	0.029813953583
1	9264	83.735618923097	0.148001152637
1	9270	83.883620075734	0.009194223768
1	9275	83.892814299502	0.022778262005
1	9280	83.915592561507	0.000465480314
1	9282	83.916058041821	0.121066673174
1	9291	84.037124714995	0.074507494452
1	9297	84.111632209447	0.021886410565
1	9303	84.133518620012	0.058910776525
1	9309	84.192429396537	0.029385886709
1	9314	84.221815283246	0.130786780298
1	9319	84.352602063544	0.020272486575
1	9324	84.372874550119	0.103707262135
1	9331	84.476581812254	0.005272402924
1	9333	84.481854215178	0.044287786261
1	9341	84.526142001439	0.023348568931
1	9346	84.54949057037	0.000677763156
1	9348	84.550168333526	0.042998784765
1	9356	84.593167118291	0.015025717975
1	9361	84.608192836266	0.015349029666
1	9366	84.623541865932	0.03902137541
1	9371	84.662563241342	0.210006594613
1	9379	84.872569835955	0.05512281725
1	9384	84.927692653205	0.033101610985
1	9390	84.96079426419	0.038400277122
1	9395	84.999194541312	0.045162569928
1	9400	85.04435711124	0.138071890948
1	9407	85.182429002188	0.055427843981
1	9412	85.237856846169	0.028258487256
1	9417	85.266115333425	0.017431085876
1	9422	85.283546419301	0.019361555964
1	9428	85.302907975265	0.059609826032
1	9434	85.362517801297	0.024905641298
1	9439	85.387423442595	0.030387434552
1	9444	85.417810877147	0.041234070442
1	9449	85.459044947589	0.035683417295
1	9454	85.494728364884	0.172412832489
1	9461	85.667141197373	0.011215418578
1	9466	85.678356615951	0.017516154236
1	9471	85.695872770187	0.006701804942
1	9473	85.702574575129	0.041132276443
1	9481	85.743706851572	0.072687635697
1	9487	85.816394487269	0.022220719387
1	9492	85.838615206656	0.009922843551
1	9497	85.848538050207	0.096959897294
1	9503	85.945497947501	0.107908555359
1	9509	86.05340650286	0.304464720057
1	9515	86.357871222917	0.081755262043
1	9522	86.43962648496	0.030795781552
1	9527	86.470422266512	0.046858697003
1	9532	86.517280963515	0.051006551842
1	9539	86.568287515357	0.014507910182
1	9544	86.582795425539	0.008823732487
1	9549	86.591619158026	0.03652635613
1	9554	86.628145514156	0.372575633802
1	9561	87.000721147958	0.036698479007
1	9566	87.037419626965	0.00339587892
1	9568	87.040815505885	0.005563236447
1	9573	87.046378742332	0.00984190044
1	9578	87.056220642772	0.008580179675
1	9583	87.064800822447	0.050493804383
1	9592	87.11529462683	0.054064381165
1	9598	87.169359007995	0.060504824365
1	9603	87.22986383236	0.012354470418
1	9608	87.242218302778	0.019781850625
1	9613	87.262000153403	0.017715751249
1	9619	87.279715904652	0.007404792574
1	9621	87.287120697226	0.044443381506
1	9631	87.331564078732	0.036593557865
1	9637	87.368157636597	0.003354381762
1	9639	87.371512018359	0.00054177157
1	9641	87.372053789929	0.008580603633
1	9646	87.380634393562	0.16889412139
1	9658	87.549528514952	0.002259350091
1	9660	87.551787865043	0.077868036089
1	9668	87.629655901132	0.150626650511
1	9676	87.780282551643	0.033335804778
1	9681	87.813618356421	0.169008623506
1	9687	87.982626979927	0.014529861596
1	9692	87.997156841523	0.041354689302
1	9697	88.038511530825	0.000210538702
1	9699	88.038722069527	0.021115825077
1	9707	88.059837894604	0.024168576416
1	9712	88.08400647102	0.050963156349
1	9719	88.134969627369	0.098876845714
1	9725	88.233846473083	0.106227587689
1	9730	88.340074060772	0.024612574672
1	9735	88.364686635444	0.022601444389
1	9740	88.387288079833	0.030211123898
1	9745	88.417499203731	0.015027648831
1	9750	88.432526852562	0.03325726421
1	9756	88.465784116772	0.037078383054
1	9761	88.502862499826	0.044639991243
1	9766	88.547502491069	0.045273369867
1	9772	88.592775860936	0.052140956004
1	9777	88.64491681694	0.007829494767
1	9782	88.652746311707	0.097615132684
1	9787	88.750361444391	0.023955781229
1	9792	88.77431722562	0.065913873749
1	9797	88.840231099369	0.003235538999
1	9799	88.843466638368	0.118471663483
1	9808	88.961938301851	0.011732405406
1	9813	88.973670707257	0.052281499673
1	9818	89.02595220693	0.062147927701
1	9824	89.088100134631	0.023137968116
1	9829	89.111238102747	0.054530853592
1	9836	89.165768956339	0.020423989702
1	9841	89.186192946041	0.024048826154
1	9846	89.210241772195	0.01480763472
1	9852	89.225049406915	0.000566563892
1	9854	89.225615970807	0.142014987236
1	9862	89.367630958043	0.038719598045
1	9867	89.406350556088	0.012270277694
1	9872	89.418620833782	0.061234961869
1	9877	89.479855795651	0.042701815201
1	9883	89.522557610852	0.00709910205
1	9885	89.529656712902	0.02980091929
1	9893	89.559457632192	0.063903080181
1	9898	89.623360712373	0.091269530063
1	9903	89.714630242436	0.058377663114
1	9908	89.77300790555	0.043563163472
1	9913	89.816571069022	0.028237203282
1	9918	89.844808272304	0.091971878747
1	9923	89.936780151051	0.069935342359
1	9928	90.00671549341	0.259639434992
1	9938	90.266354928402	0.009800689364
1	9943	90.276155617766	0.011106662381
1	9948	90.287262280147	0.094638801675
1	9956	90.381901081822	0.013720448031
1	9961	90.395621529853	0.119576963152
1	9966	90.515198493005	0.007302537075
1	9968	90.52250103008	0.024540254825
1	9976	90.547041284905	0.060160451284
1	9981	90.607201736189	0.000731327362
1	9983	90.607933063551	0.011004474254
1	9988	90.618937537805	0.004032800102
1	9993	90.622970337907	0.013148013591
1	9999	90.636118351498	0.145237097486
1	10008	90.781355448984	0.002429263244
1	10010	90.783784712228	0.04553804274
1	10019	90.829322754968	0.003714924035
1	10021	90.833037679003	0.088286262008
1	10029	90.921323941011	0.007175013702
1	10031	90.928498954713	0.062563255531
1	10039	90.991062210244	0.042075567397
1	10044	91.033137777641	0.041289667273
1	10051	91.074427444914	0.04965096901
1	10056	91.124078413924	0.040584295296
1	10061	91.16466270922	0.038469895434
1	10066	91.203132604654	0.080835005366
1	10073	91.28396761002	0.01676286439
1	10078	91.30073047441	0.024055208148
1	10083	91.324785682558	0.079570267816
1	10088	91.404355950374	0.006110673291
1	10090	91.410466623665	0.011269302222
1	10098	91.421735925887	0.007656191859
1	10100	91.429392117746	0.008085218918
1	10108	91.437477336664	0.016988490129
1	10113	91.454465826793	0.069315596115
1	10118	91.523781422908	0.190752690928
1	10124	91.714534113836	0.007796606921
1	10129	91.722330720757	0.070689854622
1	10134	91.793020575379	0.065116026791
1	10140	91.85813660217	0.05071415037
1	10145	91.90885075254	0.003037963664
1	10147	91.911888716204	0.054012842453
1	10155	91.965901558657	0.015422363487
1	10160	91.981323922144	0.064700271176
1	10165	92.04602419332	0.031318214177
1	10170	92.077342407497	0.110956837581
1	10177	92.188299245078	0.021846127711
1	10182	92.210145372789	0.107509848661
1	10188	92.31765522145	0.030609466151
1	10194	92.348264687601	0.04667083162
1	10200	92.394935519221	0.018290935703
1	10205	92.413226454924	0.036826619404
1	10211	92.450053074328	0.044183899622
1	10216	92.49423697395	0.049653677181
1	10221	92.543890651131	0.005313445217
1	10223	92.549204096348	0.019927464214
1	10231	92.569131560562	0.115667278762
1	10237	92.684798839324	0.013207806753
1	10242	92.698006646077	0.042779269966
1	10247	92.740785916043	0.03845731962
1	10252	92.779243235663	0.020646777356
1	10258	92.799890013019	0.098540884255
1	10263	92.898430897274	0.026728942462
1	10268	92.925159839736	0.059034535075
1	10274	92.984194374811	0.071223132921
1	10281	93.055417507732	0.003970864292
1	10284	93.059388372024	0.132355426883
1	10292	93.191743798907	0.057444614024
1	10297	93.249188412931	0.016951210663
1	10302	93.266139623594	0.073430345486
1	10308	93.33956996908	0.004407994936
1	10310	93.343977964016	0.134798867429
1	10320	93.478776831445	0.016921954316
1	10325	93.495698785761	0.003338490914
1	10327	93.499037276675	0.094839929093
1	10337	93.593877205768	0.222280391358
1	10343	93.816157597126	0.078878529851
1	10350	93.895036126977	0.048198392466
1	10355	93.943234519443	0.029799318218
1	10360	93.973033837661	0.047327125734
1	10365	94.020360963395	0.003920370099
1	10367	94.024281333494	0.058131182219
1	10376	94.082412515713	0.061188545545
1	10381	94.143601061258	0.020733036047
1	10386	94.164334097305	0.028728707662
1	10391	94.193062804967	0.024788828361
1	10396	94.217851633328	0.005917532271
1	10398	94.223769165599	0.024786345811
1	10407	94.24855551141	0.008419003184
1	10412	94.256974514594	0.002175858112
1	10414	94.259150372706	0.023214734013
1	10422	94.282365106719	0.065541998028
1	10428	94.347907104747	0.02594025584
1	10433	94.373847360587	0.026257777753
1	10438	94.40010513834	0.161500046089
1	10444	94.561605184429	0.070422946408
1	10449	94.632028130837	0.120586452453
1	10455	94.75261458329	0.043989467492
1	10460	94.796604050782	0.00344960588
1	10462	94.800053656662	0.280058523372
1	10473	95.080112180034	0.000253507389
1	10475	95.080365687423	0.004514573153
1	10477	95.084880260576	0.115070424866
1	10488	95.199950685442	0.004214126032
1	10490	95.204164811474	0.027952664719
1	10498	95.232117476193	0.022544592677
1	10503	95.25466206887	0.098310741524
1	10508	95.352972810394	0.032264509013
1	10513	95.385237319407	0.036707516858
1	10518	95.421944836265	0.058076790475
1	10524	95.48002162674	0.103331154525
1	10529	95.583352781265	0.00064089523
1	10531	95.583993676495	0.007755459244
1	10536	95.591749135739	0.078965422344
1	10545	95.670714558083	0.033869622443
1	10551	95.704584180526	0.004040492279
1	10553	95.708624672805	0.047866132252
1	10562	95.756490805057	0.00986504971
1	10567	95.766355854767	0.087020439187
1	10572	95.853376293954	0.016346779939
1	10577	95.869723073893	0.063012786626
1	10582	95.932735860519	0.013572683208
1	10587	95.946308543727	0.009323560095
1	10592	95.955632103822	0.097963927598
1	10597	96.05359603142	0.118029637991
1	10602	96.171625669411	0.037655739318
1	10608	96.209281408729	0.016724443256
1	10614	96.226005851985	0.084983434103
1	10619	96.310989286088	0.133893905661
1	10625	96.444883191749	0.056116330842
1	10630	96.500999522591	0.010871285826
1	10635	96.511870808417	0.012010315774
1	10640	96.523881124191	0.036727727463
1	10646	96.560608851654	0.007694545316
1	10648	96.56830339697	0.028624421823
1	10656	96.596927818793	0.014957879801
1	10661	96.611885698594	0.013077747142
1	10666	96.624963445736	0.030308975905
1	10671	96.655272421641	0.045960922286
1	10677	96.701233343927	0.014616237423
1	10682	96.71584958135	0.061446988574
1	10687	96.777296569924	0.002330666743
1	10689	96.779627236667	0.061221321185
1	10697	96.840848557852	0.024295798611
1	10702	96.865144356463	0.000601623771
1	10704	96.865745980234	0.035412443795
1	10712	96.901158424029	0.041855232106
1	10718	96.943013656135	0.009708671146
1	10723	96.952722327281	0.033018810415
1	10728	96.985741137696	0.080551265486
1	10734	97.066292403182	0.042547257283
1	10740	97.108839660465	0.013433229176
1	10745	97.122272889641	0.018755772497
1	10750	97.141028662138	0.005334571982
1	10752	97.14636323412	0.001475866232
1	10754	97.147839100352	0.113588617701
1	10766	97.261427718053	0.106972930032
1	10771	97.368400648085	0.095987143907
1	10777	97.464387791992	0.041541357921
1	10782	97.505929149913	0.090089990647
1	10788	97.59601914056	0.006024168897
1	10790	97.602043309457	0.006509492486
1	10795	97.608552801943	0.047662107753
1	10804	97.656214909696	0.02232492937
1	10809	97.678539839066	0.025114844636
1	10814	97.703654683702	0.025253856063
1	10820	97.728908539765	0.014677227212
1	10825	97.743585766977	0.105967381134
1	10831	97.849553148111	0.019632198381
1	10837	97.869185346492	0.011779055154
1	10843	97.880964401646	0.038014296204
1	10848	97.91897869785	0.075152559265
1	10854	97.994131257115	0.00947720199
1	10859	98.003608459105	0.037671084719
1	10864	98.041279543824	0.04130161944
1	10869	98.082581163264	0.017612655787
1	10874	98.100193819051	0.06059807859
[...]
19	28849	261.177750714254	0.039364693035307
19	28857	261.217115407289	0.47172139499624
19	28920	261.688836802285	0.45476279766224
19	28963	262.143599599947	2.7968866088
19	29234	264.940486208747	0.15522361377226
19	29246	265.095709822519	0.98036195493053
19	29370	266.07607177745	2.8408478509257
19	29571	268.916919628376	0.60847338420323
19	29652	269.525393012579	0.14654564767998
19	29664	269.671938660259	0.57984817184364
19	29722	270.251786832103	4.923560226772
19	30224	275.175347058875	2.6829932620142
19	30480	277.858340320889	1.4611733723004
19	30639	279.319513693189	1.5671428663612
19	30864	280.88665655955	1.0940133762568
19	30989	281.980669935807	0.06860313509907
19	30999	282.049273070906	1.2466420751501
19	31119	283.295915146056	1.0590901783521
19	31238	284.355005324408	2.3802910604381
19	31452	286.735296384846	1.5283334127386
19	31680	288.263629797585	2.2384297697812
19	31937	290.502059567366	17.713294286587
19	33796	308.215353853953	0.86834660584152
19	33906	309.083700459795	4.6949790979041
19	34361	313.778679557699	0.45651452845545
19	34428	314.235194086154	1.2359655946123
19	34578	315.471159680766	7.9205261228961
19	35450	323.391685803662	1.2949358886453
19	35603	324.686621692307	1.0273545393105
19	35711	325.713976231618	3.251285120002
19	35983	328.96526135162	2.8985594144223
19	36232	331.863820766042	0.37863206188027
19	36259	332.242452827922	0.027524215440151
19	36260	332.269977043362	1.3743444958314
19	36414	333.644321539193	0.40311686536416
19	36475	334.047438404557	0.33075497384949
19	36508	334.378193378406	0.7744377613454
19	36558	335.152631139751	0.67761362227358
19	36619	335.830244762025	1.7115877297737
19	36771	337.541832491799	1.3929208134011
19	36922	338.9347533052	1.0951508662033
19	37045	340.029904171403	3.2980475359843
19	37477	343.327951707387	1.7336035294069
19	37681	345.061555236794	0.94461361219343
19	37744	346.006168848987	0.68118902497798
19	37814	346.687357873965	0.13584866661144
19	37830	346.823206540576	2.4993589924078
19	38110	349.322565532984	0.27646764625104
19	38130	349.599033179235	2.8263671101204
19	38483	352.425400289355	6.5444882285854
19	39189	358.96988851794	3.6584908498137
19	39532	362.628379367754	0.58113823845347
19	39580	363.209517606207	0.5654882481008
19	39635	363.775005854308	2.1951946522063
19	39873	365.970200506514	0.065388620112943
19	39884	366.035589126627	0.33580651995348
19	39931	366.37139564658	3.8667490189451
19	40263	370.238144665525	0.29207545698997
19	40291	370.530220122515	1.0599612470441
19	40400	371.590181369559	1.3658548391339
19	40592	372.956036208693	1.8525883977019
19	40814	374.808624606395	3.8863432620982
19	41264	378.694967868493	2.1078490262784
19	41513	380.802816894771	2.2459626130697
19	41732	383.048779507841	2.963910116017
19	42030	386.012689623858	0.57739776078928
19	42097	386.590087384647	9.8610633326273
19	43168	396.451150717274	0.44841756561373
19	43207	396.899568282888	1.9536863121491
19	43475	398.853254595037	0.43095384085747
19	43495	399.284208435894	6.8452987612007
20	1768	15.82886516518	1.229133351783
20	1945	17.057998516963	1.5286602659375
20	2097	18.586658782901	1.2998846009975
20	2260	19.886543383898	0.299211662476
20	2307	20.185755046374	0.18642655639753
20	2335	20.372181602772	1.8763262585291
20	2579	22.248507861301	0.34323626804483
20	2618	22.591744129346	2.8053750151572
20	2953	25.397119144503	1.046289276003
20	3033	26.443408420506	0.02321115067839
20	3034	26.466619571184	3.7915490708308
20	3512	30.258168642015	1.3583723455566
20	3674	31.616540987572	3.2783865574287
20	3980	34.894927545001	0.82542358570494
20	4044	35.720351130706	0.89745682474793
20	4118	36.617807955454	0.79149377353974
20	4161	37.409301728994	2.1956519800594
20	4365	39.604953709053	2.9207818160336
20	4677	42.525735525087	0.44726505856324
20	4713	42.97300058365	0.56572618048091
20	4765	43.538726764131	2.4327432393621
20	5059	45.971470003493	2.0134002437483
20	5243	47.984870247241	0.063498332518439
20	5264	48.048368579759	0.39957852484558
20	5293	48.447947104605	1.0246089325346
20	5435	49.47255603714	0.44983237055711
20	5468	49.922388407697	2.9351315951294
20	5708	52.857520002826	0.20644567533795
20	5731	53.063965678164	0.7472373853822
20	5826	53.811203063546	2.4505866641234
20	6104	56.261789727669	0.060298564697229
20	6125	56.322088292366	0.21637855693499
20	6133	56.538466849301	1.8355318480482
20	6361	58.373998697349	1.483482690247
20	6560	59.857481387596	4.6046700053813
20	7052	64.462151392977	1.8807164240324
20	7227	66.342867817009	1.7703928390201
20	7410	68.113260656029	0.23311579525629
20	7434	68.346376451285	0.78034832431254
20	7538	69.126724775598	0.14673266606954
20	7560	69.273457441668	1.5481626793252
20	7719	70.821620120993	3.634674470784
20	8088	74.456294591777	0.93233930453169
20	8214	75.388633896309	1.8764537861877
20	8443	77.265087682497	1.6318451011927
20	8621	78.89693278369	1.3958873678397
20	8811	80.29282015153	1.9372733738866
20	9079	82.230093525417	6.828303173508
20	9823	89.058396698925	0.42651839061251
20	9879	89.484915089538	1.7606768809667
20	10072	91.245591970505	1.1207065543703
20	10199	92.366298524875	2.5213854649827
20	10470	94.887683989858	1.4266034736553
20	10621	96.314287463513	0.93357172402624
20	10765	97.247859187539	0.29578863898586
20	10787	97.543647826525	2.1573944341891
20	11058	99.701042260714	4.0826094871316
20	11448	103.783651747846	0.29522595900429
20	11485	104.07887770685	1.2928376736261
20	11644	105.371715380476	0.087289307148504
20	11651	105.459004687625	3.9336443088168
20	12078	109.392648996442	0.45938976522617
20	12136	109.852038761668	6.0544006755692
20	12815	115.906439437237	1.5933886720811
20	13017	117.499828109318	0.5712501284063
20	13072	118.071078237724	0.20385570739366
20	13102	118.274933945118	2.1141742989155
20	13323	120.389108244033	7.0134455702434
20	14251	127.402553814276	1.4218311735738
20	14402	128.82438498785	0.73881721453623
20	14447	129.563202202386	4.4031427193268
20	14982	133.966344921713	0.95637956854657
20	15117	134.92272449026	1.3677547606074
20	15277	136.290479250867	0.53475179464123
20	15393	136.825231045508	1.4054590831358
20	15528	138.230690128644	1.8351974188595
20	15672	140.065887547503	1.5491822025694
20	15835	141.615069750072	0.50488456559517
20	15911	142.119954315667	1.7769042592809
20	16122	143.896858574948	6.4496092874098
20	16898	150.346467862358	1.772105379765
20	17045	152.118573242123	1.8021213359758
20	17290	153.920694578099	3.048357464826
20	17564	156.969052042925	7.9991215064657
20	18325	164.968173549391	1.5364526500958
20	18458	166.504626199487	3.1544531770404
20	18873	169.659079376527	0.42234053812336
20	18904	170.08141991465	7.0948788885865
20	19712	177.176298803237	3.2804196041087
20	20115	180.456718407346	1.7180846864622
20	20309	182.174803093808	1.5119788233666
20	20485	183.686781917175	1.2381259327894
20	20607	184.924907849964	0.029536092549567
20	20609	184.954443942514	0.015337468680939
20	20615	184.969781411195	1.772535034315
20	20815	186.74231644551	0.035822631564599
20	20816	186.778139077075	4.4690587272464
20	21262	191.247197804321	0.095659925118248
20	21269	191.342857729439	0.87551040676673
20	21352	192.218368136206	1.2097496848646
20	21467	193.428117821071	0.61169949344577
20	21513	194.039817314517	3.3202697603947
20	21834	197.360087074912	0.60485016331337
20	21895	197.964937238225	0.20489781481352
20	21920	198.169835053039	0.083488428276935
20	21927	198.253323481316	0.34071230318368
20	21972	198.5940357845	2.2174056656794
20	22174	200.811441450179	1.091261412287
20	22280	201.902702862466	0.031899181810599
20	22281	201.934602044277	6.9359515631132
20	23073	208.87055360739	4.1384530435777
20	23494	213.009006650968	0.17942506868016
20	23515	213.188431719648	0.31057217665977
20	23543	213.499003896308	1.6444259835872
20	23741	215.143429879895	6.2930343464797
20	24386	221.436464226375	2.8070482756605
20	24668	224.243512502035	3.0231763360806
20	25010	227.266688838116	2.9750085446962
20	25298	230.241697382812	0.41915056418748
20	25376	230.660847946999	1.0404651598795
20	25509	231.701313106878	2.9668794569518
20	25895	234.66819256383	0.052552325119055
20	25906	234.720744888949	0.39712308715132
20	25977	235.1178679761	6.6496053691228
20	26768	241.767473345223	0.71627091873789
20	26855	242.483744263961	0.93650242133322
20	26968	243.420246685294	0.31953623890799
20	26993	243.739782924202	0.35499268171308
20	27043	244.094775605915	0.6712388226914
20	27142	244.766014428606	0.11821501554016
20	27158	244.884229444146	0.23120497466506
20	27217	245.115434418811	3.0752991690041
20	27538	248.190733587815	3.3458011152325
20	27874	251.536534703047	2.5193298637243
20	28135	254.055864566771	8.3550433777946
20	28994	262.410907944566	0.61936037222029
20	29059	263.030268316786	0.89680641696875
20	29160	263.927074733755	3.0498026837946
20	29430	266.97687741755	2.6922859398199
20	29660	269.66916335737	0.24431508621639
20	29687	269.913478443586	2.2157598382368
20	29889	272.129238281823	1.9259865353997
20	30098	274.055224817223	2.688327092233
20	30377	276.743551909456	1.3568213106065
20	30512	278.100373220063	1.2528737620592
20	30642	279.353246982122	1.5137737292483
20	30863	280.86702071137	1.2213954731519
20	31003	282.088416184522	3.8162847465721
20	31377	285.904700931094	1.7924622522118
20	31609	287.697163183306	0.73335877073137
20	31701	288.430521954037	1.2971122723391
20	31837	289.727634226376	1.6284272282153
20	32016	291.356061454591	2.3713068714846
20	32223	293.727368326076	1.1814937777186
20	32324	294.908862103795	2.1359175630296
20	32565	297.044779666825	0.17942400461036
20	32581	297.224203671435	0.1416057524212
20	32587	297.365809423856	0.77048956123227
20	32626	298.136298985088	5.3922231748144
20	33288	303.528522159902	1.3919407483538
20	33484	304.920462908256	0.076901519919842
20	33502	304.997364428176	0.61591919164882
20	33528	305.613283619825	0.079045649647421
20	33534	305.692329269472	1.8584341206095
20	33732	307.550763390082	1.0523616959854
20	33859	308.603125086067	1.9620493048025
20	34038	310.565174390869	0.74787030621864
20	34091	311.313044697088	0.73973439916258
20	34145	312.052779096251	0.8911999089496
20	34274	312.943979005201	0.66170044646971
20	34333	313.605679451671	1.4777970502489
20	34523	315.08347650192	0.69441089922174
20	34601	315.777887401142	5.7850008473087
20	35245	321.562888248451	0.58834314148485
20	35295	322.151231389936	10.529895148809
20	36293	332.681126538745	1.9677924501043
20	36534	334.648918988849	0.16791171257618
20	36535	334.816830701425	1.0565464728265
20	36630	335.873377174251	1.4985987894374
20	36754	337.371975963688	1.0976976651899
20	36836	338.469673628878	0.29139886254756
20	36895	338.761072491426	2.9127000690115
20	37243	341.673772560437	3.9176659065492
20	37719	345.591438466986	7.4950779016353
20	38569	353.086516368621	2.5050216253761
20	38759	355.591537993997	1.222616676632
20	38921	356.814154670629	4.9035999961589
20	39439	361.717754666788	3.8544194562085
20	39846	365.572174122997	0.060596170253657
20	39847	365.632770293251	4.4043039181485
20	40248	370.037074211399	1.6788250396561
20	40409	371.715899251055	4.6423901598224
20	40954	376.358289410877	0.76908476520017
20	41055	377.127374176077	0.15364284828698
20	41081	377.281017024364	2.7740601365044
20	41419	380.055077160868	0.28888789637284
20	41463	380.343965057241	2.3310867512724
20	41703	382.675051808513	2.1156615804289
20	41885	384.790713388942	1.6196509931486
20	42074	386.410364382091	4.4980073847568
20	42567	390.908371766848	0.32874460602139
20	42588	391.237116372869	1.9242336487971
20	42826	393.161350021666	4.0012765594783
20	43235	397.162626581144	0.094462458240134
20	43243	397.257089039384	0.1724301000807
20	43271	397.429519139465	14.264176763017
21	1921	16.744956236621	0.81774721637518
21	1987	17.562703452996	2.1293727292485
21	2239	19.692076182244	0.56852474137726
21	2316	20.260600923621	2.027496832605
21	2585	22.288097756226	0.29952991221225
21	2617	22.587627668438	3.6635748596768
21	3012	26.251202528115	3.1229731752457
21	3426	29.374175703361	3.8274840199272
21	3817	33.201659723288	4.9571144164823
21	4216	38.15877413977	4.8466137877344
21	4714	43.005387927504	0.90197322756421
21	4794	43.907361155068	5.1727641600755
21	5374	49.080125315143	0.89604177566772
21	5470	49.976167090811	2.030723680851
21	5630	52.006890771662	6.4941127295049
21	6387	58.501003501167	1.5027748600717
21	6571	60.003778361239	0.94678073808531
21	6669	60.950559099324	0.80134996558676
21	6755	61.751909064911	3.8334179564853
21	7142	65.585327021396	2.5919564683368
21	7412	68.177283489733	1.1961319444362
21	7582	69.373415434169	4.3131582196057
21	8009	73.686573653775	0.8189416273308
21	8096	74.505515281106	1.9795376424528
21	8335	76.485052923559	4.1340261055445
21	8844	80.619079029103	2.489028605051
21	9187	83.108107634154	4.1883263194806
21	9629	87.296433953635	14.576125795667
21	11289	101.872559749302	0.19770600178638
21	11291	102.070265751088	0.34989413867704
21	11318	102.420159889765	0.94957926427622
21	11391	103.369739154041	0.16018873440196
21	11416	103.529927888443	0.37551854965863
21	11473	103.905446438102	3.982348133153
21	11918	107.887794571255	1.9447348203603
21	12132	109.832529391615	1.1367526544765
21	12269	110.969282046092	0.33798659180112
21	12304	111.307268637893	0.62134579899199
21	12397	111.928614436885	0.36986261025212
21	12420	112.298477047137	0.22935032446565
21	12447	112.527827371603	0.41536639157019
21	12488	112.943193763173	3.9276825117069
21	12904	116.87087627488	0.18520392874906
21	12940	117.056080203629	3.2991167323217
21	13321	120.355196935951	1.666683218285
21	13569	122.021880154236	0.60274913088276
21	13610	122.624629285119	1.3025860200668
21	13762	123.927215305186	3.308100968157
21	14224	127.235316273343	3.426714155961
21	14569	130.662030429304	3.3682740990345
21	14989	134.030304528338	0.048295813397146
21	14990	134.078600341735	0.74478364110746
21	15103	134.823383982842	1.3741440423536
21	15266	136.197528025196	1.6263110770704
21	15490	137.823839102266	1.737992794552
21	15648	139.561831896818	0.25788364874614
21	15653	139.819715545564	7.5169995876996
21	16569	147.336715133264	1.9704950914413
21	16772	149.307210224705	0.64959707892075
21	16850	149.956807303626	2.4666139073572
21	17098	152.423421210983	0.13952799892391
21	17120	152.562949209907	1.2550983960457
21	17278	153.818047605953	0.072076103386288
21	17286	153.890123709339	3.7713636122959
21	17625	157.661487321635	2.1329952715575
21	17872	159.794482593193	0.46742006865904
21	17912	160.261902661852	0.16316330691405
21	17925	160.425065968766	3.0551784474593
21	18195	163.480244416225	1.1206796598976
21	18295	164.600924076123	5.0330803894276
21	18872	169.634004465551	2.5407939961759
21	19150	172.174798461727	0.27540600574997
21	19193	172.450204467477	1.2162520690758
21	19315	173.666456536553	0.84740679604222
21	19431	174.513863332595	1.2789209196713
21	19574	175.792784252266	0.6937810510451
21	19657	176.486565303311	1.0932115482988
21	19773	177.57977685161	0.14238365298865
21	19790	177.722160504599	0.92929924219161
21	19886	178.651459746791	1.2426187030761
21	20041	179.894078449867	3.7764359788226
21	20478	183.67051442869	0.83487444247653
21	20565	184.505388871167	0.44511022276465
21	20608	184.950499093932	0.11061385160515
21	20627	185.061112945537	3.1184622637981
21	20939	188.179575209335	3.9180852747842
21	21328	192.097660484119	1.3623541565053
21	21468	193.460014640624	2.9121046454437
21	21726	196.372119286068	0.18401036020924
21	21749	196.556129646277	3.385452970277
21	22095	199.941582616554	1.0084396436078
21	22186	200.950022260162	0.33118475643068
21	22225	201.281207016593	2.0236368317151
21	22466	203.304843848308	1.011959778897
21	22575	204.316803627205	4.9204347083305
21	23122	209.237238335536	0.14635486561327
21	23145	209.383593201149	0.053874715067615
21	23158	209.437467916217	0.68784585408031
21	23213	210.125313770297	2.1873150829618
21	23392	212.312628853259	0.64919637954421
21	23488	212.961825232803	0.53680509724708
21	23542	213.49863033005	3.8906453370398
21	23930	217.38927566709	2.1702514160001
21	24178	219.55952708309	3.2308756970939
21	24519	222.790402780184	1.408519310299
21	24662	224.198922090483	5.6955413222696
21	25263	229.894463412753	0.92983958671492
21	25408	230.824302999468	1.0546042728714
21	25522	231.878907272339	0.011443943139024
21	25528	231.890351215478	1.2661335989767
21	25685	233.156484814455	3.5780945419591
21	26121	236.734579356414	0.17157718042781
21	26135	236.906156536842	2.7521676779637
21	26501	239.658324214806	0.29112114720877
21	26530	239.949445362015	0.43101714502979
21	26592	240.380462507045	0.15072967214911
21	26604	240.531192179194	1.2760372838425
21	26769	241.807229463037	0.44240329279647
21	26819	242.249632755833	1.1113561091893
21	26962	243.360988865022	7.4788556277303
21	27788	250.839844492752	0.34030280538614
21	27828	251.180147298138	2.9134539081368
21	28136	254.093601206275	4.8799864167211
21	28619	258.973587622996	1.7129002744322
21	28804	260.686487897428	0.44238726219903
21	28843	261.128875159627	0.078856591232511
21	28856	261.20773175086	0.082649921516735
21	28865	261.290381672377	1.1870782964082
21	29005	262.477459968785	0.048640307156201
21	29006	262.526100275941	0.85315378980675
21	29094	263.379254065748	0.70713749078494
21	29163	264.086391556533	2.5605679495942
21	29405	266.646959506127	2.2053083739751
21	29570	268.852267880102	0.40147262634168
21	29635	269.253740506444	0.15456987847291
21	29641	269.408310384917	7.38036770493
21	30383	276.788678089847	4.4420788203922
21	30912	281.230756910239	2.0796840061068
21	31120	283.310440916346	0.3186778920697
21	31167	283.629118808416	1.0534752470749
21	31274	284.682594055491	0.70200363656137
21	31331	285.384597692052	0.23127517720479
21	31345	285.615872869257	0.36623095003881
21	31388	285.982103819296	1.7139900996472
21	31607	287.696093918943	1.3041407621633
21	31789	289.000234681106	0.50036309077821
21	31834	289.500597771884	0.57704131549007
21	31882	290.077639087374	0.16001044613864
21	31908	290.237649533513	1.0108122447798
21	32010	291.248461778293	0.89040622525833
21	32086	292.138868003551	4.3132114903423
21	32466	296.452079493893	2.8933139421796
21	32765	299.345393436073	0.79318370973738
21	32852	300.13857714581	2.1812768868223
21	33140	302.319854032632	2.3125705092882
21	33465	304.63242454192	7.2521503911683
21	34131	311.884574933088	0.42464479070638
21	34173	312.309219723794	4.4694035575413
21	34707	316.778623281335	1.1434538112205
21	34793	317.922077092555	1.0699618330941
21	34921	318.992038925649	4.4970157329547
21	35453	323.489054658604	4.490021776543
21	35871	327.979076435147	1.5098209524538
21	36029	329.488897387601	0.31715679409706
21	36047	329.806054181698	0.058990287174966
21	36058	329.865044468873	0.70898013593699
21	36138	330.57402460481	0.5966892767724
21	36167	331.170713881582	0.4874115616407
21	36216	331.658125443223	1.5456211717763
21	36340	333.203746614999	2.6169000683746
21	36618	335.820646683374	1.4023326218467
21	36737	337.222979305221	0.2716531720896
21	36770	337.494632477311	1.1582702451045
21	36868	338.652902722416	0.64201953154066
21	36940	339.294922253957	2.1837948641923
21	37215	341.478717118149	1.5079645729219
21	37424	342.986681691071	2.5914421356857
21	37718	345.578123826757	2.6146350008034
21	37990	348.19275882756	1.3266221535838
21	38120	349.519380981144	0.43102641805692
21	38182	349.950407399201	2.250334717624
21	38456	352.200742116825	6.051165641373
21	39092	358.251907758198	0.53501307922988
21	39157	358.786920837428	1.6402311474819
21	39300	360.42715198491	2.7089823947442
21	39577	363.136134379654	5.557369542189
21	40113	368.693503921843	0.10644284842389
21	40149	368.799946770267	1.0498264802935
21	40247	369.849773250561	1.4638020507852
21	40391	371.313575301346	0.4556340314423
21	40410	371.769209332788	2.9166468952489
21	40798	374.685856228037	4.471155718611
21	41325	379.157011946648	1.0765604186335
21	41452	380.233572365281	4.9516728248409
21	41925	385.185245190122	3.2044478078585
21	42292	388.389692997981	4.0337275082232
21	42741	392.423420506204	5.9869065046593
21	43402	398.410327010863	0.54423326694768
21	43482	398.954560277811	1.001944070054
21	43549	399.956504347865	2.7261884190463

