version 2
run Nonmonitoring-exponential-527-20210224-17:49:33-27059
attr configname Nonmonitoring-exponential
attr datetime 20210224-17:49:33
attr experiment Nonmonitoring-exponential
attr inifile aerocom.ini
attr iterationvars $0=50
attr iterationvarsf 50-
attr measurement $0=50
attr network Aerocom
attr processid 27059
attr repetition 27
attr replication #27
attr resultdir results
attr runnumber 527
attr seedset 27
param **.t 2s
param **.k 50ms
param **.X 0.05s
param **.m 1s
param **.tDistribution "\"exponential\""
param **.operationMode 1
param **.s "70 byte"
param **.dimPoolMax 10000
param **.dimPoolMin 8000
param **.nDL 16
param **.nA 1
param **.DLMaxCapacity 0
param **.trasmitting false

vector 0 Aerocom.aircraft[0].packetGenerator arrivalTime:vector ETV
attr "" ""
attr source computeArrivalTime
vector 1 Aerocom.aircraft[0].linkSelector waitingTime:vector ETV
attr "" ""
attr source computeWaitingTime
vector 2 Aerocom.aircraft[0].linkSelector queueLength:vector ETV
attr "" ""
attr source computeQueueLength
vector 3 Aerocom.aircraft[0].dataLink[2] actualCapacity:vector ETV
attr "" ""
attr source computeActualCapacity
vector 4 Aerocom.aircraft[0].linkSelector serviceTime:vector ETV
attr "" ""
attr source computeServiceTime
vector 5 Aerocom.aircraft[0].linkSelector responseTime:vector ETV
attr "" ""
attr source computeResponseTime
vector 6 Aerocom.aircraft[0].dataLink[12] tDistribution:vector ETV
attr "" ""
attr source computeTDistribution
vector 7 Aerocom.aircraft[0].dataLink[7] tDistribution:vector ETV
attr "" ""
attr source computeTDistribution
vector 8 Aerocom.aircraft[0].dataLink[1] tDistribution:vector ETV
attr "" ""
attr source computeTDistribution
vector 9 Aerocom.aircraft[0].dataLink[9] tDistribution:vector ETV
attr "" ""
attr source computeTDistribution
vector 10 Aerocom.aircraft[0].dataLink[2] tDistribution:vector ETV
attr "" ""
attr source computeTDistribution
vector 11 Aerocom.aircraft[0].dataLink[4] tDistribution:vector ETV
attr "" ""
attr source computeTDistribution
vector 12 Aerocom.aircraft[0].dataLink[0] tDistribution:vector ETV
attr "" ""
attr source computeTDistribution
vector 13 Aerocom.aircraft[0].dataLink[10] tDistribution:vector ETV
attr "" ""
attr source computeTDistribution
vector 14 Aerocom.aircraft[0].dataLink[15] tDistribution:vector ETV
attr "" ""
attr source computeTDistribution
vector 15 Aerocom.aircraft[0].dataLink[6] tDistribution:vector ETV
attr "" ""
attr source computeTDistribution
vector 16 Aerocom.aircraft[0].dataLink[8] tDistribution:vector ETV
attr "" ""
attr source computeTDistribution
vector 17 Aerocom.aircraft[0].dataLink[3] tDistribution:vector ETV
attr "" ""
attr source computeTDistribution
vector 18 Aerocom.aircraft[0].dataLink[5] tDistribution:vector ETV
attr "" ""
attr source computeTDistribution
vector 19 Aerocom.aircraft[0].dataLink[14] tDistribution:vector ETV
attr "" ""
attr source computeTDistribution
vector 20 Aerocom.aircraft[0].dataLink[13] tDistribution:vector ETV
attr "" ""
attr source computeTDistribution
vector 21 Aerocom.aircraft[0].dataLink[11] tDistribution:vector ETV
attr "" ""
attr source computeTDistribution
0	1093	10.001230874886	0.038442439912
0	1098	10.039673314798	0.070692385239
0	1103	10.110365700037	0.032325723438
0	1108	10.142691423475	0.050802040573
0	1113	10.193493464048	0.060284553746
0	1119	10.253778017794	0.096216409547
0	1124	10.349994427341	0.043921990101
0	1129	10.393916417442	0.004185519984
0	1131	10.398101937426	0.039330481183
0	1139	10.437432418609	0.11405371173
0	1146	10.551486130339	0.029955785422
0	1152	10.581441915761	0.002253660072
0	1154	10.583695575833	0.026486873604
0	1162	10.610182449437	0.096860769622
0	1168	10.707043219059	0.165599883712
0	1173	10.872643102771	0.037607905344
0	1178	10.910251008115	0.087569219816
0	1183	10.997820227931	0.006993674228
0	1185	11.004813902159	0.007031376073
0	1190	11.011845278232	0.089787038237
0	1198	11.101632316469	0.016662124948
0	1203	11.118294441417	0.009568248225
0	1208	11.127862689642	0.003140795564
0	1210	11.131003485206	0.023536336571
0	1218	11.154539821777	0.104087232118
0	1225	11.258627053895	0.011835144038
0	1230	11.270462197933	0.057739793296
0	1236	11.328201991229	0.024226285953
0	1242	11.352428277182	0.031202026141
0	1247	11.383630303323	0.090884622267
0	1252	11.47451492559	0.06759257616
0	1258	11.54210750175	0.182564662746
0	1263	11.724672164496	0.013227528122
0	1268	11.737899692618	0.148949699137
0	1273	11.886849391755	0.005693051638
0	1275	11.892542443393	0.019613725598
0	1283	11.912156168991	0.010043042892
0	1288	11.922199211883	0.03471571174
0	1293	11.956914923623	0.089522230543
0	1300	12.046437154166	0.030569688381
0	1306	12.077006842547	0.00968190383
0	1311	12.086688746377	0.150450334866
0	1318	12.237139081243	0.038789598849
0	1323	12.275928680092	0.007197484251
0	1328	12.283126164343	0.003762601257
0	1330	12.2868887656	0.008868973471
0	1335	12.295757739071	0.013735497675
0	1343	12.309493236746	0.007528177144
0	1348	12.31702141389	0.022143212912
0	1353	12.339164626802	0.051486584041
0	1358	12.390651210843	0.010920745826
0	1363	12.401571956669	0.087081346452
0	1368	12.488653303121	0.025585053986
0	1373	12.514238357107	0.066416996745
0	1378	12.580655353852	0.011535935333
0	1383	12.592191289185	0.025022830146
0	1388	12.617214119331	0.00144567967
0	1390	12.618659799001	0.158086257636
0	1400	12.776746056637	0.054666977825
0	1405	12.831413034462	0.014641194302
0	1410	12.846054228764	0.038568471041
0	1417	12.884622699805	0.005436424158
0	1419	12.890059123963	0.04532044219
0	1427	12.935379566153	0.006890001116
0	1429	12.942269567269	0.003097728206
0	1434	12.945367295475	0.159629759201
0	1444	13.104997054676	0.052862619181
0	1449	13.157859673857	0.03503159192
0	1454	13.192891265777	0.017499969475
0	1460	13.210391235252	0.025036452404
0	1465	13.235427687656	0.013144834992
0	1470	13.248572522648	0.137815657286
0	1476	13.386388179934	0.001620744768
0	1478	13.388008924702	0.019483414523
0	1486	13.407492339225	0.00640605039
0	1488	13.413898389615	0.041468419021
0	1498	13.455366808636	0.063901278049
0	1503	13.519268086685	0.082992656136
0	1509	13.602260742821	0.007326919183
0	1514	13.609587662004	0.106681151957
0	1520	13.716268813961	0.037348456164
0	1527	13.753617270125	0.019845471216
0	1532	13.773462741341	0.041794027262
0	1538	13.815256768603	0.088785957508
0	1544	13.904042726111	0.106037238614
0	1549	14.010079964725	0.100834280995
0	1556	14.11091424572	0.037056325521
0	1561	14.147970571241	0.009583462282
0	1566	14.157554033523	0.026779077006
0	1571	14.184333110529	0.000169924668
0	1573	14.184503035197	0.021798954461
0	1581	14.206301989658	0.012119739806
0	1586	14.218421729464	0.024563901764
0	1591	14.242985631228	0.038532157863
0	1596	14.281517789091	0.139829832131
0	1601	14.421347621222	0.00092279735
0	1603	14.422270418572	0.203150724406
0	1611	14.625421142978	0.087106262145
0	1616	14.712527405123	0.101634184236
0	1621	14.814161589359	0.004363151843
0	1623	14.818524741202	0.065972027284
0	1633	14.884496768486	0.011385026558
0	1638	14.895881795044	0.01061052604
0	1643	14.906492321084	0.019465823195
0	1648	14.925958144279	0.091321441402
0	1654	15.017279585681	0.062227034551
0	1659	15.079506620232	0.039974937822
0	1665	15.119481558054	0.028144902939
0	1670	15.147626460993	0.16368999761
0	1679	15.311316458603	0.030372898547
0	1684	15.34168935715	0.036927201522
0	1689	15.378616558672	0.07796625079
0	1694	15.456582809462	0.02800407326
0	1699	15.484586882722	0.034115457549
0	1704	15.518702340271	0.040414892463
0	1710	15.559117232734	0.007729360225
0	1712	15.566846592959	0.022338742092
0	1720	15.589185335051	0.038992702978
0	1725	15.628178038029	0.023481345286
0	1731	15.651659383315	0.026255715296
0	1736	15.677915098611	0.035975541649
0	1743	15.71389064026	0.021472938243
0	1749	15.735363578503	0.005092204578
0	1751	15.740455783081	0.050056054729
0	1759	15.79051183781	0.059953789247
0	1764	15.850465627057	0.036267276558
0	1769	15.886732903615	0.001681946208
0	1771	15.888414849823	0.014873122219
0	1779	15.903287972042	0.052758585768
0	1785	15.95604655781	0.101632164173
0	1791	16.057678721983	0.000693350282
0	1793	16.058372072265	0.010553045309
0	1798	16.068925117574	0.025273957684
0	1806	16.094199075258	0.077137763248
0	1811	16.171336838506	0.016542701819
0	1816	16.187879540325	0.026953179953
0	1821	16.214832720278	0.048782240648
0	1826	16.263614960926	0.034079426704
0	1831	16.29769438763	0.001727824412
0	1833	16.299422212042	0.049711524331
0	1841	16.349133736373	0.272406634085
0	1846	16.621540370458	0.006471413388
0	1849	16.628011783846	0.054816368409
0	1859	16.682828152255	0.014192449779
0	1864	16.697020602034	0.133680305062
0	1869	16.830700907096	0.047555972677
0	1874	16.878256879773	0.002824767044
0	1876	16.881081646817	0.07339924986
0	1884	16.954480896677	0.040059054506
0	1889	16.994539951183	0.282368763562
0	1896	17.276908714745	0.011511725277
0	1901	17.288420440022	0.022682703061
0	1906	17.311103143083	0.149189656938
0	1911	17.460292800021	0.002670512981
0	1913	17.462963313002	0.026304444001
0	1921	17.489267757003	0.054465219505
0	1926	17.543732976508	0.010798096292
0	1932	17.5545310728	0.013179899014
0	1937	17.567710971814	0.018584248521
0	1942	17.586295220335	0.055236576495
0	1947	17.64153179683	0.203413415597
0	1952	17.844945212427	0.014794873606
0	1957	17.859740086033	0.008554060072
0	1962	17.868294146105	0.02500414666
0	1968	17.893298292765	0.039180712804
0	1973	17.932479005569	0.027116322033
0	1979	17.959595327602	0.033136607429
0	1985	17.992731935031	0.010292035364
0	1990	18.003023970395	0.098753110296
0	1998	18.101777080691	0.063168084816
0	2003	18.164945165507	0.060642705107
0	2008	18.225587870614	0.002284448125
0	2010	18.227872318739	0.118579746811
0	2018	18.34645206555	0.01453541257
0	2023	18.36098747812	0.013725138509
0	2028	18.374712616629	0.162712060431
0	2035	18.53742467706	0.007838991284
0	2037	18.545263668344	0.053407719804
0	2045	18.598671388148	0.001104887651
0	2047	18.599776275799	0.100244594166
0	2058	18.700020869965	0.052529485274
0	2063	18.752550355239	0.040082202099
0	2069	18.792632557338	0.018321579574
0	2074	18.810954136912	0.022445578331
0	2079	18.833399715243	0.095451149266
0	2085	18.928850864509	0.116080280878
0	2091	19.044931145387	0.016086938193
0	2096	19.06101808358	0.007471659524
0	2098	19.068489743104	0.052401957282
0	2107	19.120891700386	0.006932559036
0	2109	19.127824259422	0.041701018486
0	2119	19.169525277908	0.057555824794
0	2124	19.227081102702	0.002810346323
0	2126	19.229891449025	0.024932208364
0	2134	19.254823657389	0.087480212154
0	2140	19.342303869543	0.027256141702
0	2145	19.369560011245	0.070944632784
0	2150	19.440504644029	0.098111656453
0	2156	19.538616300482	0.06189646784
0	2161	19.600512768322	0.047664642481
0	2166	19.648177410803	0.041967891643
0	2172	19.690145302446	0.014661085096
0	2177	19.704806387542	0.00772268031
0	2182	19.712529067852	0.020906959634
0	2188	19.733436027486	0.041140110658
0	2193	19.774576138144	0.016129046138
0	2198	19.790705184282	0.135666290409
0	2205	19.926371474691	0.00674213331
0	2207	19.933113608001	0.021101421717
0	2216	19.954215029718	0.02625040811
0	2221	19.980465437828	0.00768364213
0	2226	19.988149079958	0.064317262362
0	2231	20.05246634232	0.010603575208
0	2236	20.063069917528	0.095963704971
0	2244	20.159033622499	0.017105948899
0	2249	20.176139571398	0.056784856808
0	2254	20.232924428206	0.093958366326
0	2259	20.326882794532	0.003138365832
0	2261	20.330021160364	0.018649639174
0	2270	20.348670799538	0.157959608615
0	2277	20.506630408153	0.044537204305
0	2283	20.551167612458	0.040236447952
0	2290	20.59140406041	0.026048067564
0	2295	20.617452127974	0.017046630788
0	2300	20.634498758762	0.109021551608
0	2305	20.74352031037	0.006933263859
0	2307	20.750453574229	0.066357302744
0	2315	20.816810876973	0.024321671926
0	2320	20.841132548899	0.084743334387
0	2325	20.925875883286	0.032955550116
0	2330	20.958831433402	0.054504422613
0	2336	21.013335856015	0.094492494905
0	2341	21.10782835092	0.035152551658
0	2347	21.142980902578	0.070052602923
0	2352	21.213033505501	0.019775476756
0	2357	21.232808982257	0.025925589221
0	2362	21.258734571478	0.056847800521
0	2367	21.315582371999	0.089281544439
0	2372	21.404863916438	0.142678270921
0	2378	21.547542187359	0.215062147854
0	2385	21.762604335213	0.003654892312
0	2387	21.766259227525	0.062807223552
0	2395	21.829066451077	0.002927872465
0	2397	21.831994323542	0.050924089654
0	2405	21.882918413196	0.086237534632
0	2412	21.969155947828	0.00838474772
0	2417	21.977540695548	0.074735029372
0	2424	22.05227572492	0.170840155957
0	2431	22.223115880877	0.02333860447
0	2436	22.246454485347	0.047473722042
0	2441	22.293928207389	0.004101306647
0	2443	22.298029514036	0.055438579078
0	2451	22.353468093114	0.102353858697
0	2458	22.455821951811	0.054355836805
0	2464	22.510177788616	0.036436872003
0	2469	22.546614660619	0.060194836638
0	2474	22.606809497257	0.033408523595
0	2480	22.640218020852	0.064682082564
0	2485	22.704900103416	0.185330426036
0	2490	22.890230529452	0.001028103332
0	2492	22.891258632784	0.059309960396
0	2500	22.95056859318	0.007015872074
0	2502	22.957584465254	0.004255294394
0	2507	22.961839759648	0.054434195676
0	2515	23.016273955324	0.017761859473
0	2520	23.034035814797	0.112723741965
0	2525	23.146759556762	0.039331545249
0	2531	23.186091102011	0.004462379988
0	2533	23.190553481999	0.057711111109
0	2542	23.248264593108	0.126551097771
0	2547	23.374815690879	0.035107226217
0	2552	23.409922917096	0.020587660158
0	2557	23.430510577254	0.032956619019
0	2562	23.463467196273	0.071420154662
0	2569	23.534887350935	0.011094657808
0	2574	23.545982008743	0.002142608836
0	2576	23.548124617579	0.000733714354
0	2578	23.548858331933	0.02380361987
0	2589	23.572661951803	0.036709698269
0	2594	23.609371650072	0.036246626339
0	2599	23.645618276411	0.026441437806
0	2604	23.672059714217	0.035851423018
0	2609	23.707911137235	0.002960371032
0	2611	23.710871508267	0.172342227504
0	2622	23.883213735771	0.036924090163
0	2627	23.920137825934	0.044276499548
0	2633	23.964414325482	0.049134293694
0	2639	24.013548619176	0.047897206549
0	2645	24.061445825725	0.009356134254
0	2650	24.070801959979	0.00942613068
0	2655	24.080228090659	0.008292296959
0	2660	24.088520387618	0.073789211989
0	2665	24.162309599607	0.065796267381
0	2671	24.228105866988	0.013328261334
0	2676	24.241434128322	0.031930136655
0	2681	24.273364264977	0.130573777112
0	2687	24.403938042089	0.050719967938
0	2693	24.454658010027	0.07106117269
0	2698	24.525719182717	0.115602212724
0	2703	24.641321395441	0.018108308365
0	2708	24.659429703806	0.038272456106
0	2713	24.697702159912	0.037085792722
0	2718	24.734787952634	0.087191528177
0	2723	24.821979480811	0.048606800397
0	2728	24.870586281208	0.046595361225
0	2734	24.917181642433	0.0154728641
0	2739	24.932654506533	0.004717544076
0	2741	24.937372050609	0.022226144362
0	2749	24.959598194971	0.015290069567
0	2754	24.974888264538	0.030877430664
0	2759	25.005765695202	0.004881102441
0	2761	25.010646797643	0.042264548085
0	2770	25.052911345728	0.021896619688
0	2775	25.074807965416	0.008854511716
0	2780	25.083662477132	0.014084224603
0	2785	25.097746701735	0.335020549699
0	2794	25.432767251434	0.017200163838
0	2799	25.449967415272	0.032738745798
0	2804	25.48270616107	0.035596975318
0	2810	25.518303136388	0.050742118904
0	2816	25.569045255292	0.004680580601
0	2818	25.573725835893	0.008957719345
0	2823	25.582683555238	0.256660979311
0	2831	25.839344534549	0.02763010655
0	2836	25.866974641099	0.007408882492
0	2838	25.874383523591	0.061827860919
0	2846	25.93621138451	0.031544835164
0	2851	25.967756219674	0.023071726668
0	2857	25.990827946342	0.147126807959
0	2864	26.137954754301	0.014238282186
0	2869	26.152193036487	0.125211959554
0	2874	26.277404996041	0.004753813961
0	2876	26.282158810002	0.001631627057
0	2878	26.283790437059	0.101202323724
0	2889	26.384992760783	0.106302225102
0	2898	26.491294985885	0.026841704716
0	2903	26.518136690601	0.001400494587
0	2905	26.519537185188	0.076975259251
0	2916	26.596512444439	0.048473390515
0	2922	26.644985834954	0.023685300252
0	2928	26.668671135206	0.10242723759
0	2934	26.771098372796	0.075263367278
0	2940	26.846361740074	0.025021281726
0	2945	26.8713830218	0.020995984155
0	2950	26.892379005955	0.002981219215
0	2952	26.89536022517	0.017896620704
0	2960	26.913256845874	0.058758373273
0	2966	26.972015219147	0.249758936296
0	2973	27.221774155443	0.051098823053
0	2979	27.272872978496	0.02063637823
0	2985	27.293509356726	0.00679070854
0	2987	27.300300065266	0.101332233982
0	2996	27.401632299248	0.030203664702
0	3001	27.43183596395	0.069651200968
0	3006	27.501487164918	0.007967676852
0	3011	27.50945484177	0.012788687566
0	3016	27.522243529336	0.005029779782
0	3018	27.527273309118	0.052772362611
0	3028	27.580045671729	0.072999713816
0	3033	27.653045385545	0.196332129693
0	3039	27.849377515238	0.046915937207
0	3044	27.896293452445	0.014493035631
0	3049	27.910786488076	0.007987936526
0	3054	27.918774424602	0.022362988092
0	3059	27.941137412694	0.049049382748
0	3065	27.990186795442	0.024730353147
0	3070	28.014917148589	0.066898195169
0	3075	28.081815343758	0.022555759482
0	3081	28.10437110324	0.049212565818
0	3086	28.153583669058	0.005291692984
0	3088	28.158875362042	0.006245601083
0	3093	28.165120963125	0.036743000198
0	3101	28.201863963323	0.010568025392
0	3106	28.212431988715	0.016534157965
0	3111	28.22896614668	0.010618433476
0	3116	28.239584580156	0.005617074066
0	3118	28.245201654222	0.062918053285
0	3127	28.308119707507	0.028798645963
0	3132	28.33691835347	0.028929366842
0	3137	28.365847720312	0.023753883495
0	3142	28.389601603807	0.069903792707
0	3147	28.459505396514	0.054782134611
0	3154	28.514287531125	0.010333752452
0	3159	28.524621283577	0.004432438638
0	3161	28.529053722215	0.100922656913
0	3170	28.629976379128	0.066279371083
0	3175	28.696255750211	0.088507581171
0	3181	28.784763331382	0.012847968047
0	3186	28.797611299429	0.065521236342
0	3192	28.863132535771	0.012410994809
0	3197	28.87554353058	0.005166784562
0	3199	28.880710315142	0.003925162056
0	3204	28.884635477198	0.018859873373
0	3212	28.903495350571	0.021581111656
0	3217	28.925076462227	0.06397895231
0	3224	28.989055414537	0.019194398587
0	3229	29.008249813124	0.00954723001
0	3234	29.017797043134	0.066045444667
0	3239	29.083842487801	0.005676645073
0	3241	29.089519132874	0.02658709985
0	3249	29.116106232724	0.070630143066
0	3256	29.18673637579	0.033363636845
0	3261	29.220100012635	0.02596130436
0	3266	29.246061316995	0.013676751195
0	3271	29.25973806819	0.033998389173
0	3277	29.293736457363	0.006273416593
0	3279	29.300009873956	0.037777353839
0	3287	29.337787227795	0.032201389485
0	3292	29.36998861728	0.035304798933
0	3297	29.405293416213	0.024137944027
0	3303	29.42943136024	0.134411793215
0	3310	29.563843153455	0.049419766161
0	3315	29.613262919616	0.092670389071
0	3320	29.705933308687	0.012097076403
0	3325	29.71803038509	0.15193110152
0	3331	29.86996148661	0.04151751252
0	3336	29.91147899913	0.015749391485
0	3341	29.927228390615	0.189750889684
0	3348	30.116979280299	0.018632776111
0	3353	30.13561205641	0.01273161781
0	3358	30.14834367422	0.045515065305
0	3363	30.193858739525	0.007465573759
0	3368	30.201324313284	0.08668730363
0	3375	30.288011616914	0.03839531264
0	3380	30.326406929554	0.003813197273
0	3382	30.330220126827	0.02471338971
0	3390	30.354933516537	0.011322759985
0	3395	30.366256276522	0.030326974202
0	3400	30.396583250724	0.113310838189
0	3406	30.509894088913	0.0184677786
0	3412	30.528361867513	0.015388939546
0	3417	30.543750807059	0.151326096681
0	3423	30.69507690374	0.005357798633
0	3425	30.700434702373	0.087426411387
0	3433	30.78786111376	0.002608043351
0	3435	30.790469157111	4.1121188e-05
0	3437	30.790510278299	0.002172061337
0	3439	30.792682339636	0.030846519819
0	3453	30.823528859455	0.082797970369
0	3459	30.906326829824	0.070206511602
0	3465	30.976533341426	0.130779066948
0	3471	31.107312408374	0.010981959936
0	3476	31.11829436831	0.006269223984
0	3478	31.124563592294	0.007418563457
0	3483	31.131982155751	0.055619252662
0	3491	31.187601408413	0.042541470728
0	3496	31.230142879141	0.051184723219
0	3502	31.28132760236	0.037759304569
0	3507	31.319086906929	0.090612636292
0	3512	31.409699543221	0.068994592246
0	3518	31.478694135467	0.055012972794
0	3524	31.533707108261	0.021779427442
0	3530	31.555486535703	0.089424408377
0	3535	31.64491094408	0.019102966375
0	3540	31.664013910455	0.022159484281
0	3545	31.686173394736	0.129867874762
0	3551	31.816041269498	0.018704907729
0	3556	31.834746177227	0.048781603153
0	3562	31.88352778038	0.006531227508
0	3564	31.890059007888	0.099866523855
0	3574	31.989925531743	0.053596724793
0	3579	32.043522256536	0.0492289728
0	3584	32.092751229336	0.050639500242
0	3589	32.143390729578	0.031441618945
0	3594	32.174832348523	0.00704230538
0	3596	32.181874653903	0.034181080908
0	3604	32.216055734811	0.054666104168
0	3609	32.270721838979	0.036489143788
0	3614	32.307210982767	0.029452158019
0	3620	32.336663140786	0.020884806992
0	3626	32.357547947778	0.002682207727
0	3628	32.360230155505	0.032742131387
0	3636	32.392972286892	0.016080709556
0	3641	32.409052996448	0.008553997827
0	3646	32.417606994275	0.105908564583
0	3652	32.523515558858	0.073962480444
0	3657	32.597478039302	0.036078911042
0	3663	32.633556950344	0.019071054907
0	3668	32.652628005251	0.029727180159
0	3673	32.68235518541	0.00122329762
0	3675	32.68357848303	0.11142164659
0	3684	32.79500012962	0.022561837464
0	3690	32.817561967084	0.063309444059
0	3695	32.880871411143	0.019906804095
0	3700	32.900778215238	0.040974744358
0	3705	32.941752959596	0.025518283947
0	3710	32.967271243543	0.038629527676
0	3715	33.005900771219	0.111234480763
0	3721	33.117135251982	0.030681721039
0	3726	33.147816973021	0.082476654892
0	3732	33.230293627913	0.122151719526
0	3738	33.352445347439	0.045428509563
0	3744	33.397873857002	0.085957859265
0	3749	33.483831716267	0.010744966829
0	3755	33.494576683096	0.01120107411
0	3760	33.505777757206	0.04000976478
0	3766	33.545787521986	0.003695817441
0	3768	33.549483339427	0.050377188443
0	3776	33.59986052787	0.078604392268
0	3783	33.678464920138	0.024083849277
0	3788	33.702548769415	0.031600002378
0	3793	33.734148771793	0.034936733353
0	3798	33.769085505146	0.021740122291
0	3803	33.790825627437	0.035685255661
0	3809	33.826510883098	0.037281245399
0	3814	33.863792128497	0.115764825273
0	3820	33.97955695377	0.051651883565
0	3825	34.031208837335	0.010912522542
0	3830	34.042121359877	0.05077476186
0	3835	34.092896121737	0.018608042416
0	3840	34.111504164153	0.051594490793
0	3846	34.163098654946	0.027854221854
0	3851	34.1909528768	0.056360446991
0	3856	34.247313323791	0.202542560904
0	3861	34.449855884695	0.010293997877
0	3866	34.460149882572	0.044147129314
0	3871	34.504297011886	0.008700293518
0	3876	34.512997305404	0.081379551908
0	3881	34.594376857312	0.05068760478
0	3886	34.645064462092	0.0728350511
0	3891	34.717899513192	0.015746174174
0	3896	34.733645687366	0.183904332591
0	3903	34.917550019957	0.018989453118
0	3908	34.936539473075	0.01403106367
0	3913	34.950570536745	0.035464517574
0	3918	34.986035054319	0.100827355466
0	3924	35.086862409785	0.176303310729
0	3933	35.263165720514	0.015860806332
0	3938	35.279026526846	0.011860649046
0	3943	35.290887175892	0.218223539912
0	3949	35.509110715804	0.002712515416
0	3951	35.51182323122	0.191516796277
0	3960	35.703340027497	0.022466668819
0	3965	35.725806696316	0.068051850005
0	3971	35.793858546321	0.179093376745
0	3977	35.972951923066	0.089832442427
0	3982	36.062784365493	0.054960652333
0	3987	36.117745017826	0.032864024434
0	3992	36.15060904226	0.000141462914
0	3994	36.150750505174	0.103180630054
0	4003	36.253931135228	0.030842486985
0	4009	36.284773622213	0.032825146783
0	4014	36.317598768996	0.009280228971
0	4019	36.326878997967	0.009825156122
0	4024	36.336704154089	0.017573998331
0	4030	36.35427815242	0.038540256776
0	4035	36.392818409196	0.141617599445
0	4042	36.534436008641	0.046131437956
0	4051	36.580567446597	0.067618976437
0	4056	36.648186423034	0.079146935185
0	4061	36.727333358219	0.04965152319
0	4067	36.776984881409	0.141562574196
0	4073	36.918547455605	0.022820370767
0	4078	36.941367826372	0.061799487832
0	4084	37.003167314204	0.005572718272
0	4086	37.008740032476	0.039771109128
0	4094	37.048511141604	0.066385534696
0	4099	37.1148966763	0.092219101678
0	4104	37.207115777978	0.007350957551
0	4106	37.214466735529	0.08345984566
0	4114	37.297926581189	0.037830906113
0	4120	37.335757487302	0.031216987875
0	4126	37.366974475177	0.015738011688
0	4131	37.382712486865	0.045933016624
0	4136	37.428645503489	0.02806859748
0	4141	37.456714100969	0.099119648102
0	4147	37.555833749071	0.065471148402
0	4152	37.621304897473	0.000665423692
0	4154	37.621970321165	0.167523909858
0	4164	37.789494231023	0.08783755795
0	4169	37.877331788973	0.018869299603
0	4174	37.896201088576	0.170456663066
0	4180	38.066657751642	0.062456316884
0	4185	38.129114068526	0.003463639107
0	4187	38.132577707633	0.031719634356
0	4195	38.164297341989	0.010985129667
0	4200	38.175282471656	0.056904342682
0	4206	38.232186814338	0.044279152365
0	4212	38.276465966703	0.019079501008
0	4218	38.295545467711	0.005597871523
0	4220	38.301143339234	0.014275787625
0	4228	38.315419126859	0.022138406102
0	4233	38.337557532961	0.128576100432
0	4239	38.466133633393	0.036516851924
0	4244	38.502650485317	0.080115014114
0	4250	38.582765499431	0.068747310329
0	4257	38.65151280976	0.071269900206
0	4262	38.722782709966	0.049117794995
0	4269	38.771900504961	0.060729018681
0	4274	38.832629523642	0.08169482387
0	4279	38.914324347512	0.074022736199
0	4284	38.988347083711	0.000282860146
0	4286	38.988629943857	0.037687104126
0	4295	39.026317047983	0.006783461432
0	4297	39.033100509415	0.040926998365
0	4305	39.07402750778	0.065904852801
0	4310	39.139932360581	0.021392906396
0	4315	39.161325266977	0.102400792644
0	4320	39.263726059621	0.012373280941
0	4325	39.276099340562	0.017128656088
0	4330	39.29322799665	0.159021111096
0	4336	39.452249107746	0.151663707612
0	4341	39.603912815358	0.06050730271
0	4346	39.664420118068	0.050151051979
0	4351	39.714571170047	0.01453244572
0	4356	39.729103615767	0.033825069331
0	4361	39.762928685098	0.021277759463
0	4366	39.784206444561	0.032264477696
0	4371	39.816470922257	0.078806998645
0	4377	39.895277920902	0.060824733586
0	4382	39.956102654488	0.014595110055
0	4387	39.970697764543	0.006847327692
0	4389	39.977545092235	0.004668939649
0	4394	39.982214031884	0.001140416703
0	4396	39.983354448587	0.007975742675
0	4401	39.991330191262	0.014379649973
0	4409	40.005709841235	0.014664920772
0	4417	40.020374762007	0.044516860361
0	4422	40.064891622368	0.005112320934
0	4424	40.070003943302	0.016054805615
0	4432	40.086058748917	0.010768442502
0	4437	40.096827191419	0.087831310327
0	4443	40.184658501746	0.048686354863
0	4448	40.233344856609	0.066386185675
0	4453	40.299731042284	0.10230341219
0	4458	40.402034454474	0.009538705338
0	4463	40.411573159812	0.062960678284
0	4468	40.474533838096	0.067466335946
0	4474	40.542000174042	0.027491053213
0	4479	40.569491227255	0.106399913155
0	4484	40.67589114041	0.081095426808
0	4491	40.756986567218	0.012117488146
0	4497	40.769104055364	0.001228405438
0	4499	40.770332460802	0.071378488598
0	4509	40.8417109494	0.023322293449
0	4515	40.865033242849	0.005376896099
0	4517	40.870410138948	0.102741564869
0	4527	40.973151703817	0.075985133514
0	4533	41.049136837331	0.13475905032
0	4539	41.183895887651	0.030463415326
0	4544	41.214359302977	0.0393471138
0	4549	41.253706416777	0.055882041394
0	4555	41.309588458171	0.114282596041
0	4560	41.423871054212	0.035104920572
0	4565	41.458975974784	0.083276732472
0	4571	41.542252707256	0.035068885722
0	4576	41.577321592978	0.000254031934
0	4578	41.577575624912	0.03655212179
0	4586	41.614127746702	0.163203924382
0	4592	41.777331671084	0.013225389255
0	4597	41.790557060339	0.021424697676
0	4602	41.811981758015	0.040956694919
0	4607	41.852938452934	0.007161327915
0	4609	41.860099780849	0.013674329733
0	4617	41.873774110582	0.089508596154
0	4623	41.963282706736	0.083451398463
0	4628	42.046734105199	0.008331153831
0	4633	42.05506525903	0.006141564167
0	4635	42.061206823197	0.064910397138
0	4643	42.126117220335	0.010479685756
0	4648	42.136596906091	0.021344968612
0	4653	42.157941874703	0.000254554098
0	4655	42.158196428801	0.110568847017
0	4666	42.268765275818	0.049553719851
0	4672	42.318318995669	0.011320981159
0	4677	42.329639976828	0.111208130158
0	4682	42.440848106986	0.019649686896
0	4687	42.460497793882	0.088744592792
0	4692	42.549242386674	0.0220324187
0	4697	42.571274805374	0.073734051535
0	4703	42.645008856909	0.094953868967
0	4708	42.739962725876	0.021118642418
0	4713	42.761081368294	0.039468927838
0	4718	42.800550296132	0.046032702651
0	4723	42.846582998783	0.015143335805
0	4728	42.861726334588	0.101918120352
0	4733	42.96364445494	0.100546069605
0	4738	43.064190524545	0.046943765282
0	4743	43.111134289827	0.081601071411
0	4751	43.192735361238	0.010615951847
0	4756	43.203351313085	0.011075692561
0	4762	43.214427005646	0.02850319767
0	4767	43.242930203316	0.031774837313
0	4773	43.274705040629	0.017909150286
0	4778	43.292614190915	0.008351220665
0	4783	43.30096541158	0.048079312018
0	4788	43.349044723598	0.012005399729
0	4793	43.361050123327	0.010335674575
0	4798	43.371385797902	0.047102441721
0	4805	43.418488239623	0.022030167168
0	4810	43.440518406791	0.057391346693
0	4815	43.497909753484	0.026308143291
0	4820	43.524217896775	0.046358667164
0	4828	43.570576563939	0.030202705987
0	4833	43.600779269926	0.053862751402
0	4838	43.654642021328	0.047339637761
0	4845	43.701981659089	0.005562026601
0	4847	43.70754368569	0.000858573213
0	4849	43.708402258903	0.000312391067
0	4851	43.70871464997	0.001986373548
0	4856	43.710701023518	0.010602740396
0	4861	43.721303763914	0.088266613656
0	4875	43.80957037757	0.115732298792
0	4882	43.925302676362	0.034826445685
0	4887	43.960129122047	0.058856861614
0	4892	44.018985983661	0.020237376879
0	4897	44.03922336054	0.069899301622
0	4903	44.109122662162	0.171670615545
0	4910	44.280793277707	0.051411201059
0	4915	44.332204478766	0.097358119339
0	4921	44.429562598105	0.060779566475
0	4926	44.49034216458	0.179342361723
0	4933	44.669684526303	0.028649584986
0	4938	44.698334111289	0.030138795301
0	4943	44.72847290659	0.084655739361
0	4949	44.813128645951	0.037109178315
0	4954	44.850237824266	0.026731945425
0	4959	44.876969769691	0.061652060937
0	4965	44.938621830628	0.010375096539
0	4970	44.948996927167	0.029692921241
0	4976	44.978689848408	0.030257268856
0	4981	45.008947117264	0.016449335909
0	4986	45.025396453173	0.032574704488
0	4991	45.057971157661	0.069985918361
0	4996	45.127957076022	0.012605122766
0	5001	45.140562198788	0.064127575177
0	5006	45.204689773965	0.089792314022
0	5012	45.294482087987	0.094663523815
0	5017	45.389145611802	0.045367170161
0	5022	45.434512781963	0.076812251847
0	5027	45.51132503381	0.096299816469
0	5032	45.607624850279	0.135597067637
0	5037	45.743221917916	0.216001887079
0	5045	45.959223804995	0.00933945242
0	5050	45.968563257415	0.04238088807
0	5055	46.010944145485	0.007520916646
0	5057	46.018465062131	0.042233165797
0	5065	46.060698227928	0.01245585207
0	5070	46.073154079998	0.0551255086
0	5075	46.128279588598	0.082855603875
0	5081	46.211135192473	0.000824757126
0	5083	46.211959949599	0.016791359989
0	5091	46.228751309588	0.012878663199
0	5096	46.241629972787	0.000377609173
0	5098	46.24200758196	0.04109116768
0	5106	46.28309874964	0.057354920065
0	5113	46.340453669705	0.008311640177
0	5118	46.348765309882	0.037517801107
0	5124	46.386283110989	0.055757330162
0	5130	46.442040441151	0.03046799061
0	5135	46.472508431761	0.019058785323
0	5140	46.491567217084	0.203831507674
0	5145	46.695398724758	0.023206439147
0	5150	46.718605163905	0.007005988102
0	5152	46.725611152007	0.007329449135
0	5157	46.732940601142	0.029571086511
0	5165	46.762511687653	0.028038296484
0	5170	46.790549984137	0.032485808422
0	5177	46.823035792559	0.037800642918
0	5182	46.860836435477	0.000676508435
0	5184	46.861512943912	0.022069305606
0	5192	46.883582249518	0.007147571481
0	5194	46.890729820999	0.014844201106
0	5202	46.905574022105	0.016110572673
0	5207	46.921684594778	0.014824503039
0	5212	46.936509097817	0.042295113546
0	5218	46.978804211363	0.045961041524
0	5223	47.024765252887	0.042257001775
0	5229	47.067022254662	0.012191423547
0	5234	47.079213678209	0.013264785822
0	5239	47.092478464031	0.019680398151
0	5245	47.112158862182	0.001571085752
0	5247	47.113729947934	0.031138253466
0	5255	47.1448682014	0.028986113066
0	5260	47.173854314466	0.179532167633
0	5266	47.353386482099	0.013846288763
0	5271	47.367232770862	0.044100735953
0	5277	47.411333506815	0.017476681427
0	5282	47.428810188242	0.091673809947
0	5287	47.520483998189	0.022299921814
0	5292	47.542783920003	0.020019600116
0	5297	47.562803520119	0.034485781479
0	5304	47.597289301598	0.199150824248
0	5311	47.796440125846	0.070448023144
0	5317	47.86688814899	0.017062402529
0	5322	47.883950551519	0.023146791115
0	5327	47.907097342634	0.056632803682
0	5332	47.963730146316	0.011553627354
0	5337	47.97528377367	0.033252736048
0	5342	48.008536509718	0.018468342944
0	5347	48.027004852662	0.080992673117
0	5353	48.107997525779	0.000390846473
0	5355	48.108388372252	0.056567082811
0	5363	48.164955455063	0.128522788053
0	5368	48.293478243116	0.042400323278
0	5373	48.335878566394	0.083035314482
0	5380	48.418913880876	0.025045136279
0	5385	48.443959017155	0.050857348434
0	5391	48.494816365589	0.210535575826
0	5396	48.705351941415	0.116840395907
0	5401	48.822192337322	0.118323618243
0	5407	48.940515955565	0.090358372752
0	5412	49.030874328317	0.031870544126
0	5418	49.062744872443	0.041278367008
0	5423	49.104023239451	0.039349365594
0	5428	49.143372605045	0.154368559427
0	5433	49.297741164472	0.004445500218
0	5435	49.30218666469	0.170220218018
0	5446	49.472406882708	0.085835541852
0	5451	49.55824242456	0.088464397885
0	5456	49.646706822445	0.04535526606
0	5461	49.692062088505	0.089300965038
0	5468	49.781363053543	0.106476857306
0	5473	49.887839910849	0.026845646928
0	5478	49.914685557777	0.060896898085
0	5484	49.975582455862	0.044664239004
0	5489	50.020246694866	0.000380326487
0	5491	50.020627021353	0.060040333647
0	5499	50.080667355	0.023291073654
0	5504	50.103958428654	0.148104006692
0	5514	50.252062435346	0.006887179603
0	5516	50.258949614949	0.034433866567
0	5524	50.293383481516	0.06361030387
0	5531	50.356993785386	0.100298080079
0	5539	50.457291865465	0.061548971667
0	5544	50.518840837132	0.038715056583
0	5549	50.557555893715	0.080797484937
0	5555	50.638353378652	0.083292906446
0	5562	50.721646285098	0.004509197935
0	5564	50.726155483033	0.054077066765
0	5572	50.780232549798	0.030040020748
0	5577	50.810272570546	0.061264081936
0	5584	50.871536652482	0.006428503466
0	5586	50.877965155948	0.024744967541
0	5594	50.902710123489	0.000876790471
0	5596	50.90358691396	0.211717840745
0	5606	51.115304754705	0.010214932964
0	5611	51.125519687669	0.041445694525
0	5616	51.166965382194	0.127975783029
0	5621	51.294941165223	0.027520272348
0	5626	51.322461437571	0.004716968479
0	5628	51.32717840605	0.016110681015
0	5636	51.343289087065	0.026401771412
0	5641	51.369690858477	0.016071779628
0	5646	51.385762638105	0.034043661662
0	5651	51.419806299767	0.060173623654
0	5656	51.479979923421	0.012927320193
0	5661	51.492907243614	0.129047826086
0	5666	51.6219550697	0.124457914409
0	5675	51.746412984109	0.004435731694
0	5677	51.750848715803	0.002840039137
0	5682	51.75368875494	0.014467152668
0	5690	51.768155907608	0.008017053565
0	5695	51.776172961173	0.06488197107
0	5701	51.841054932243	0.083240068137
0	5706	51.92429500038	0.011555823722
0	5711	51.935850824102	0.004982577544
0	5713	51.940833401646	0.002670908172
0	5718	51.943504309818	0.067501675766
0	5726	52.011005985584	0.05358666404
0	5731	52.064592649624	0.013322642497
0	5736	52.077915292121	0.076271812231
0	5741	52.154187104352	0.128654521009
0	5747	52.282841625361	0.001731766715
0	5749	52.284573392076	0.026156909009
0	5757	52.310730301085	0.000577124448
0	5759	52.311307425533	0.053248767242
0	5767	52.364556192775	0.022810914018
0	5772	52.387367106793	0.067447370543
0	5778	52.454814477336	0.081216068276
0	5785	52.536030545612	0.259759466106
0	5790	52.795790011718	0.120711837229
0	5797	52.916501848947	0.026700951241
0	5803	52.943202800188	0.015183607726
0	5809	52.958386407914	0.02462646208
0	5814	52.983012869994	0.005877099411
0	5816	52.988889969405	0.134429694552
0	5824	53.123319663957	0.005348674943
0	5826	53.1286683389	0.001170258984
0	5828	53.129838597884	0.030698497965
0	5839	53.160537095849	0.119683146019
0	5844	53.280220241868	0.029946822835
0	5849	53.310167064703	0.32286291466
0	5859	53.633029979363	0.05299621967
0	5865	53.686026199033	0.024840273677
0	5870	53.71086647271	0.031766443763
0	5875	53.742632916473	0.003868493201
0	5877	53.746501409674	0.065149345804
0	5885	53.811650755478	0.068727536638
0	5890	53.880378292116	0.124268775928
0	5896	54.004647068044	0.085737186255
0	5903	54.090384254299	0.081086334548
0	5908	54.171470588847	0.01397116626
0	5913	54.185441755107	0.065136515539
0	5918	54.250578270646	0.042220316768
0	5923	54.292798587414	0.009311580122
0	5928	54.302110167536	0.065079040497
0	5934	54.367189208033	0.012861246536
0	5939	54.380050454569	0.012140498435
0	5944	54.392190953004	0.008091431942
0	5949	54.400282384946	0.016900559087
0	5955	54.417182944033	0.06782675474
0	5960	54.485009698773	0.072200403692
0	5965	54.557210102465	0.0591535258
0	5970	54.616363628265	0.043615747979
0	5975	54.659979376244	0.045241878284
0	5980	54.705221254528	0.025340378839
0	5985	54.730561633367	0.00727921076
0	5987	54.737840844127	0.035521792568
0	5995	54.773362636695	0.006631653351
0	5997	54.779994290046	0.05449727168
0	6007	54.834491561726	0.026251315904
0	6012	54.86074287763	0.035893334835
0	6017	54.896636212465	0.008142730377
0	6022	54.904778942842	0.046219967023
0	6029	54.950998909865	0.031261315766
0	6034	54.982260225631	0.123001503992
0	6039	55.105261729623	0.157903011469
0	6045	55.263164741092	0.022042802666
0	6051	55.285207543758	0.003698951787
0	6053	55.288906495545	0.041774466536
0	6062	55.330680962081	0.061008009873
0	6068	55.391688971954	0.133046589978
0	6075	55.524735561932	0.018265497629
0	6080	55.543001059561	0.052574978053
0	6085	55.595576037614	0.008040127211
0	6090	55.603616164825	0.006130003488
0	6092	55.609746168313	0.03311775752
0	6102	55.642863925833	0.022024892196
0	6107	55.664888818029	0.034062193395
0	6112	55.698951011424	0.075483530383
0	6118	55.774434541807	0.079998341006
0	6123	55.854432882813	0.03917836899
0	6128	55.893611251803	0.086881821988
0	6134	55.980493073791	0.008945357029
0	6139	55.98943843082	0.002556563019
0	6141	55.991994993839	0.002612120732
0	6143	55.994607114571	0.025027019096
0	6154	56.019634133667	0.001489091858
0	6156	56.021123225525	0.010000233757
0	6161	56.031123459282	0.026655616093
0	6169	56.057779075375	0.029902033559
0	6175	56.087681108934	0.051475532999
0	6181	56.139156641933	0.09583660999
0	6187	56.234993251923	0.052603693069
0	6192	56.287596944992	0.056347351412
0	6197	56.343944296404	0.049420988468
0	6202	56.393365284872	0.005302303117
0	6204	56.398667587989	0.042478226428
0	6212	56.441145814417	0.007590137607
0	6217	56.448735952024	0.054292424666
0	6222	56.50302837669	0.01706684866
0	6227	56.52009522535	0.068176497997
0	6233	56.588271723347	0.032018236962
0	6238	56.620289960309	0.000859155936
0	6240	56.621149116245	0.012174490764
0	6245	56.633323607009	0.072160824098
0	6254	56.705484431107	0.050905334991
0	6260	56.756389766098	0.0075774034
0	6265	56.763967169498	0.01298722577
0	6270	56.776954395268	0.093404410616
0	6275	56.870358805884	0.083028851682
0	6280	56.953387657566	0.012056219168
0	6285	56.965443876734	0.008329282942
0	6290	56.973773159676	0.001960985475
0	6292	56.975734145151	0.017475153557
0	6300	56.993209298708	0.02162941626
0	6305	57.014838714968	0.003896000126
0	6307	57.018734715094	0.002118333709
0	6309	57.020853048803	0.053574192209
0	6320	57.074427241012	0.002868474977
0	6322	57.077295715989	0.057427622443
0	6331	57.134723338432	0.006080722571
0	6333	57.140804061003	0.228205603287
0	6344	57.36900966429	0.129403060891
0	6351	57.498412725181	0.010452008514
0	6356	57.508864733695	0.014268925007
0	6361	57.523133658702	0.171762226681
0	6366	57.694895885383	0.00323417216
0	6368	57.698130057543	0.0484354328
0	6376	57.746565490343	0.00312393659
0	6378	57.749689426933	0.098830739137
0	6390	57.84852016607	0.051830521208
0	6395	57.900350687278	0.002788018747
0	6397	57.903138706025	0.054927484915
0	6405	57.95806619094	0.079740259995
0	6410	58.037806450935	0.013826558152
0	6415	58.051633009087	0.017292117586
0	6420	58.068925126673	0.072309779774
0	6426	58.141234906447	0.031508750945
0	6431	58.172743657392	0.013041127152
0	6436	58.185784784544	0.001660643657
0	6438	58.187445428201	0.016816301618
0	6446	58.204261729819	0.099402523239
0	6451	58.303664253058	0.022317040276
0	6457	58.325981293334	0.109308593769
0	6462	58.435289887103	0.072172459397
0	6467	58.5074623465	0.000814703784
0	6469	58.508277050284	0.000456245457
0	6471	58.508733295741	0.031565030288
0	6483	58.540298326029	0.001374301898
0	6485	58.541672627927	0.064488933149
0	6493	58.606161561076	0.067399435292
0	6499	58.673560996368	0.032523261506
0	6504	58.706084257874	0.015929416587
0	6509	58.722013674461	0.082989268845
0	6515	58.805002943306	0.017319475193
0	6520	58.822322418499	0.029091099851
0	6525	58.85141351835	0.036940148443
0	6530	58.888353666793	0.052971282217
0	6536	58.94132494901	0.010583679813
0	6541	58.951908628823	0.033439639447
0	6546	58.98534826827	0.073698134976
0	6551	59.059046403246	0.01820502815
0	6556	59.077251431396	0.03196160049
0	6562	59.109213031886	0.016789095766
0	6567	59.126002127652	0.027622969893
0	6573	59.153625097545	0.055138075654
0	6578	59.208763173199	0.100333400096
0	6585	59.309096573295	0.005406796447
0	6587	59.314503369742	0.022045490392
0	6595	59.336548860134	0.026663008701
0	6600	59.363211868835	0.001232779971
0	6602	59.364444648806	0.015209540411
0	6610	59.379654189217	0.049505175213
0	6616	59.42915936443	0.006122202567
0	6618	59.435281566997	0.030585942272
0	6626	59.465867509269	0.031685897867
0	6631	59.497553407136	0.026963993585
0	6638	59.524517400721	0.094136658597
0	6645	59.618654059318	0.000181504588
0	6647	59.618835563906	0.001951813746
0	6649	59.620787377652	0.031866498332
0	6661	59.652653875984	0.000706147269
0	6663	59.653360023253	0.099892849713
0	6671	59.753252872966	0.047214610305
0	6676	59.800467483271	0.043944317749
0	6681	59.84441180102	0.034549893152
0	6686	59.878961694172	0.093221193768
0	6692	59.97218288794	0.005552000538
0	6694	59.977734888478	0.002934445165
0	6699	59.980669333643	0.004835318897
0	6701	59.98550465254	0.005151524629
0	6706	59.990656177169	0.037317269758
0	6718	60.027973446927	0.025218886906
0	6723	60.053192333833	0.020738345566
0	6729	60.073930679399	0.108915463735
0	6734	60.182846143134	0.098817252191
0	6739	60.281663395325	0.042052289377
0	6744	60.323715684702	0.026075277671
0	6750	60.349790962373	0.015821345198
0	6755	60.365612307571	0.019161236638
0	6760	60.384773544209	0.009978878209
0	6765	60.394752422418	0.105695539409
0	6771	60.500447961827	0.007169935064
0	6776	60.507617896891	0.02019009821
0	6781	60.527807995101	0.076144141499
0	6786	60.6039521366	0.065701194014
0	6792	60.669653330614	0.052102272533
0	6797	60.721755603147	0.037315415775
0	6802	60.759071018922	0.002884972549
0	6804	60.761955991471	0.023676579897
0	6812	60.785632571368	0.009576986758
0	6817	60.795209558126	0.019665711033
0	6822	60.814875269159	0.015327438406
0	6827	60.830202707565	0.070044053705
0	6834	60.90024676127	0.065076101164
0	6839	60.965322862434	0.04382221787
0	6844	61.009145080304	0.027879103968
0	6850	61.037024184272	0.04215779101
0	6855	61.079181975282	0.037103891169
0	6860	61.116285866451	0.021931021721
0	6865	61.138216888172	0.059606591131
0	6870	61.197823479303	0.01099097388
0	6875	61.208814453183	0.008534629434
0	6880	61.217349082617	0.013009480708
0	6885	61.230358563325	0.025078635841
0	6890	61.255437199166	0.137882319284
0	6895	61.39331951845	0.003991230064
0	6897	61.397310748514	0.026601760316
0	6907	61.42391250883	0.020476553347
0	6912	61.444389062177	0.064725354046
0	6918	61.509114416223	0.006366928259
0	6920	61.515481344482	0.003977552289
0	6925	61.519458896771	0.005478383278
0	6930	61.524937280049	0.030189823739
0	6938	61.555127103788	0.017615514567
0	6943	61.572742618355	0.091481724809
0	6949	61.664224343164	0.14905254412
0	6957	61.813276887284	0.008137495395
0	6962	61.821414382679	0.027315936191
0	6967	61.84873031887	0.009971515426
0	6972	61.858701834296	0.008042229939
0	6977	61.866744064235	0.078776872635
0	6984	61.94552093687	0.029141694526
0	6989	61.974662631396	0.054218089117
0	6995	62.028880720513	0.012620243351
0	7000	62.041500963864	0.003660605671
0	7002	62.045161569535	0.139686806873
0	7011	62.184848376408	0.029435548527
0	7016	62.214283924935	0.002999886649
0	7018	62.217283811584	0.002445910927
0	7020	62.219729722511	0.010448332301
0	7028	62.230178054812	0.093845796299
0	7037	62.324023851111	0.02457126989
0	7042	62.348595121001	0.023820834172
0	7047	62.372415955173	0.085871351445
0	7052	62.458287306618	0.176186164283
0	7060	62.634473470901	0.046684731163
0	7066	62.681158202064	0.099386995807
0	7073	62.780545197871	0.005848926327
0	7075	62.786394124198	0.044588252514
0	7083	62.830982376712	0.005355690183
0	7085	62.836338066895	0.01448506712
0	7093	62.850823134015	0.113035957074
0	7098	62.963859091089	0.002020500291
0	7100	62.96587959138	0.041003687446
0	7110	63.006883278826	0.008311006367
0	7115	63.015194285193	0.057771921339
0	7120	63.072966206532	0.11168821424
0	7126	63.184654420772	0.105132439167
0	7134	63.289786859939	0.067720576272
0	7140	63.357507436211	0.024962591415
0	7145	63.382470027626	0.01692292323
0	7150	63.399392950856	0.051079348142
0	7155	63.450472298998	0.125419284744
0	7161	63.575891583742	0.020334507408
0	7166	63.59622609115	0.015965483329
0	7171	63.612191574479	0.037893439681
0	7177	63.65008501416	0.102491868517
0	7184	63.752576882677	0.035020453997
0	7189	63.787597336674	0.271103860644
0	7194	64.058701197318	0.119837297147
0	7201	64.178538494465	0.008974318748
0	7206	64.187512813213	0.021986762988
0	7212	64.209499576201	0.000874244253
0	7214	64.210373820454	0.188144560304
0	7223	64.398518380758	0.036325954229
0	7229	64.434844334987	0.306435207219
0	7236	64.741279542206	0.083675739086
0	7241	64.824955281292	0.064866226007
0	7247	64.889821507299	0.000616974341
0	7249	64.89043848164	0.107956819932
0	7258	64.998395301572	0.164254422764
0	7263	65.162649724336	0.009896220179
0	7268	65.172545944515	0.203673470399
0	7275	65.376219414914	0.002827443568
0	7278	65.379046858482	0.140402657545
0	7287	65.519449516027	0.148826453195
0	7295	65.668275969222	0.062449346868
0	7301	65.73072531609	0.053316057091
0	7306	65.784041373181	0.01065515924
0	7311	65.794696532421	0.002020283072
0	7313	65.796716815493	0.049524281199
0	7321	65.846241096692	0.020255897902
0	7326	65.866496994594	0.154586754364
0	7332	66.021083748958	0.086588733365
0	7339	66.107672482323	0.022664464143
0	7344	66.130336946466	0.018381504094
0	7349	66.14871845056	0.000800285261
0	7351	66.149518735821	0.038623914678
0	7359	66.188142650499	0.008286345843
0	7364	66.196428996342	0.018751620623
0	7369	66.215180616965	0.005784748082
0	7371	66.220965365047	0.027585202358
0	7379	66.248550567405	0.013657692367
0	7385	66.262208259772	0.113457217761
0	7393	66.375665477533	0.009279368409
0	7398	66.384944845942	0.006578951805
0	7400	66.391523797747	0.008591422894
0	7405	66.400115220641	0.093543811144
0	7413	66.493659031785	2.0128092e-05
0	7415	66.493679159877	0.010103722919
0	7421	66.503782882796	0.088116619962
0	7429	66.591899502758	0.061269150239
0	7436	66.653168652997	0.026343362731
0	7441	66.679512015728	0.06517979086
0	7447	66.744691806588	0.032589478635
0	7452	66.777281285223	0.033875542802
0	7457	66.811156828025	0.019107943219
0	7462	66.830264771244	0.002039923656
0	7464	66.8323046949	0.01356102655
0	7469	66.84586572145	0.006044240866
0	7474	66.851909962316	0.046949736894
0	7483	66.89885969921	0.028391040793
0	7488	66.927250740003	0.109158247338
0	7495	67.036408987341	0.062015270749
0	7500	67.09842425809	0.00256017313
0	7502	67.10098443122	0.120675884713
0	7510	67.221660315933	0.001597253702
0	7512	67.223257569635	0.018020939891
0	7520	67.241278509526	0.025471491368
0	7525	67.266750000894	0.178588175546
0	7531	67.44533817644	0.002272719269
0	7533	67.447610895709	0.026582742464
0	7542	67.474193638173	0.025266646621
0	7547	67.499460284794	0.004162255044
0	7549	67.503622539838	0.017497985052
0	7558	67.52112052489	0.054356531219
0	7566	67.575477056109	0.059994985403
0	7571	67.635472041512	0.058838597781
0	7576	67.694310639293	0.150048779965
0	7581	67.844359419258	0.293127282458
0	7589	68.137486701716	0.00050129527
0	7591	68.137987996986	0.039351202309
0	7599	68.177339199295	0.113631399672
0	7605	68.290970598967	0.018050587366
0	7610	68.309021186333	0.0842345662
0	7616	68.393255752533	0.02974822764
0	7621	68.423003980173	0.000783505193
0	7623	68.423787485366	0.000250367135
0	7625	68.424037852501	0.031897763937
0	7636	68.455935616438	0.106833461024
0	7642	68.562769077462	0.077183855424
0	7648	68.639952932886	0.09419055244
0	7653	68.734143485326	0.028262895782
0	7659	68.762406381108	0.00855738395
0	7664	68.770963765058	0.084898448628
0	7669	68.855862213686	0.040497365307
0	7674	68.896359578993	0.018595629919
0	7680	68.914955208912	0.116803144472
0	7687	69.031758353384	0.0622102684
0	7692	69.093968621784	0.062168476029
0	7697	69.156137097813	0.073624464487
0	7703	69.2297615623	0.078772412118
0	7708	69.308533974418	0.149931121375
0	7714	69.458465095793	0.000948957167
0	7716	69.45941405296	0.046520210695
0	7724	69.505934263655	0.027069999817
0	7729	69.533004263472	0.117708767483
0	7735	69.650713030955	0.01208055271
0	7742	69.662793583665	0.255370351797
0	7750	69.918163935462	0.038766316
0	7755	69.956930251462	0.042703219774
0	7761	69.999633471236	0.005222426501
0	7763	70.004855897737	0.010504024555
0	7768	70.015359922292	0.022988300283
0	7776	70.038348222575	0.007263332135
0	7778	70.04561155471	0.086090923118
0	7787	70.131702477828	0.01404052792
0	7792	70.145743005748	0.041702604339
0	7797	70.187445610087	0.018079128263
0	7802	70.20552473835	0.023285013729
0	7807	70.228809752079	0.053021061928
0	7813	70.281830814007	0.012950319346
0	7818	70.294781133353	0.047864147024
0	7825	70.342645280377	0.045060553375
0	7830	70.387705833752	0.273262314312
0	7836	70.660968148064	0.049727069931
0	7843	70.710695217995	0.018256377145
0	7849	70.72895159514	0.034442560366
0	7854	70.763394155506	0.038559837031
0	7859	70.801953992537	0.014779636905
0	7864	70.816733629442	0.064010392622
0	7869	70.880744022064	0.227485795193
0	7875	71.108229817257	0.0120420086
0	7881	71.120271825857	0.042647424621
0	7887	71.162919250478	0.04047056563
0	7892	71.203389816108	0.016024776097
0	7897	71.219414592205	0.017103261956
0	7902	71.236517854161	0.180202717646
0	7908	71.416720571807	0.037607159063
0	7913	71.45432773087	0.006087469777
0	7915	71.460415200647	0.050175111384
0	7923	71.510590312031	0.040862984288
0	7929	71.551453296319	0.008757789663
0	7934	71.560211085982	0.063049571528
0	7941	71.62326065751	0.002308594468
0	7943	71.625569251978	0.013660900159
0	7948	71.639230152137	0.006364554459
0	7953	71.645594706596	0.02684396586
0	7962	71.672438672456	0.049514273518
0	7967	71.721952945974	0.01928928598
0	7973	71.741242231954	0.010917723419
0	7979	71.752159955373	0.038448442859
0	7984	71.790608398232	0.194430849846
0	7992	71.985039248078	0.004773579703
0	7994	71.989812827781	0.088380530058
0	8005	72.078193357839	0.039297604966
0	8010	72.117490962805	0.010353996412
0	8016	72.127844959217	0.016861757467
0	8021	72.144706716684	0.016532777835
0	8026	72.161239494519	0.084376038979
0	8033	72.245615533498	0.04476745334
0	8038	72.290382986838	0.13685242941
0	8043	72.427235416248	0.039936819169
0	8048	72.467172235417	0.02780649114
0	8053	72.494978726557	0.053401520105
0	8059	72.548380246662	0.028477374449
0	8064	72.576857621111	0.022523173702
0	8069	72.599380794813	0.009731192989
0	8074	72.609111987802	0.001894130133
0	8076	72.611006117935	0.048332982989
0	8086	72.659339100924	0.004838546156
0	8088	72.66417764708	0.014721439597
0	8096	72.678899086677	0.013135044494
0	8101	72.692034131171	0.036918401679
0	8106	72.72895253285	0.052181768362
0	8111	72.781134301212	0.082657244804
0	8116	72.863791546016	0.041488692253
0	8122	72.905280238269	0.135685441828
0	8130	73.040965680097	0.012600110642
0	8135	73.053565790739	0.039920523859
0	8140	73.093486314598	0.029530194906
0	8145	73.123016509504	0.026137110915
0	8150	73.149153620419	0.067619935996
0	8155	73.216773556415	0.063580877456
0	8160	73.280354433871	0.024369132358
0	8166	73.304723566229	0.056478677252
0	8172	73.361202243481	0.07557959752
0	8177	73.436781841001	0.034328772547
0	8182	73.471110613548	0.03800915777
0	8187	73.509119771318	0.001047811887
0	8189	73.510167583205	0.047732959457
0	8198	73.557900542662	0.001459089764
0	8200	73.559359632426	0.202567351419
0	8209	73.761926983845	0.011896703934
0	8215	73.773823687779	0.128834615624
0	8221	73.902658303403	0.028642381927
0	8226	73.93130068533	0.015202956638
0	8231	73.946503641968	0.037997789553
0	8236	73.984501431521	0.218584686269
0	8241	74.20308611779	0.066212826263
0	8246	74.269298944053	0.036291670112
0	8251	74.305590614165	0.012335469186
0	8256	74.317926083351	0.054475835675
0	8261	74.372401919026	0.099363298041
0	8267	74.471765217067	0.00775497039
0	8272	74.479520187457	0.198476918379
0	8281	74.677997105836	0.097595125355
0	8286	74.775592231191	0.056619147317
0	8291	74.832211378508	0.073732885522
0	8296	74.90594426403	0.024766750767
0	8301	74.930711014797	0.056732755762
0	8306	74.987443770559	0.038761991727
0	8311	75.026205762286	0.017040932252
0	8316	75.043246694538	0.002722308526
0	8318	75.045969003064	0.013836013629
0	8326	75.059805016693	0.049011070292
0	8332	75.108816086985	0.043419667286
0	8338	75.152235754271	0.007321364962
0	8340	75.159557119233	0.109578660923
0	8350	75.269135780156	0.094726142689
0	8356	75.363861922845	0.037036783192
0	8361	75.400898706037	0.003541502233
0	8363	75.40444020827	0.072599927006
0	8371	75.477040135276	0.070404812374
0	8377	75.54744494765	0.051338786245
0	8384	75.598783733895	0.022791862496
0	8389	75.621575596391	0.069536377609
0	8395	75.691111974	0.054170899557
0	8400	75.745282873557	0.142801575343
0	8405	75.8880844489	0.004679621468
0	8407	75.892764070368	0.034639594366
0	8415	75.927403664734	0.055120264136
0	8421	75.98252392887	0.0846115647
0	8426	76.06713549357	0.03405029454
0	8432	76.10118578811	0.015499257502
0	8437	76.116685045612	0.020292499132
0	8442	76.136977544744	0.049531723914
0	8448	76.186509268658	0.048391417269
0	8454	76.234900685927	0.054546778264
0	8459	76.289447464191	0.001156582189
0	8461	76.29060404638	0.032238590472
0	8469	76.322842636852	0.037518192144
0	8474	76.360360828996	0.03503138603
0	8479	76.395392215026	0.033150779353
0	8485	76.428542994379	0.014705885953
0	8490	76.443248880332	0.003801781358
0	8492	76.44705066169	0.09760559487
0	8501	76.54465625656	0.042028424818
0	8507	76.586684681378	0.019981337377
0	8512	76.606666018755	0.009912290573
0	8517	76.616578309328	0.068722236143
0	8522	76.685300545471	0.052790820481
0	8528	76.738091365952	0.107066444537
0	8534	76.845157810489	0.185484281454
0	8540	77.030642091943	0.026788811589
0	8545	77.057430903532	0.000985113558
0	8547	77.05841601709	0.060481029872
0	8555	77.118897046962	0.023427735538
0	8560	77.1423247825	0.004862529839
0	8562	77.147187312339	0.029576175153
0	8570	77.176763487492	0.014498734158
0	8575	77.19126222165	0.032786981105
0	8580	77.224049202755	0.065292677738
0	8585	77.289341880493	0.038851857151
0	8590	77.328193737644	0.011374899824
0	8595	77.339568637468	0.031040928202
0	8600	77.37060956567	0.042882260424
0	8605	77.413491826094	0.033586870944
0	8610	77.447078697038	0.108935487845
0	8617	77.556014184883	0.004309897309
0	8619	77.560324082192	0.031196412471
0	8627	77.591520494663	0.098318314356
0	8632	77.689838809019	0.079217382408
0	8637	77.769056191427	0.022974080725
0	8642	77.792030272152	0.012288404795
0	8647	77.804318676947	0.068050632946
0	8652	77.872369309893	0.138952721263
0	8658	78.011322031156	0.072580022474
0	8664	78.08390205363	0.020477900284
0	8669	78.104379953914	0.167979015679
0	8675	78.272358969593	0.016663923774
0	8680	78.289022893367	0.001046541128
0	8682	78.290069434495	0.152021895107
0	8692	78.442091329602	0.002083567089
0	8694	78.444174896691	0.25103892625
0	8703	78.695213822941	0.089230998883
0	8708	78.784444821824	0.005754608912
0	8710	78.790199430736	0.053666387767
0	8718	78.843865818503	0.173596162939
0	8724	79.017461981442	0.036363915494
0	8730	79.053825896936	0.046858509899
0	8735	79.100684406835	0.02537488459
0	8740	79.126059291425	0.199870483922
0	8746	79.325929775347	0.083721607951
0	8751	79.409651383298	0.041262900222
0	8757	79.45091428352	0.035243110746
0	8762	79.486157394266	0.043488993679
0	8767	79.529646387945	0.045758080284
0	8772	79.575404468229	0.036204860458
0	8777	79.611609328687	0.014574418799
0	8782	79.626183747486	0.001688834027
0	8784	79.627872581513	0.005629063635
0	8786	79.633501645148	0.006441369095
0	8791	79.639943014243	0.029072182308
0	8802	79.669015196551	0.078230905627
0	8808	79.747246102178	0.038378148835
0	8813	79.785624251013	0.238347092224
0	8818	80.023971343237	0.031738777068
0	8823	80.055710120305	0.005169154751
0	8825	80.060879275056	0.054678916026
0	8833	80.115558191082	0.027188546196
0	8838	80.142746737278	0.02646654168
0	8843	80.169213278958	0.086933016189
0	8848	80.256146295147	0.042493764911
0	8853	80.298640060058	0.073090669908
0	8859	80.371730729966	0.002203539213
0	8861	80.373934269179	0.018124967889
0	8869	80.392059237068	0.015219629283
0	8874	80.407278866351	0.085118581207
0	8881	80.492397447558	0.031380284417
0	8887	80.523777731975	0.000869613501
0	8889	80.524647345476	0.064291425581
0	8897	80.588938771057	0.008898553082
0	8902	80.597837324139	0.01670937728
0	8907	80.614546701419	0.194990159896
0	8913	80.809536861315	0.012491895725
0	8918	80.82202875704	0.090326099796
0	8923	80.912354856836	0.195524390198
0	8931	81.107879247034	0.032069817201
0	8937	81.139949064235	0.155384149178
0	8945	81.295333213413	0.036814353016
0	8950	81.332147566429	0.101368980736
0	8955	81.433516547165	0.117162587217
0	8960	81.550679134382	0.009869137797
0	8965	81.560548272179	0.066439081261
0	8971	81.62698735344	0.071050189548
0	8977	81.698037542988	0.014880842994
0	8982	81.712918385982	0.098599433101
0	8988	81.811517819083	0.069044793236
0	8994	81.880562612319	0.048098772675
0	8999	81.928661384994	0.053121425183
0	9004	81.981782810177	0.03369978038
0	9009	82.015482590557	0.000509161375
0	9011	82.015991751932	0.118019410226
0	9019	82.134011162158	0.106549942288
0	9024	82.240561104446	0.025261978414
0	9029	82.26582308286	0.068271122148
0	9036	82.334094205008	0.032954920888
0	9041	82.367049125896	0.101113185948
0	9046	82.468162311844	0.039551839502
0	9052	82.507714151346	0.023466126698
0	9058	82.531180278044	0.051341145617
0	9063	82.582521423661	0.011147780863
0	9068	82.593669204524	0.09801148283
0	9073	82.691680687354	0.001135954577
0	9075	82.692816641931	0.150613860592
0	9085	82.843430502523	0.085234177602
0	9091	82.928664680125	0.093706073677
0	9097	83.022370753802	0.025170909336
0	9102	83.047541663138	0.23405689271
0	9107	83.281598555848	0.067408120692
0	9113	83.34900667654	0.110800534707
0	9119	83.459807211247	0.008330524463
0	9124	83.46813773571	0.051230833076
0	9130	83.519368568786	0.036102077799
0	9135	83.555470646585	0.003004302897
0	9137	83.558474949482	0.045679919056
0	9146	83.604154868538	0.016789139187
0	9151	83.620944007725	0.014760734549
0	9156	83.635704742274	0.015238619759
0	9161	83.650943362033	0.022336657703
0	9167	83.673280019736	0.041861160799
0	9172	83.715141180535	0.003109195976
0	9174	83.718250376511	0.005124896677
0	9179	83.723375273188	0.08618555968
0	9189	83.809560832868	0.056355805847
0	9195	83.865916638715	0.043431589742
0	9200	83.909348228457	0.059682804553
0	9205	83.96903103301	0.002903313602
0	9207	83.971934346612	0.0500524156
0	9216	84.021986762212	0.036659798305
0	9221	84.058646560517	0.092551463669
0	9228	84.151198024186	0.04324336902
0	9234	84.194441393206	0.042797589862
0	9239	84.237238983068	0.076841323281
0	9244	84.314080306349	0.040015419224
0	9249	84.354095725573	0.116984486498
0	9255	84.471080212071	0.031201903637
0	9260	84.502282115708	0.030310716517
0	9265	84.532592832225	0.00865177734
0	9270	84.541244609565	0.212812498858
0	9276	84.754057108423	0.074427835315
0	9283	84.828484943738	0.106432284682
0	9289	84.93491722842	0.017499356929
0	9294	84.952416585349	0.010299622919
0	9299	84.962716208268	0.003015777177
0	9301	84.965731985445	0.015940127802
0	9309	84.981672113247	0.041426785894
0	9314	85.023098899141	0.010510893442
0	9319	85.033609792583	0.02238564176
0	9324	85.055995434343	0.002959387619
0	9326	85.058954821962	0.052333969421
0	9334	85.111288791383	0.086723437286
0	9340	85.198012228669	0.066390511209
0	9345	85.264402739878	0.053045937993
0	9350	85.317448677871	0.066037906033
0	9356	85.383486583904	0.036400521167
0	9361	85.419887105071	0.039599369553
0	9366	85.459486474624	0.00887826862
0	9371	85.468364743244	0.055058738973
0	9376	85.523423482217	0.020953851655
0	9382	85.544377333872	0.052802206517
0	9387	85.597179540389	0.010548983599
0	9392	85.607728523988	0.046693592603
0	9397	85.654422116591	0.023195981996
0	9402	85.677618098587	0.032199580997
0	9407	85.709817679584	0.023650001492
0	9412	85.733467681076	0.059363009503
0	9418	85.792830690579	0.003554142179
0	9420	85.796384832758	0.007452081498
0	9425	85.803836914256	0.016162333833
0	9433	85.819999248089	0.029128679881
0	9438	85.84912792797	8.9803225e-05
0	9440	85.849217731195	0.018336444058
0	9448	85.867554175253	0.011191996876
0	9453	85.878746172129	0.037657568854
0	9458	85.916403740983	0.16915882719
0	9464	86.085562568173	0.008416933622
0	9469	86.093979501795	0.102329152821
0	9474	86.196308654616	0.129485891523
0	9479	86.325794546139	0.012588057755
0	9484	86.338382603894	0.03672613647
0	9489	86.375108740364	0.016026407935
0	9494	86.391135148299	0.006305324222
0	9496	86.397440472521	0.001188291771
0	9498	86.398628764292	0.066805261799
0	9509	86.465434026091	0.033656287257
0	9514	86.499090313348	0.095901140635
0	9519	86.594991453983	0.023716453175
0	9524	86.618707907158	0.010081159841
0	9530	86.628789066999	0.107409720796
0	9535	86.736198787795	0.04266881328
0	9540	86.778867601075	0.037087988842
0	9546	86.815955589917	0.045668608893
0	9552	86.86162419881	0.124837852668
0	9559	86.986462051478	0.040789256454
0	9564	87.027251307932	0.064893338518
0	9570	87.09214464645	0.000649213442
0	9572	87.092793859892	0.016645544231
0	9580	87.109439404123	0.045338602593
0	9585	87.154778006716	0.039600165934
0	9590	87.19437817265	0.054003271658
0	9595	87.248381444308	0.125506242538
0	9604	87.373887686846	0.011332998567
0	9609	87.385220685413	0.330443917256
0	9615	87.715664602669	0.009414802825
0	9620	87.725079405494	0.07049424257
0	9627	87.795573648064	0.088007867469
0	9633	87.883581515533	0.022247448273
0	9638	87.905828963806	0.030221044015
0	9643	87.936050007821	0.039978488277
0	9649	87.976028496098	0.048006190763
0	9654	88.024034686861	0.010057537353
0	9659	88.034092224214	0.008438257054
0	9664	88.042530481268	0.003375869276
0	9666	88.045906350544	0.030294537091
0	9674	88.076200887635	0.043330484346
0	9679	88.119531371981	0.017483437229
0	9685	88.13701480921	0.130706506179
0	9692	88.267721315389	0.061611812114
0	9697	88.329333127503	0.000562147516
0	9699	88.329895275019	0.154114895883
0	9707	88.484010170902	0.022800300071
0	9712	88.506810470973	0.022913132433
0	9717	88.529723603406	0.031652123875
0	9722	88.561375727281	0.027706224317
0	9727	88.589081951598	0.053231540769
0	9732	88.642313492367	0.090059615921
0	9737	88.732373108288	0.025528849201
0	9742	88.757901957489	0.019110529705
0	9747	88.777012487194	0.030150824453
0	9752	88.807163311647	0.017106906339
0	9758	88.824270217986	0.006725855623
0	9760	88.830996073609	0.004949013791
0	9765	88.8359450874	0.019243480164
0	9773	88.855188567564	0.001666177253
0	9775	88.856854744817	0.015831518009
0	9783	88.872686262826	0.074928029726
0	9790	88.947614292552	0.008920157393
0	9795	88.956534449945	0.016608840778
0	9800	88.973143290723	0.027885447917
0	9806	89.00102873864	0.016845466272
0	9812	89.017874204912	0.003822010906
0	9814	89.021696215818	0.013146672968
0	9822	89.034842888786	0.148757246139
0	9828	89.183600134925	0.031007089316
0	9834	89.214607224241	0.230244278341
0	9842	89.444851502582	0.094455439138
0	9848	89.53930694172	0.018656774644
0	9853	89.557963716364	0.181405953194
0	9858	89.739369669558	0.000473618069
0	9860	89.739843287627	0.03123835412
0	9868	89.771081641747	0.013020141798
0	9873	89.784101783545	0.120107944781
0	9879	89.904209728326	0.110624545852
0	9886	90.014834274178	0.107862938449
0	9892	90.122697212627	0.012874192677
0	9897	90.135571405304	0.063509311022
0	9902	90.199080716326	0.007484903299
0	9904	90.206565619625	0.052702156136
0	9912	90.259267775761	0.045583865312
0	9918	90.304851641073	0.061018542684
0	9924	90.365870183757	0.034849867187
0	9930	90.400720050944	0.026069187863
0	9935	90.426789238807	0.050083276954
0	9940	90.476872515761	0.035440951966
0	9947	90.512313467727	0.137047118168
0	9952	90.649360585895	0.002439619087
0	9954	90.651800204982	0.053026797035
0	9963	90.704827002017	0.00055378094
0	9965	90.705380782957	0.047181708311
0	9975	90.752562491268	0.104654030518
0	9982	90.857216521786	0.094949859238
0	9987	90.952166381024	0.043897553204
0	9992	90.996063934228	0.051871267192
0	9999	91.04793520142	0.000602479502
0	10001	91.048537680922	0.046700002759
0	10009	91.095237683681	0.002087404317
0	10011	91.097325087998	0.085027546297
0	10022	91.182352634295	0.03162189485
0	10029	91.213974529145	0.167373865434
0	10034	91.381348394579	0.039170469252
0	10041	91.420518863831	0.038202374449
0	10046	91.45872123828	0.020586267122
0	10051	91.479307505402	0.008029894784
0	10053	91.487337400186	0.002700943927
0	10058	91.490038344113	0.031327328752
0	10066	91.521365672865	0.05564380115
0	10071	91.577009474015	0.004096703095
0	10073	91.58110617711	0.04499099794
0	10082	91.62609717505	0.024650086328
0	10087	91.650747261378	0.013604942542
0	10092	91.66435220392	0.064876890749
0	10097	91.729229094669	0.088211219598
0	10104	91.817440314267	0.076467246131
0	10110	91.893907560398	0.040366986416
0	10116	91.934274546814	0.161492673974
0	10123	92.095767220788	0.013869351665
0	10128	92.109636572453	0.018934016234
0	10133	92.128570588687	0.007626769426
0	10135	92.136197358113	0.090675236891
0	10144	92.226872595004	0.051179258823
0	10151	92.278051853827	0.036446251051
0	10156	92.314498104878	0.009419544114
0	10161	92.323917648992	0.002323746871
0	10163	92.326241395863	0.0332729812
0	10171	92.359514377063	0.235034289807
0	10178	92.59454866687	0.045651645544
0	10184	92.640200312414	0.063247822393
0	10189	92.703448134807	0.062890098287
0	10194	92.766338233094	0.092816669212
0	10201	92.859154902306	0.019159523483
0	10206	92.878314425789	0.095359621913
0	10212	92.973674047702	0.050084310754
0	10217	93.023758358456	0.016439055992
0	10222	93.040197414448	0.011074775476
0	10227	93.051272189924	0.027314392763
0	10232	93.078586582687	0.073871830507
0	10240	93.152458413194	0.192393309773
0	10246	93.344851722967	0.059351510909
0	10251	93.404203233876	0.016825956747
0	10256	93.421029190623	0.101734242339
0	10261	93.522763432962	0.111175983597
0	10266	93.633939416559	0.18760969346
0	10271	93.821549110019	0.023525678485
0	10277	93.845074788504	0.210211275549
0	10283	94.055286064053	0.081893033655
0	10288	94.137179097708	0.104695546379
0	10294	94.241874644087	0.055487474057
0	10300	94.297362118144	0.041508170343
0	10305	94.338870288487	0.012670809978
0	10310	94.351541098465	0.000816474755
0	10312	94.35235757322	0.066535939077
0	10322	94.418893512297	0.000705811972
0	10324	94.419599324269	0.003056163077
0	10326	94.422655487346	0.064477850742
0	10338	94.487133338088	0.016615226677
0	10343	94.503748564765	0.016525505985
0	10349	94.52027407075	0.057977268556
0	10355	94.578251339306	0.001411820835
0	10357	94.579663160141	0.031514704893
0	10365	94.611177865034	0.030277386241
0	10370	94.641455251275	0.065753760006
0	10375	94.707209011281	0.062331450467
0	10380	94.769540461748	0.06715099627
0	10390	94.836691458018	0.000227057135
0	10392	94.836918515153	0.107854763989
0	10401	94.944773279142	0.037068016499
0	10406	94.981841295641	0.065222986274
0	10411	95.047064281915	0.087494124444
0	10417	95.134558406359	0.015338721919
0	10424	95.149897128278	0.016369470579
0	10429	95.166266598857	0.018511036517
0	10434	95.184777635374	0.009210977817
0	10439	95.193988613191	0.021524742476
0	10444	95.215513355667	0.030519386303
0	10449	95.24603274197	0.120230972384
0	10454	95.366263714354	0.004687431146
0	10457	95.3709511455	0.057261864258
0	10465	95.428213009758	0.049334142715
0	10470	95.477547152473	0.097168054626
0	10477	95.574715207099	0.059622192667
0	10482	95.634337399766	0.058659287365
0	10487	95.692996687131	0.0121864298
0	10492	95.705183116931	0.227866646086
0	10497	95.933049763017	0.057627315785
0	10502	95.990677078802	0.004865801314
0	10504	95.995542880116	0.020174940475
0	10512	96.015717820591	0.073693079859
0	10517	96.08941090045	0.084611840772
0	10522	96.174022741222	0.000713065806
0	10524	96.174735807028	0.04353618542
0	10532	96.218271992448	0.043219749533
0	10537	96.261491741981	0.028747884474
0	10542	96.290239626455	0.01629430916
0	10547	96.306533935615	0.236054648378
0	10553	96.542588583993	0.003949538011
0	10555	96.546538122004	0.043238350397
0	10564	96.589776472401	0.018813112213
0	10569	96.608589584614	0.062107204238
0	10574	96.670696788852	0.017048229474
0	10579	96.687745018326	0.018483647789
0	10584	96.706228666115	0.072016415826
0	10589	96.778245081941	0.028953089856
0	10595	96.807198171797	0.010827555575
0	10600	96.818025727372	0.064037424554
0	10605	96.882063151926	0.033157037586
0	10611	96.915220189512	0.050216825535
0	10616	96.965437015047	0.01376115785
0	10621	96.979198172897	0.059042557839
0	10626	97.038240730736	0.00986063349
0	10631	97.048101364226	0.038453874897
0	10636	97.086555239123	0.069991800487
0	10641	97.15654703961	0.044753390401
0	10646	97.201300430011	0.066326298618
0	10652	97.267626728629	0.007095164526
0	10654	97.274721893155	0.0557776441
0	10663	97.330499537255	0.129492087695
0	10672	97.45999162495	0.046752937924
0	10677	97.506744562874	0.001021171581
0	10679	97.507765734455	0.002183139268
0	10681	97.509948873723	0.039569819309
0	10692	97.549518693032	0.009840038705
0	10697	97.559358731737	0.012701414812
0	10703	97.572060146549	0.015147376666
0	10708	97.587207523215	0.065777260592
0	10713	97.652984783807	0.21563103718
0	10719	97.868615820987	0.003838659802
0	10721	97.872454480789	0.070905516806
0	10729	97.943359997595	0.020224072744
0	10734	97.963584070339	0.104638007257
0	10739	98.068222077596	0.006187624241
0	10741	98.074409701837	0.104625041279
0	10749	98.179034743116	0.099506386245
0	10756	98.278541129361	0.016580167969
0	10761	98.29512129733	0.007486187704
0	10763	98.302607485034	0.0019323106
0	10768	98.304539795634	0.034360243846
0	10776	98.33890003948	0.089156097542
0	10784	98.428056137022	0.064156211898
0	10790	98.49221234892	0.054632264196
0	10797	98.546844613116	0.006419988913
0	10799	98.553264602029	0.016107392415
0	10807	98.569371994444	0.022721632938
0	10812	98.592093627382	0.037967384937
0	10817	98.630061012319	0.026501745534
0	10822	98.656562757853	0.039232569321
0	10828	98.695795327174	0.008247673138
0	10833	98.704043000312	0.057133088982
0	10840	98.761176089294	0.025561470237
0	10845	98.786737559531	0.037081405929
0	10850	98.82381896546	0.083900224992
0	10855	98.907719190452	0.055327498817
0	10861	98.963046689269	0.044605200278
0	10867	99.007651889547	0.016521878654
0	10873	99.024173768201	0.020213065712
0	10878	99.044386833913	0.07903334087
0	10883	99.123420174783	0.026548765306
0	10889	99.149968940089	0.015758113867
0	10894	99.165727053956	0.052394197949
0	10900	99.218121251905	0.047284096977
0	10905	99.265405348882	0.165325528955
0	10911	99.430730877837	0.015294520125
0	10916	99.446025397962	0.056794800782
0	10921	99.502820198744	0.04999147531
0	10926	99.552811674054	0.037437809207
0	10932	99.590249483261	0.071572039035
0	10938	99.661821522296	0.024151094541
0	10943	99.685972616837	0.121030224316
0	10950	99.807002841153	0.03808794909
0	10955	99.845090790243	0.330980345399
0	10960	100.176071135642	0.004175943517
0	10962	100.180247079159	0.036425412102
0	10970	100.216672491261	0.003887787481
0	10972	100.220560278742	0.092048918209
0	10981	100.312609196951	0.014793431847
0	10986	100.327402628798	0.061068591323
0	10992	100.388471220121	0.080975433564
0	10997	100.469446653685	0.015878714956
0	11002	100.485325368641	0.032244031061
0	11007	100.517569399702	0.031729300821
0	11012	100.549298700523	0.04959542741
0	11017	100.598894127933	0.057232630954
0	11022	100.656126758887	0.040428152763
0	11027	100.69655491165	0.006924968967
0	11029	100.703479880617	0.057299707029
0	11038	100.760779587646	0.242244674433
0	11045	101.003024262079	0.020060785341
0	11050	101.02308504742	0.049779869615
0	11056	101.072864917035	0.030276224032
0	11061	101.103141141067	0.044209303739
0	11066	101.147350444806	0.039702809068
0	11071	101.187053253874	0.11120061202
0	11076	101.298253865894	0.0379402979
0	11081	101.336194163794	0.023699369485
0	11087	101.359893533279	0.020654700359
0	11092	101.380548233638	0.04657163678
0	11097	101.427119870418	0.038254613162
0	11102	101.46537448358	0.042671540589
0	11108	101.508046024169	0.009448653982
0	11113	101.517494678151	0.039466687007
0	11118	101.556961365158	0.095366726026
0	11124	101.652328091184	0.00491631971
0	11126	101.657244410894	0.016784710141
0	11134	101.674029121035	0.095050894112
0	11140	101.769080015147	0.045813797665
0	11145	101.814893812812	0.034263305527
0	11150	101.849157118339	0.146456339652
0	11156	101.995613457991	0.056430481567
0	11161	102.052043939558	0.013222916212
0	11166	102.06526685577	0.054521488383
0	11171	102.119788344153	0.02642727785
0	11176	102.146215622003	0.002561053208
0	11178	102.148776675211	0.009370968051
0	11183	102.158147643262	0.001014473154
0	11185	102.159162116416	0.096660499777
0	11196	102.255822616193	0.083158205368
0	11201	102.338980821561	0.042926104072
0	11207	102.381906925633	0.066475433329
0	11212	102.448382358962	0.065279223613
0	11217	102.513661582575	8.5214969e-05
0	11219	102.513746797544	0.025409163957
0	11228	102.539155961501	0.020464950622
0	11233	102.559620912123	0.069692538483
0	11239	102.629313450606	0.015121908071
0	11245	102.644435358677	0.278170327606
0	11252	102.922605686283	0.070450480386
0	11258	102.993056166669	0.010115675955
0	11263	103.003171842624	0.018960644985
0	11268	103.022132487609	0.018467821499
0	11273	103.040600309108	0.011573303061
0	11278	103.052173612169	0.083026437108
0	11285	103.135200049277	0.078262995105
0	11291	103.213463044382	0.230635150658
0	11298	103.44409819504	0.244795027318
0	11305	103.688893222358	0.132747641574
0	11311	103.821640863932	0.095050159083
0	11316	103.916691023015	0.048982581092
0	11321	103.965673604107	0.035051075977
0	11326	104.000724680084	0.060789058612
0	11332	104.061513738696	0.052413446885
0	11337	104.113927185581	0.030114754308
0	11342	104.144041939889	0.048118085938
0	11347	104.192160025827	0.115520421655
0	11354	104.307680447482	0.020072235199
0	11359	104.327752682681	0.065310579323
0	11364	104.393063262004	0.064256995835
0	11370	104.457320257839	0.005343100582
0	11372	104.462663358421	0.11087328491
0	11380	104.573536643331	0.081942448176
0	11385	104.655479091507	0.090225086843
0	11392	104.74570417835	0.033043564848
0	11397	104.778747743198	0.015923412626
0	11402	104.794671155824	0.008833023355
0	11407	104.803504179179	0.038721566455
0	11412	104.842225745634	0.123211818697
0	11417	104.965437564331	0.031436140031
0	11423	104.996873704362	0.006464647694
0	11425	105.003338352056	0.022918284007
0	11434	105.026256636063	0.046412406768
0	11440	105.072669042831	0.045635751046
0	11446	105.118304793877	0.052021315152
0	11451	105.170326109029	0.119223384179
0	11456	105.289549493208	0.014333801768
0	11462	105.303883294976	0.019532736
0	11467	105.323416030976	0.045029633654
0	11473	105.36844566463	0.051552354189
0	11478	105.419998018819	0.141682155324
0	11484	105.561680174143	0.029943025593
0	11489	105.591623199736	0.001091160319
0	11491	105.592714360055	0.033379231168
0	11499	105.626093591223	0.038593152033
0	11504	105.664686743256	0.000812131653
0	11506	105.665498874909	0.052921029928
0	11514	105.718419904837	0.013241956026
0	11519	105.731661860863	0.012653089162
0	11524	105.744314950025	0.01385182063
0	11529	105.758166770655	0.013175204314
0	11534	105.771341974969	0.006647851408
0	11536	105.777989826377	0.003426807579
0	11541	105.781416633956	0.000126833944
0	11543	105.7815434679	0.026375920741
0	11555	105.807919388641	0.045619353219
0	11560	105.85353874186	0.037134177998
0	11565	105.890672919858	0.007980110734
0	11570	105.898653030592	0.104494953711
0	11578	106.003147984303	0.007964397542
0	11583	106.011112381845	0.080250638464
0	11588	106.091363020309	0.131914910823
0	11595	106.223277931132	0.013234056444
0	11600	106.236511987576	0.042544934298
0	11607	106.279056921874	0.013203011456
0	11612	106.29225993333	0.016933116524
0	11617	106.309193049854	0.025850514549
0	11622	106.335043564403	0.002242115832
0	11624	106.337285680235	0.059244201613
0	11633	106.396529881848	0.027408976156
0	11638	106.423938858004	0.025042908892
0	11643	106.448981766896	0.056401740365
0	11648	106.505383507261	0.000471582607
0	11650	106.505855089868	0.059680878641
0	11658	106.565535968509	0.058284031991
0	11663	106.6238200005	0.03273093539
0	11668	106.65655093589	0.008553782252
0	11673	106.665104718142	0.050017495439
0	11679	106.715122213581	0.014261485464
0	11684	106.729383699045	0.012132620895
0	11689	106.74151631994	0.147576024047
0	11694	106.889092343987	0.040759981551
0	11700	106.929852325538	0.006647002763
0	11702	106.936499328301	0.007443299163
0	11707	106.943942627464	0.009951170961
0	11715	106.953893798425	0.022338295624
0	11720	106.976232094049	0.006003860967
0	11722	106.982235955016	0.012067481171
0	11730	106.994303436187	0.029307916577
0	11735	107.023611352764	0.139117912496
0	11740	107.16272926526	0.024121443707
0	11746	107.186850708967	0.099947883134
0	11751	107.286798592101	0.008540488373
0	11756	107.295339080474	0.06403573766
0	11761	107.359374818134	0.004321099673
0	11763	107.363695917807	0.018342299743
0	11771	107.38203821755	0.0791005063
0	11778	107.46113872385	0.003533968171
0	11780	107.464672692021	0.028863393318
0	11788	107.493536085339	0.016544991411
0	11793	107.51008107675	0.051688904067
0	11799	107.561769980817	0.000730000962
0	11801	107.562499981779	0.008933066638
0	11806	107.571433048417	0.0021305125
0	11808	107.573563560917	0.128640686934
0	11823	107.702204247851	0.017791568998
0	11828	107.719995816849	0.041877569999
0	11834	107.761873386848	0.037282787583
0	11839	107.799156174431	0.003172171098
0	11841	107.802328345529	0.013483188956
0	11849	107.815811534485	0.017620652616
0	11854	107.833432187101	0.018723548096
0	11859	107.852155735197	0.005681553544
0	11861	107.857837288741	0.040798638401
0	11869	107.898635927142	0.030041391284
0	11874	107.928677318426	0.077686651668
0	11880	108.006363970094	0.025033199292
0	11885	108.031397169386	0.034359330918
0	11890	108.065756500304	0.01913480535
0	11895	108.084891305654	0.123814061182
0	11902	108.208705366836	0.173298133229
0	11908	108.382003500065	0.002393825326
0	11910	108.384397325391	0.028326575623
0	11918	108.412723901014	0.064417680309
0	11923	108.477141581323	0.024144400087
0	11928	108.50128598141	0.018278565375
0	11933	108.519564546785	0.023392301593
0	11938	108.542956848378	0.03703662035
0	11943	108.579993468728	0.044604544561
0	11948	108.624598013289	0.056098182344
0	11954	108.680696195633	0.002938646107
0	11956	108.68363484174	0.020804416531
0	11964	108.704439258271	0.00526715607
0	11967	108.709706414341	0.008117383952
0	11972	108.717823798293	0.017455529152
0	11980	108.735279327445	0.138212832389
0	11988	108.873492159834	0.013960669042
0	11993	108.887452828876	0.011729001527
0	11999	108.899181830403	0.014493686011
[...]
19	30902	277.630340914486	2.7812661334206
19	31158	280.411607047907	1.1936011449816
19	31256	281.605208192889	0.12119876335587
19	31271	281.726406956245	4.9455260580176
19	31811	286.671933014263	0.87937744679566
19	31896	287.551310461059	0.88138441769422
19	31976	288.432694878753	0.10145929360929
19	31987	288.534154172362	0.27241239835842
19	32023	288.80656657072	0.93277992787872
19	32101	289.739346498599	0.72034756511548
19	32181	290.459694063714	3.6179375135192
19	32510	294.077631577233	0.39304958884977
19	32551	294.470681166083	0.32528842051356
19	32592	294.795969586597	9.3965713186203
19	33553	304.192540905217	1.5356732185816
19	33695	305.728214123799	0.38241880922842
19	33744	306.110632933027	1.2991651894025
19	33886	307.40979812243	0.13006045219404
19	33921	307.539858574624	1.1324237956715
19	34042	308.672282370296	3.3856046763882
19	34345	312.057887046684	0.37977248669621
19	34364	312.43765953338	0.067495257075911
19	34375	312.505154790456	1.6056499690222
19	34519	314.110804759478	0.56021279957111
19	34596	314.671017559049	0.57723853540609
19	34648	315.248256094455	1.8584339578662
19	34850	317.106690052321	4.0220784789572
19	35182	321.128768531278	5.8065153413512
19	35888	326.935283872629	0.47899500523462
19	35904	327.414278877864	2.6052018377376
19	36151	330.019480715602	1.6325176704507
19	36360	331.651998386053	1.4525140954612
19	36521	333.104512481514	2.9395320317553
19	36850	336.044044513269	0.52646118840508
19	36900	336.570505701674	0.0077986309129905
19	36901	336.578304332587	0.79696795675027
19	36968	337.375272289337	3.8083856754215
19	37433	341.183657964758	0.26165457130105
19	37455	341.445312536059	0.25841175904741
19	37497	341.703724295106	0.55559607886252
19	37555	342.259320373969	0.23091378155376
19	37586	342.490234155523	4.6154273413159
19	38087	347.105661496839	2.2368222180923
19	38345	349.342483714931	0.24424056308255
19	38363	349.586724278014	0.45738992767893
19	38420	350.044114205693	1.0859466153453
19	38584	351.130060821038	2.5311303981565
19	38830	353.661191219194	1.914325524768
19	39067	355.575516743962	0.2335091121453
19	39093	355.809025856107	0.44269457022643
19	39119	356.251720426333	0.11310134178914
19	39121	356.364821768122	1.3283386924515
19	39287	357.693160460573	0.40521043783149
19	39334	358.098370898404	6.970742855667
19	40195	365.069113754071	0.22921396615115
19	40221	365.298327720222	1.2770754312618
19	40356	366.575403151484	1.5034418169312
19	40511	368.078844968415	0.94089897882629
19	40628	369.019743947241	1.0400971834387
19	40738	370.05984113068	2.6336130664654
19	40986	372.693454197145	1.138480719939
19	41095	373.831934917084	0.31082062140656
19	41132	374.142755538491	0.023527885814872
19	41133	374.166283424306	2.5399551528537
19	41459	376.70623857716	0.30536859666551
19	41478	377.011607173826	8.7255254259942
19	42396	385.73713259982	3.085535299568
19	42709	388.822667899388	1.2864381880332
19	42816	390.109106087421	2.8541772344057
19	43124	392.963283321827	1.6026152426565
19	43265	394.565898564483	1.3997061516048
19	43374	395.965604716088	2.8555115757464
19	43702	398.821116291834	0.1654031311946
19	43710	398.986519423029	0.94524654603092
19	43804	399.93176596906	0.24071029800517
20	1894	17.196593108799	3.3736333468252
20	2289	20.570226455624	2.6211919986928
20	2535	23.191418454317	0.84354884026625
20	2644	24.034967294583	1.1243962644077
20	2790	25.159363558991	0.10867066192198
20	2793	25.268034220913	11.266633096871
20	4044	36.534667317784	1.7418297029726
20	4214	38.276497020757	0.71629995206227
20	4288	38.992796972819	1.1205599851435
20	4442	40.113356957963	0.71569790329112
20	4508	40.829054861254	0.021416507313317
20	4514	40.850471368567	1.3224358741707
20	4660	42.172907242738	5.1956152430824
20	5273	47.36852248582	2.0586257144616
20	5445	49.427148200282	0.30559480598538
20	5467	49.732743006267	0.23013213925457
20	5483	49.962875145522	0.33537498982973
20	5526	50.298250135352	2.6370057961023
20	5802	52.935255931454	0.64974347055156
20	5858	53.584999402006	6.4747060721356
20	6725	60.059705474142	2.4000340194286
20	7054	62.459739493571	0.18405365730408
20	7065	62.643793150875	1.8100239016673
20	7234	64.453817052542	0.91281372671137
20	7274	65.366630779253	0.89286649560335
20	7384	66.259497274856	1.7405944993961
20	7587	68.000091774252	3.3966552643448
20	7907	71.396747038597	0.60951068951789
20	8002	72.006257728115	3.3424004220093
20	8355	75.348658150124	2.1077675188361
20	8615	77.45642566896	2.9874620653669
20	8880	80.443887734327	0.2748589023869
20	8912	80.718746636714	1.0612012931062
20	8987	81.77994792982	0.48967223175892
20	9031	82.269620161579	1.2992935093667
20	9142	83.568913670946	4.2520277238716
20	9632	87.820941394818	2.5656914803127
20	9929	90.386632875131	0.098674821566245
20	9942	90.485307696697	0.32760486251573
20	9980	90.812912559213	1.0545112382604
20	10109	91.867423797473	0.3130324468603
20	10143	92.180456244333	1.9888138420886
20	10293	94.169270086422	0.96690681255929
20	10419	95.136176898981	2.1917917742875
20	10662	97.327968673268	0.47139046470847
20	10718	97.799359137976	1.1663379592701
20	10863	98.965697097246	0.044928154699667
20	10869	99.010625251946	6.9129480908575
20	11575	105.923573342804	0.23446177265803
20	11594	106.158035115462	1.84035791657
20	11879	107.998393032032	1.808522605168
20	12098	109.8069156372	0.33677401846851
20	12139	110.143689655669	0.12396267881047
20	12146	110.267652334479	1.0979242630467
20	12251	111.365576597526	0.66130207049116
20	12344	112.026878668017	4.3196067244411
20	12806	116.346485392458	6.4149003171084
20	13593	122.761385709566	0.2675715372766
20	13612	123.028957246843	0.33439964847304
20	13663	123.363356895316	2.1168909787123
20	13988	125.480247874028	0.0097029143494062
20	13992	125.489950788377	1.4862975378325
20	14172	126.97624832621	0.22635133811084
20	14203	127.202599664321	0.19706144805081
20	14219	127.399661112372	3.6398959478897
20	14626	131.039557060262	2.0599121411697
20	14859	133.099469201432	0.15700415266151
20	14872	133.256473354094	0.45596259331493
20	14893	133.712435947409	0.77047289690499
20	14974	134.482908844314	2.0420824719309
20	15237	136.524991316245	0.5241996845651
20	15289	137.04919100081	1.3193860369702
20	15407	138.36857703778	1.9878655003848
20	15669	140.356442538165	0.13733964349016
20	15677	140.493782181655	0.30872662587457
20	15705	140.80250880753	0.10242996860635
20	15713	140.904938776136	0.2780336894293
20	15730	141.182972465565	1.1285179553026
20	15868	142.311490420868	1.1381800159085
20	15979	143.449670436776	1.0532282694592
20	16086	144.502898706235	0.90042576277304
20	16170	145.403324469008	1.0291592597086
20	16309	146.432483728717	5.3119657179379
20	16967	151.744449446655	0.79489309698901
20	17087	152.539342543644	0.19732781735853
20	17114	152.736670361003	1.6101910906113
20	17309	154.346861451614	4.9276153199328
20	17848	159.274476771547	0.49479374718374
20	17910	159.769270518731	0.22171338643727
20	17934	159.990983905168	1.1380746830676
20	18067	161.129058588236	0.50518282523317
20	18100	161.634241413469	0.24777557419435
20	18134	161.882016987663	2.5356642340742
20	18367	164.417681221737	7.1069185282508
20	19077	171.524599749988	0.76475683850207
20	19173	172.28935658849	2.5953374144345
20	19424	174.884694002924	4.8320397298441
20	19968	179.716733732768	4.520477516438
20	20477	184.237211249206	5.3287505080775
20	21039	189.565961757284	0.29579612987943
20	21080	189.861757887163	2.7337625601907
20	21445	192.595520447354	1.0833277077091
20	21577	193.678848155063	1.5813340409824
20	21754	195.260182196045	1.4073618631506
20	21973	196.667544059196	8.1655416639323
20	22879	204.833085723128	0.12814288216682
20	22893	204.961228605295	0.041971828259361
20	22894	205.003200433554	0.091760503285567
20	22902	205.09496093684	0.97072108564412
20	23028	206.065682022484	3.6290155667578
20	23376	209.694697589242	2.2413184534965
20	23632	211.936016042739	2.9549162810957
20	23924	214.890932323835	3.4510818810193
20	24402	218.342014204854	1.7840659085146
20	24618	220.126080113369	0.31058838732779
20	24666	220.436668500697	0.28732599435304
20	24687	220.72399449505	0.24205267652728
20	24713	220.966047171577	1.9100860895475
20	24921	222.876133261124	2.3364619079359
20	25106	225.21259516906	0.15286886724679
20	25130	225.365464036307	0.48564654913951
20	25172	225.851110585447	2.9071489062113
20	25441	228.758259491658	6.1906310315097
20	26180	234.948890523168	1.9790661049626
20	26447	236.927956628131	4.4016047903983
20	26921	241.329561418529	0.32866302561216
20	26951	241.658224444141	3.8206636964884
20	27367	245.478888140629	8.1463981244192
20	28181	253.625286265048	0.31485826974086
20	28229	253.940144534789	0.81818510695361
20	28352	254.758329641743	4.1440194655142
20	28859	258.902349107257	1.6449148722264
20	29079	260.547263979483	4.2687733040101
20	29524	264.816037283493	1.5071962014314
20	29670	266.323233484924	0.44637517613463
20	29719	266.769608661059	0.49861532170485
20	29761	267.268223982764	10.187364890388
20	30901	277.455588873152	12.314993016566
20	32102	289.770581889718	2.1108563741033
20	32336	291.881438263821	2.8120577487976
20	32586	294.693496012619	3.2006636830345
20	32931	297.894159695654	1.0686732895035
20	33027	298.962832985157	1.2074131208854
20	33141	300.170246106042	4.1160577695521
20	33564	304.286303875594	0.26255392290683
20	33602	304.548857798501	0.33464929022379
20	33634	304.883507088725	1.9903157173076
20	33834	306.873822806033	0.74136302950385
20	33922	307.615185835537	3.3811063023384
20	34258	310.996292137875	4.8580801785049
20	34706	315.85437231638	0.53374692100606
20	34757	316.388119237386	0.94252246337526
20	34871	317.330641700761	1.7213611791429
20	35039	319.052002879904	1.645652378857
20	35148	320.697655258761	3.3307350984407
20	35513	324.028390357202	2.3773652396664
20	35807	326.405755596868	0.47890261922863
20	35877	326.884658216097	1.7013126960884
20	35998	328.585970912185	0.97139123389276
20	36099	329.557362146078	0.15282266525092
20	36127	329.710184811329	0.73343441748294
20	36183	330.443619228812	1.5784311770241
20	36394	332.022050405836	7.3469787881201
20	37219	339.369029193956	0.5795362433375
20	37279	339.948565437293	1.7008215839092
20	37486	341.649387021202	6.0552251674785
20	38135	347.70461218868	5.3340998504769
20	38781	353.038712039157	0.56090950263212
20	38829	353.599621541789	0.25834548925659
20	38858	353.857967031046	8.9929123714612
20	39866	362.850879402507	0.51515267191567
20	39932	363.366032074423	0.46115227251211
20	40016	363.827184346935	0.065537333656513
20	40032	363.892721680592	6.8189091765697
20	40789	370.711630857162	3.8242967811789
20	41205	374.535927638341	0.53251564274877
20	41290	375.06844328109	0.44378075288928
20	41354	375.512224033979	0.23454848301334
20	41372	375.746772516992	0.40331388180205
20	41411	376.150086398794	4.9596256418808
20	41914	381.109712040675	1.7914682187256
20	42070	382.901180259401	0.074083250840896
20	42086	382.975263510242	1.2788440192543
20	42247	384.254107529496	3.3329173712261
20	42625	387.587024900722	1.886061622814
20	42772	389.473086523536	1.9466920699073
20	42962	391.419778593443	3.5845291868187
20	43282	395.004307780262	1.9147632882936
20	43486	396.919071068556	2.7199446738212
20	43776	399.639015742377	2.5303301000978
21	2377	21.44051303131	3.5807625769635
21	2766	25.021275608273	0.21896868447107
21	2792	25.240244292744	1.2857189517709
21	2907	26.525963244515	2.4276240342926
21	3222	28.953587278808	0.51482631984032
21	3308	29.468413598648	0.75724602316679
21	3373	30.225659621815	0.29144384823481
21	3408	30.51710347005	2.199074957726
21	3683	32.716178427776	1.443547124479
21	3845	34.159725552255	2.1123926908263
21	4008	36.272118243081	1.0872313024425
21	4125	37.359349545524	1.3753948804889
21	4267	38.734744426013	4.8095776042139
21	4827	43.544322030227	0.11105677349227
21	4840	43.655378803719	6.5737613092682
21	5511	50.229140112987	0.43588475324421
21	5560	50.665024866231	1.0311883423633
21	5674	51.696213208594	3.0909498176807
21	6002	54.787163026275	2.440110754667
21	6341	57.227273780942	0.57105924933879
21	6388	57.798333030281	1.473237916362
21	6583	59.271570946643	4.4553527881286
21	7183	63.726923734772	0.70564118131081
21	7228	64.432564916083	1.0873367774234
21	7289	65.519901693506	3.2390406756268
21	7658	68.758942369133	1.8526125734726
21	7835	70.611554942606	1.0380006375516
21	7958	71.649555580158	4.3237428916685
21	8420	75.973298471827	4.4523320384975
21	8879	80.425630510324	0.84832717711258
21	8944	81.273957687437	1.4359408932993
21	9083	82.709898580736	0.19138881947544
21	9090	82.901287400211	0.09611071093417
21	9096	82.997398111145	0.78799956736796
21	9188	83.785397678513	0.66216135993225
21	9254	84.447559038445	3.2913684554845
21	9625	87.73892749393	2.3214530935082
21	9891	90.060380587438	0.67037697290033
21	9974	90.730757560338	0.85572445971738
21	10078	91.586482020055	0.18794365329738
21	10102	91.774425673352	1.5133449555241
21	10245	93.287770628876	4.0927110278917
21	10669	97.380481656768	1.8118483563095
21	10899	99.192330013078	4.8560613733524
21	11331	104.04839138643	0.21050926618948
21	11352	104.258900652619	1.9928057074192
21	11605	106.251706360038	0.45849832811491
21	11678	106.710204688153	0.95677392777746
21	11822	107.66697861593	0.98902810384812
21	11953	108.656006719778	0.56518705345817
21	12035	109.221193773236	0.014900732293682
21	12036	109.23609450553	0.42413953589457
21	12064	109.660234041425	0.17306542215737
21	12107	109.833299463582	1.1464982957478
21	12214	110.97979775933	0.30514083016437
21	12239	111.284938589494	4.0001326213166
21	12692	115.285071210811	1.9177339460993
21	12921	117.20280515691	3.5816745681079
21	13373	120.784479725018	0.30397416424877
21	13395	121.088453889267	3.8723464904718
21	13871	124.960800379739	0.89148651435971
21	14013	125.852286894099	1.3338763663772
21	14199	127.186163260476	0.38802612700103
21	14266	127.574189387477	1.7655637674483
21	14432	129.339753154925	6.8185650088006
21	15187	136.158318163726	2.0927625993153
21	15404	138.251080763041	5.6718260630821
21	16011	143.922906826123	1.2018190835225
21	16145	145.124725909646	1.3169825706264
21	16310	146.441708480272	1.1033887643195
21	16447	147.545097244591	0.26179211173384
21	16485	147.806889356325	1.2479281914246
21	16674	149.05481754775	0.64193134546778
21	16722	149.696748893218	0.53437836247333
21	16784	150.231127255691	1.0226078759567
21	16939	151.253735131648	0.3327538223766
21	16957	151.586488954025	0.035863237149118
21	16958	151.622352191174	1.7543881844104
21	17194	153.376740375584	3.4026715488457
21	17540	156.77941192443	0.61523638353896
21	17640	157.394648307969	3.3817857086857
21	18023	160.776434016655	2.228757555351
21	18253	163.005191572006	2.1618337113373
21	18434	165.167025283343	1.3266134621621
21	18587	166.493638745505	4.7157141237755
21	19045	171.209352869281	0.0013298985155332
21	19046	171.210682767797	1.2759947899358
21	19193	172.486677557733	2.0807032142696
21	19395	174.567380772003	0.026807809633898
21	19401	174.594188581637	2.4857737412021
21	19628	177.079962322839	1.0905706555064
21	19759	178.170532978345	1.0709740668666
21	19913	179.241507045212	0.49310177817925
21	19974	179.734608823391	2.7427703035999
21	20292	182.477379126991	3.3228070292949
21	20629	185.800186156286	0.0063265234064385
21	20630	185.806512679692	1.0043656583965
21	20707	186.810878338088	0.59156056785973
21	20771	187.402438905948	15.096063215819
21	22605	202.498502121767	2.9774761979852
21	22970	205.475978319752	0.26137539228992
21	22994	205.737353712042	0.59481549372463
21	23056	206.332169205767	0.31314732470237
21	23085	206.645316530469	3.0259615307155
21	23375	209.671278061185	1.8612319271514
21	23583	211.532509988336	7.0105350717694
21	24420	218.543045060105	0.2941378576556
21	24447	218.837182917761	6.3619823234396
21	25096	225.199165241201	1.3794657441932
21	25240	226.578630985394	2.5362341375943
21	25511	229.114865122988	2.6464142646734
21	25784	231.761279387661	1.6504796201547
21	26033	233.411759007816	2.4894546546516
21	26302	235.901213662468	4.2232708946888
21	26811	240.124484557157	0.63003691561196
21	26874	240.754521472769	0.60315290996157
21	26922	241.357674382731	0.098007172827177
21	26928	241.455681555558	1.7780007512632
21	27099	243.233682306821	2.5889274829509
21	27401	245.822609789772	0.52840958939746
21	27443	246.351019379169	6.8275856268291
21	28127	253.178605005998	0.28875815779852
21	28165	253.467363163797	0.89076620687822
21	28289	254.358129370675	1.7657165272411
21	28531	256.123845897916	0.13184032275319
21	28553	256.255686220669	0.8199600898187
21	28673	257.075646310488	2.2229761571368
21	28900	259.298622467625	0.50696961927876
21	28979	259.805592086904	0.97237922746567
21	29110	260.77797131437	4.1076865404361
21	29541	264.885657854806	1.1849366259724
21	29646	266.070594480778	2.1691240554936
21	29915	268.239718536272	3.5479538655335
21	30272	271.787672401805	1.8887056862624
21	30477	273.676378088067	1.7243634676082
21	30677	275.400741555675	0.72839986956482
21	30778	276.12914142524	2.1572813122212
21	30972	278.286422737461	1.1717838905921
21	31094	279.458206628053	0.90705917760115
21	31157	280.365265805654	0.18652309433467
21	31159	280.551788899989	3.8102933871951
21	31554	284.362082287184	1.1173069076159
21	31662	285.4793891948	1.0102016372566
21	31783	286.489590832057	0.21460612613606
21	31812	286.704196958193	0.77733002680621
21	31891	287.481526984999	2.5118415497503
21	32134	289.993368534749	4.2642706447404
21	32533	294.257639179489	0.28183433860362
21	32563	294.539473518093	0.30084805425952
21	32595	294.840321572353	3.8558600355534
21	33001	298.696181607906	4.8680173625815
21	33489	303.564198970487	3.1823537455223
21	33796	306.746552716009	0.77849289337073
21	33917	307.52504560938	1.3544589483871
21	34048	308.879504557767	0.32469881761854
21	34090	309.204203375386	3.0451001860961
21	34349	312.249303561482	2.5552271575894
21	34614	314.804530719071	1.5210942920211
21	34755	316.325625011092	0.056884858550959
21	34756	316.382509869643	5.1145835572326
21	35227	321.497093426876	0.59532154499535
21	35281	322.092414971871	0.58678796104656
21	35373	322.679202932918	0.22605681994003
21	35407	322.905259752858	0.20536719494029
21	35418	323.110626947798	2.8047021403514
21	35732	325.915329088149	8.0137238245346
21	36623	333.929052912684	0.053293681421753
21	36630	333.982346594106	0.50959533399675
21	36673	334.491941928103	1.3106098949039
21	36813	335.802551823007	1.7841925206727
21	36984	337.58674434368	2.8700832328141
21	37363	340.456827576494	0.45392290931641
21	37399	340.91075048581	1.1705299529832
21	37544	342.081280438793	0.86652526780287
21	37636	342.947805706596	1.8707948498938
21	37836	344.81860055649	1.7638817451872
21	38043	346.582482301677	0.7798310595364
21	38111	347.362313361213	2.5836851091589
21	38413	349.945998470372	0.71020999649254
21	38515	350.656208466865	0.14145006197115
21	38531	350.797658528836	0.028828785591865
21	38539	350.826487314428	0.19355978922022
21	38575	351.020047103648	1.6736246385655
21	38732	352.693671742214	2.2403252549118
21	38959	354.933996997126	0.22996744862624
21	39006	355.163964445752	2.2904255061083
21	39257	357.45438995186	1.9811530289456
21	39489	359.435542980806	1.8322610439035
21	39667	361.26780402471	0.89529883602668
21	39786	362.163102860737	2.5632163547403
21	40151	364.726319215477	1.8464538157731
21	40355	366.57277303125	0.85370897243002
21	40429	367.42648200368	5.0003269828592
21	40949	372.426808986539	3.0523537846248
21	41344	375.479162771164	0.24071994891164
21	41371	375.719882720076	1.0016838739478
21	41460	376.721566594024	0.99976542790574
21	41535	377.72133202193	4.867306038892
21	42046	382.588638060822	1.4810789155409
21	42213	384.069716976363	1.1186040403323
21	42346	385.188321016695	0.71099823673697
21	42417	385.899319253432	0.31732907232363
21	42462	386.216648325756	0.61506012310119
21	42525	386.831708448857	0.65984735921029
21	42618	387.491555808067	1.2531010050245
21	42703	388.744656813092	2.5574469673879
21	42948	391.30210378048	0.031411597003419
21	42951	391.333515377483	5.6780527135256
21	43497	397.011568091009	1.5986630644298
21	43666	398.610231155439	0.91238763377907
21	43754	399.522618789218	3.3056198179372

