version 2
run Nonmonitoring-exponential-532-20210224-17:49:31-27064
attr configname Nonmonitoring-exponential
attr datetime 20210224-17:49:31
attr experiment Nonmonitoring-exponential
attr inifile aerocom.ini
attr iterationvars $0=50
attr iterationvarsf 50-
attr measurement $0=50
attr network Aerocom
attr processid 27064
attr repetition 32
attr replication #32
attr resultdir results
attr runnumber 532
attr seedset 32
param **.t 2s
param **.k 50ms
param **.X 0.05s
param **.m 1s
param **.tDistribution "\"exponential\""
param **.operationMode 1
param **.s "70 byte"
param **.dimPoolMax 10000
param **.dimPoolMin 8000
param **.nDL 16
param **.nA 1
param **.DLMaxCapacity 0
param **.trasmitting false

vector 0 Aerocom.aircraft[0].linkSelector responseTime:vector ETV
attr "" ""
attr source computeResponseTime
vector 1 Aerocom.aircraft[0].packetGenerator arrivalTime:vector ETV
attr "" ""
attr source computeArrivalTime
vector 2 Aerocom.aircraft[0].linkSelector waitingTime:vector ETV
attr "" ""
attr source computeWaitingTime
vector 3 Aerocom.aircraft[0].linkSelector queueLength:vector ETV
attr "" ""
attr source computeQueueLength
vector 4 Aerocom.aircraft[0].dataLink[0] actualCapacity:vector ETV
attr "" ""
attr source computeActualCapacity
vector 5 Aerocom.aircraft[0].linkSelector serviceTime:vector ETV
attr "" ""
attr source computeServiceTime
vector 6 Aerocom.aircraft[0].dataLink[11] tDistribution:vector ETV
attr "" ""
attr source computeTDistribution
vector 7 Aerocom.aircraft[0].dataLink[8] tDistribution:vector ETV
attr "" ""
attr source computeTDistribution
vector 8 Aerocom.aircraft[0].dataLink[0] tDistribution:vector ETV
attr "" ""
attr source computeTDistribution
vector 9 Aerocom.aircraft[0].dataLink[10] tDistribution:vector ETV
attr "" ""
attr source computeTDistribution
vector 10 Aerocom.aircraft[0].dataLink[2] tDistribution:vector ETV
attr "" ""
attr source computeTDistribution
vector 11 Aerocom.aircraft[0].dataLink[4] tDistribution:vector ETV
attr "" ""
attr source computeTDistribution
vector 12 Aerocom.aircraft[0].dataLink[6] tDistribution:vector ETV
attr "" ""
attr source computeTDistribution
vector 13 Aerocom.aircraft[0].dataLink[7] tDistribution:vector ETV
attr "" ""
attr source computeTDistribution
vector 14 Aerocom.aircraft[0].dataLink[13] tDistribution:vector ETV
attr "" ""
attr source computeTDistribution
vector 15 Aerocom.aircraft[0].dataLink[1] tDistribution:vector ETV
attr "" ""
attr source computeTDistribution
vector 16 Aerocom.aircraft[0].dataLink[12] tDistribution:vector ETV
attr "" ""
attr source computeTDistribution
vector 17 Aerocom.aircraft[0].dataLink[9] tDistribution:vector ETV
attr "" ""
attr source computeTDistribution
vector 18 Aerocom.aircraft[0].dataLink[5] tDistribution:vector ETV
attr "" ""
attr source computeTDistribution
vector 19 Aerocom.aircraft[0].dataLink[14] tDistribution:vector ETV
attr "" ""
attr source computeTDistribution
vector 20 Aerocom.aircraft[0].dataLink[3] tDistribution:vector ETV
attr "" ""
attr source computeTDistribution
vector 21 Aerocom.aircraft[0].dataLink[15] tDistribution:vector ETV
attr "" ""
attr source computeTDistribution
0	1040	10.001953986802	0.00770161734
0	1045	10.041940560969	0.007736516357
0	1052	10.131542308654	0.007815116669
0	1055	10.139364411682	0.009644301874
0	1060	10.149280703621	0.007830853563
0	1065	10.210165334483	0.007884658707
0	1071	10.244629830005	0.007915865656
0	1076	10.343596850664	0.008007320979
0	1086	10.407727946262	0.008067304368
0	1089	10.415802695368	0.014889209648
0	1092	10.423885836246	0.021387961796
0	1098	10.546253845398	0.008200562324
0	1103	10.569950599478	0.008223684211
0	1111	10.659509012933	0.008263487192
0	1116	10.701039911518	0.008273253753
0	1121	10.72537845512	0.008279124778
0	1126	10.865396184887	0.008311564949
0	1131	10.879258033862	0.008314526666
0	1138	10.943799166165	0.008330358205
0	1144	10.969113323684	0.008336310587
0	1151	11.032559467106	0.008351228824
0	1154	11.040912689063	0.009682764705
0	1160	11.229093501672	0.00839731286
0	1170	11.39612602051	0.00843678438
0	1175	11.454160371872	0.008451044308
0	1181	11.465047086	0.00845410628
0	1186	11.486417043085	0.008459214502
0	1191	11.498197878058	0.008462282398
0	1197	11.589867834568	0.008475602373
0	1203	11.648356716021	0.008426628145
0	1209	11.736752981849	0.008352225271
0	1214	11.766241009166	0.008328375967
0	1219	11.813563299697	0.00828892836
0	1224	11.839320822733	0.008268367588
0	1229	11.859363451147	0.008251797713
0	1234	11.903943203665	0.008215962441
0	1241	11.954417312302	0.008175659893
0	1244	11.962586293513	0.013372836361
0	1249	11.973637384314	0.008160410352
0	1254	11.989653929994	0.008148061925
0	1259	12.022255104853	0.008122534231
0	1264	12.037353281791	0.008110300081
0	1270	12.07310926817	0.008082207597
0	1275	12.098964916231	0.008062658374
0	1281	12.223528170877	0.007967220578
0	1287	12.295770785984	0.007913181099
0	1294	12.472409565697	0.007783831869
0	1301	12.49824884143	0.007765697803
0	1304	12.506008513307	0.010169840885
0	1309	12.525769366047	0.007745933385
0	1314	12.555242968698	0.007724564114
0	1319	12.579510711455	0.007707553402
0	1326	12.62945758573	0.007672914611
0	1329	12.637124617493	0.009382255864
0	1334	12.669367362568	0.007645259939
0	1341	12.735279759813	0.007599609163
0	1344	12.742873597956	0.011094701446
0	1350	12.939832023325	0.007461891056
0	1355	12.951381001004	0.007453945267
0	1361	13.005341943755	0.007418397626
0	1368	13.112386231638	0.007349081365
0	1373	13.1315490771	0.007336757153
0	1378	13.141587420528	0.007330610535
0	1383	13.182325025841	0.007304601899
0	1388	13.202482932292	0.007291666667
0	1395	13.30177731962	0.007229911175
0	1400	13.309002753146	0.014246161944
0	1403	13.316223714565	0.013190428462
0	1408	13.376431139103	0.007183908046
0	1414	13.455988044439	0.007139214686
0	1421	13.5055644184	0.007186858316
0	1424	13.512758663004	0.010849639883
0	1429	13.536060374313	0.007216494845
0	1434	13.587677065616	0.00726744186
0	1439	13.62449330764	0.007304601899
0	1445	13.737192212487	0.00741918389
0	1450	13.764096189188	0.007446808511
0	1455	13.789949082733	0.007473841555
0	1461	13.879034056959	0.007572479446
0	1466	13.901515551073	0.007646930304
0	1471	13.917752575753	0.00770161734
0	1476	13.989528495626	0.007953641632
0	1484	14.072027468893	0.008263487192
0	1487	14.080308552532	0.015517863943
0	1494	14.092663393477	0.008281083639
0	1497	14.100944477116	0.009105586174
0	1502	14.135571269435	0.008283043427
0	1507	14.156339490178	0.008284023669
0	1512	14.208094763969	0.008285984848
0	1517	14.267329654995	0.008287946957
0	1522	14.320098298257	0.008289909995
0	1527	14.442086216623	0.008294821661
0	1532	14.597696402258	0.008300723349
0	1538	14.609808884426	0.008300723349
0	1544	14.682373215464	0.008303677343
0	1549	14.703773471451	0.008304662475
0	1554	14.728335008331	0.008305647841
0	1559	14.773194804953	0.008307619274
0	1565	14.868859720864	0.008310578179
0	1570	14.888067915264	0.008311564949
0	1576	14.919642967791	0.008312551953
0	1581	14.935638145435	0.008313539192
0	1588	14.960760685092	0.008314526666
0	1593	14.992564185361	0.008315514374
0	1599	15.001232332026	0.008315514374
0	1606	15.03192573257	0.008317490494
0	1611	15.042241667282	0.008317490494
0	1618	15.090440293828	0.008319467554
0	1621	15.098759761382	0.014111184407
0	1626	15.218607921185	0.008324414318
0	1631	15.257150158178	0.008325404377
0	1636	15.265894536175	0.008326394671
0	1641	15.286262499682	0.008326394671
0	1646	15.366685138798	0.008329366968
0	1654	15.467117428215	0.008333333333
0	1664	15.709422291518	0.008343265793
0	1669	15.75324526398	0.008344260341
0	1675	15.816945605135	0.008347245409
0	1680	15.846466421539	0.008348240906
0	1685	15.881868018105	0.008349236641
0	1695	15.910110225153	0.008351228824
0	1698	15.918461453977	0.014277494264
0	1701	15.926812682801	0.019638356808
0	1707	15.999568905758	0.008354218881
0	1712	16.020237995489	0.008355216042
0	1718	16.062594547012	0.008356213442
0	1723	16.07746119406	0.008357211079
0	1730	16.14997527797	0.008331349679
0	1735	16.247368243734	0.008253743662
0	1740	16.314411435495	0.008202484181
0	1745	16.334417386367	0.008187134503
0	1750	16.365495660013	0.008163265306
0	1756	16.413639700303	0.008126306013
0	1762	16.490773403567	0.008068234209
0	1767	16.516248546743	0.008049678013
0	1772	16.584344486524	0.007999085819
0	1777	16.606898920963	0.007982666211
0	1782	16.633764819625	0.007963594994
0	1788	16.701611931342	0.007914075749
0	1796	16.829993252074	0.007822977202
0	1801	16.840554623325	0.007815989281
0	1806	16.85815200674	0.007803790412
0	1812	16.873772717536	0.007792496939
0	1820	16.989615425663	0.008249852681
0	1827	17.063515000105	0.008244994111
0	1832	17.106512037679	0.008242081714
0	1837	17.148177013319	0.008239171375
0	1842	17.200862852279	0.00823626309
0	1847	17.304139322279	0.008229485069
0	1853	17.374320012932	0.008224650452
0	1859	17.43411238677	0.008220786847
0	1864	17.474597515439	0.008217891524
0	1869	17.515406929733	0.00821499824
0	1876	17.55713824216	0.008212106992
0	1881	17.565350349152	0.012563891021
0	1885	17.573561492847	0.009059532388
0	1891	17.690102893027	0.008203445447
0	1898	17.723972504563	0.00820152314
0	1904	17.770718354621	0.008197681227
0	1910	17.880757168126	0.008190966534
0	1916	17.972111339183	0.008185219832
0	1921	17.985347398949	0.008184262832
0	1928	18.013159738451	0.008182349503
0	1931	18.021341131625	0.009104785606
0	1937	18.051382303163	0.008179481187
0	1942	18.094624685084	0.008176614881
0	1948	18.134733357018	0.008173750584
0	1953	18.254943348209	0.008166122259
0	1958	18.268089204239	0.008165169719
0	1963	18.28692177076	0.008164217401
0	1968	18.302310489955	0.008163265306
0	1973	18.359583020992	0.008159459144
0	1978	18.42053637117	0.00815565653
0	1987	18.46619173048	0.008151857459
0	1990	18.474343587939	0.015798660042
0	1995	18.485590385338	0.008150908244
0	2002	18.550577832243	0.008147113594
0	2005	18.558723997727	0.011254591656
0	2010	18.593322706898	0.008144269924
0	2018	18.664666774801	0.008139534884
0	2023	18.672805363337	0.010727645802
0	2028	18.680943951873	0.013988926799
0	2031	18.689081594282	0.013460610889
0	2036	18.730581984249	0.008134805346
0	2041	18.785350596024	0.008131025671
0	2046	18.946835765949	0.008120649652
0	2051	19.051961064269	0.008114060508
0	2056	19.080967759827	0.008112179859
0	2061	19.104333014628	0.008110300081
0	2069	19.181522245683	0.008105604447
0	2074	19.189626911655	0.00912843223
0	2077	19.197731577627	0.014971750171
0	2082	19.233792172017	0.008101851852
0	2088	19.34083995178	0.008106543138
0	2095	19.452539570855	0.008118765948
0	2101	19.567560888291	0.00813197026
0	2107	19.638740838916	0.008139534884
0	2112	19.669328363899	0.008143322476
0	2117	19.705380237873	0.008147113594
0	2123	19.765172128428	0.008153756552
0	2128	19.778951563584	0.00815565653
0	2133	19.872536864118	0.008166122259
0	2139	20.015990510926	0.008182349503
0	2145	20.060407462765	0.008187134503
0	2150	20.075739695653	0.00818905007
0	2155	20.104878402105	0.008191925102
0	2161	20.189440732888	0.00820152314
0	2170	20.425000480345	0.008228517691
0	2175	20.469055213426	0.008233356857
0	2181	20.513737668314	0.008238201718
0	2186	20.522221711616	0.008239171375
0	2191	20.563854756368	0.008244023083
0	2196	20.62295518513	0.008250825083
0	2201	20.659521104395	0.00825569053
0	2207	20.807978776014	0.008272276058
0	2212	20.830808169146	0.008275209836
0	2219	20.873253341989	0.008248880509
0	2224	20.88807852745	0.008227550541
0	2229	20.967157563121	0.008116883117
0	2236	21.04675372863	0.008007320979
0	2242	21.070777105921	0.007975390224
0	2248	21.127092174191	0.007900677201
0	2256	21.161771802485	0.007855459544
0	2259	21.1696166977	0.014483690802
0	2264	21.203328771975	0.007801181322
0	2269	21.226488466928	0.007771733096
0	2274	21.238399611951	0.007757092199
0	2279	21.253538136215	0.007737371504
0	2287	21.426691631241	0.007525263384
0	2292	21.456029886087	0.007490636704
0	2299	21.50647110451	0.007430997877
0	2302	21.513893435122	0.010252917624
0	2309	21.65283201284	0.007264425073
0	2314	21.66107777734	0.007255389718
0	2319	21.672134657556	0.007243377483
0	2325	21.776142093619	0.007130487929
0	2335	21.907514018986	0.007152344947
0	2341	21.961290800047	0.007178014766
0	2346	22.028115882357	0.007209805335
0	2355	22.138708439414	0.007263671267
0	2358	22.145975881274	0.01392400292
0	2365	22.219477336837	0.007303839733
0	2370	22.22678422619	0.009524499938
0	2374	22.234094931151	0.013131021482
0	2381	22.253487729653	0.007320644217
0	2384	22.260811437542	0.014638180595
0	2389	22.27176228124	0.007329075489
0	2396	22.312257043966	0.007349853003
0	2399	22.319610757591	0.007725952267
0	2404	22.491425269705	0.00744047619
0	2409	22.506019164791	0.007448393275
0	2414	22.517107765726	0.007453945267
0	2420	22.559891542381	0.007476236249
0	2425	22.624168553278	0.007509118215
0	2431	22.722919182763	0.0075610283
0	2436	22.74544209562	0.007573298713
0	2441	22.769378539464	0.007586431126
0	2449	22.907662634323	0.007620291748
0	2454	22.939598745276	0.007619462284
0	2460	22.978086929644	0.007619462284
0	2467	23.01539000937	0.007618633
0	2470	23.02300864237	0.011496457144
0	2476	23.041824517762	0.007617803896
0	2481	23.076773542617	0.007617803896
0	2486	23.100969901114	0.007616974973
0	2493	23.110760124077	0.007616974973
0	2496	23.11837709905	0.012386655136
0	2501	23.175027259947	0.00761614623
0	2506	23.316727226947	0.007613661083
0	2511	23.362578912899	0.007612833061
0	2516	23.383315884736	0.007612833061
0	2524	23.428309778067	0.00761200522
0	2529	23.435921783287	0.010030950313
0	2533	23.443533788507	0.008734556748
0	2538	23.467621120865	0.007611177558
0	2543	23.476234182283	0.007611177558
0	2550	23.552187970984	0.007610350076
0	2553	23.559797493758	0.012092921932
0	2558	23.682058629296	0.00760786871
0	2563	23.711661833391	0.007607041947
0	2568	23.76945330376	0.007606215365
0	2576	23.842166363891	0.007605388961
0	2579	23.849771752852	0.012252610035
0	2584	23.976244920902	0.007602910829
0	2589	24.023334213931	0.007602085143
0	2595	24.127685367441	0.007600434311
0	2600	24.164355588153	0.007600434311
0	2605	24.182048734131	0.007599609163
0	2614	24.337311278983	0.007597134795
0	2619	24.344908413778	0.011036120861
0	2622	24.352505548573	0.013399149869
0	2630	24.445363813641	0.007595486111
0	2633	24.452959299752	0.008229644619
0	2638	24.484352201565	0.007594662038
0	2643	24.51086475809	0.007594662038
0	2648	24.538809062897	0.007593838143
0	2653	24.578990180277	0.007593014427
0	2658	24.612793917373	0.007593014427
0	2663	24.650149554714	0.007592190889
0	2669	24.785152067022	0.007589721349
0	2675	24.875665936613	0.007588898526
0	2680	24.958966812903	0.007587253414
0	2685	24.997103995574	0.007586431126
0	2690	25.046404474923	0.007585609016
0	2696	25.120898804304	0.007584787084
0	2701	25.133688521855	0.007584787084
0	2707	25.251199234377	0.007582322357
0	2712	25.276214389871	0.007582322357
0	2717	25.29067186533	0.007582322357
0	2722	25.314810912234	0.007581501137
0	2730	25.439938925368	0.007579859231
0	2735	25.447518784599	0.010388714639
0	2738	25.455097823144	0.011703996474
0	2744	25.495809270302	0.007579038545
0	2749	25.528149391202	0.007578218036
0	2756	25.540738869386	0.007578218036
0	2759	25.548317087422	0.013412013952
0	2765	25.580680984386	0.007577397705
0	2770	25.743842014439	0.007574937777
0	2775	25.944263420785	0.007571660357
0	2780	25.972602740504	0.007570841445
0	2787	25.982450960487	0.007570841445
0	2790	25.990021801932	0.013485517748
0	2795	26.059635855623	0.00757002271
0	2800	26.086874913102	0.007569204152
0	2806	26.160832677339	0.007568385771
0	2811	26.277165655617	0.00756593169
0	2817	26.324485075175	0.007565114017
0	2822	26.332791434162	0.007565114017
0	2828	26.359389157143	0.007565114017
0	2833	26.379541181845	0.00756429652
0	2838	26.410844490016	0.00756429652
0	2846	26.646301303598	0.007513148009
0	2851	26.690577152037	0.007496251874
0	2858	26.747585668279	0.007473841555
0	2864	26.829722271566	0.007442058261
0	2869	26.848390968445	0.007434944238
0	2874	26.864949614807	0.00742863207
0	2879	26.969685645976	0.007388642601
0	2887	27.109928266369	0.007335219533
0	2892	27.11749698254	0.00733291431
0	2898	27.158926768946	0.007316818229
0	2903	27.174899743048	0.007311468561
0	2908	27.188307552766	0.007306126709
0	2913	27.25461694272	0.007281805888
0	2918	27.275258882639	0.007274238803
0	2923	27.303327687672	0.007263671267
0	2928	27.365576550415	0.007241129616
0	2934	27.395691676696	0.007229911175
0	2941	27.44163519267	0.007213520198
0	2946	27.483020756022	0.007197943445
0	2953	27.515490068819	0.007186858316
0	2956	27.522673976865	0.008952769862
0	2962	27.636940384142	0.007142857143
0	2967	27.649280154374	0.007138486641
0	2973	27.702376578298	0.007119609439
0	2979	27.741946095253	0.007111652951
0	2984	27.75365638836	0.00712178248
0	2989	27.811658234311	0.007172131148
0	2996	27.845568927524	0.007201646091
0	2999	27.852776505778	0.007301960692
0	3006	27.94031128438	0.007285595337
0	3009	27.947602951047	0.009770019011
0	3014	28.019368675109	0.007356805045
0	3019	28.081112801403	0.007413683542
0	3026	28.121622179949	0.007451564829
0	3029	28.129080890658	0.012055768842
0	3034	28.161419067966	0.007489033915
0	3041	28.194246087059	0.007520412548
0	3044	28.201773778209	0.014110972988
0	3050	28.425930602456	0.007747648035
0	3057	28.490386314252	0.007813372028
0	3062	28.584548641327	0.007912286651
0	3067	28.641710153033	0.007972665148
0	3072	28.6672245406	0.008
0	3077	28.683180848402	0.008017409231
0	3084	28.774833678778	0.008117824423
0	3090	28.872372624061	0.008228517691
0	3095	28.923307143058	0.008286965787
0	3102	28.959948641968	0.008329366968
0	3107	28.968287931937	0.010474369387
0	3112	28.976637168578	0.016074208016
0	3115	28.984996375648	0.015743968953
0	3120	29.001507426597	0.008378216637
0	3125	29.026502714622	0.008408408408
0	3130	29.046234556994	0.008431703204
0	3135	29.055231595018	0.008442889881
0	3142	29.299123862033	0.008543878921
0	3147	29.324951257804	0.008541793777
0	3152	29.341891010646	0.008540751586
0	3158	29.428899413249	0.008536585366
0	3163	29.498840672624	0.008532423208
0	3168	29.515005489686	0.008531383303
0	3176	29.57512958234	0.008528265107
0	3179	29.583657847447	0.015802171917
0	3186	29.680143159201	0.008523073177
0	3191	29.70895034605	0.008520998174
0	3196	29.739343770509	0.008519961052
0	3201	29.818947264783	0.008515815085
0	3206	29.855198734499	0.008513743615
0	3211	29.864375079641	0.008512708257
0	3216	29.907738020211	0.008510638298
0	3221	30.127898484179	0.008499271491
0	3226	30.258580431267	0.008492053864
0	3233	30.357938390775	0.008486905917
0	3238	30.376856266824	0.008485877076
0	3243	30.393773823931	0.008484848485
0	3250	30.431890354693	0.00848279205
0	3253	30.440373146743	0.009332960849
0	3258	30.542991478109	0.008477655323
0	3263	30.562205622775	0.008476628724
0	3268	30.634415993283	0.008472524812
0	3273	30.693714780364	0.008469449486
0	3281	30.78109016265	0.0084643289
0	3284	30.78955449155	0.016303986867
0	3290	30.867955168742	0.008460236887
0	3296	30.912348198962	0.008458192363
0	3301	30.927603707164	0.008457170472
0	3306	30.954571312604	0.008455127431
0	3312	31.072984505936	0.008449004225
0	3319	31.085634261759	0.008449004225
0	3322	31.094082246311	0.008771418643
0	3327	31.171446191725	0.008443908323
0	3333	31.235310412517	0.008440853732
0	3340	31.294320613965	0.00843780135
0	3343	31.302757398345	0.01289758833
0	3348	31.425598245836	0.008430687703
0	3353	31.458407978047	0.008428657435
0	3358	31.478344955027	0.008427642668
0	3363	31.526404043982	0.008425613866
0	3368	31.547253238527	0.008424599832
0	3373	31.588758117603	0.008422572494
0	3379	31.701239935682	0.008416496333
0	3386	31.783343945524	0.008412450427
0	3391	31.846212162374	0.008408408408
0	3397	31.863078976851	0.008408408408
0	3402	31.922286858435	0.008405379443
0	3407	31.960712417069	0.008403361345
0	3414	32.106168687137	0.008395298633
0	3420	32.11456398577	0.009348726705
0	3423	32.122958277652	0.015698181096
0	3430	32.159833296901	0.008392279103
0	3433	32.168225576004	0.010267112308
0	3438	32.195323646875	0.008391273076
0	3443	32.260662217031	0.008387251378
0	3452	32.452586811533	0.008377213978
0	3455	32.460964025511	0.014162377278
0	3460	32.497534106944	0.00837520938
0	3468	32.614266522786	0.008369201339
0	3473	32.637691746656	0.008368200837
0	3481	32.687890005412	0.008365200765
0	3486	32.705434929148	0.008364201219
0	3491	32.759032851239	0.008362202843
0	3496	32.789429615711	0.008360205422
0	3501	32.839643214669	0.008357211079
0	3507	32.89870208935	0.008354218881
0	3512	32.931661200584	0.008353221957
0	3518	33.245362888809	0.008336310587
0	3523	33.256563168494	0.008336310587
0	3529	33.342102941928	0.008331349679
0	3537	33.379713188484	0.008330358205
0	3542	33.388042555452	0.015989100425
0	3545	33.39637192242	0.012554033042
0	3551	33.426702772356	0.008327385201
0	3556	33.485567725818	0.008324414318
0	3562	33.558079584528	0.008320456436
0	3567	33.5973563084	0.008318478907
0	3574	33.779121831984	0.008309591643
0	3579	33.796282446882	0.008308605341
0	3586	33.82736087962	0.008307619274
0	3590	33.83566751306	0.012972165176
0	3595	33.861630623649	0.008305647841
0	3600	33.916620509188	0.008302692445
0	3609	33.928733122072	0.00830170778
0	3615	33.937034829852	0.012728267817
0	3618	33.945335553201	0.016952012686
0	3621	33.95363627655	0.018745701895
0	3626	33.968809675956	0.008299739151
0	3632	34.003415610286	0.008297771456
0	3637	34.025311499684	0.008296787958
0	3644	34.125247697028	0.008291873964
0	3647	34.133539570992	0.008376522556
0	3652	34.318285276341	0.008282063417
0	3660	34.338328943552	0.008281083639
0	3663	34.346610027191	0.015567411181
0	3669	34.41532358589	0.008277166844
0	3674	34.424284359978	0.008277166844
0	3679	34.44238093927	0.008276188224
0	3684	34.452748732546	0.008275209836
0	3691	34.467042375288	0.008275209836
0	3695	34.475316606966	0.013477351851
0	3702	34.594112038444	0.008268367588
0	3711	34.863892394003	0.008254716981
0	3715	34.872147110984	0.01602046369
0	3720	34.924558927141	0.008251797713
0	3725	34.988861163952	0.008248880509
0	3730	35.053405337144	0.008244994111
0	3735	35.074141903666	0.008244023083
0	3745	35.157338363127	0.00824014126
0	3748	35.165578504387	0.009725931223
0	3751	35.173817675762	0.017448680331
0	3756	35.195575320017	0.008238201718
0	3762	35.254054416751	0.008235294118
0	3768	35.380442631628	0.008229485069
0	3775	35.417443708886	0.008227550541
0	3778	35.425670292503	0.008611047666
0	3783	35.490181639824	0.008223684211
0	3792	35.719096414802	0.007682177349
0	3799	35.798169516843	0.007531740908
0	3804	35.813930512435	0.007530930608
0	3810	35.841669148206	0.00752931053
0	3815	35.944407287605	0.007523645744
0	3820	35.961342009922	0.007522837184
0	3827	36.080043272996	0.00751637496
0	3830	36.087559647956	0.014771851257
0	3838	36.195571669409	0.007510729614
0	3844	36.286226776148	0.007505092742
0	3850	36.304195686366	0.007504288165
0	3856	36.319492615189	0.00750348376
0	3865	36.351970427392	0.007501875469
0	3868	36.359472302861	0.009854532328
0	3873	36.413799646662	0.007498660953
0	3878	36.430599631463	0.007497857755
0	3883	36.473506604438	0.007495449192
0	3888	36.499253010539	0.007493844342
0	3895	36.564457735104	0.007490636704
0	3898	36.571947570328	0.008531183242
0	3905	36.625123969269	0.007487431811
0	3908	36.632610600285	0.013514058024
0	3915	36.69896406132	0.007483429549
0	3919	36.70644669093	0.009914568215
0	3924	36.776750345955	0.007479431563
0	3930	36.797831343105	0.007477833565
0	3935	36.808366334106	0.007477034822
0	3944	36.821281576924	0.007477034822
0	3947	36.828757813173	0.013054695048
0	3950	36.836234049422	0.01597288763
0	3955	36.857703348404	0.007474639616
0	3965	36.997659428311	0.007467463196
0	3968	37.005126094978	0.013875871861
0	3971	37.012592761645	0.018911580237
0	3976	37.052675862013	0.007464278098
0	3982	37.120734091037	0.007460300544
0	3987	37.149119625155	0.007459505541
0	3992	37.195569275044	0.007456327226
0	4000	37.400865603149	0.007446016381
0	4005	37.510875084063	0.007439685408
0	4011	37.584308284316	0.007435734013
0	4018	37.629405813396	0.007433365191
0	4024	37.759168438546	0.007427055703
0	4029	37.802554584802	0.007424692406
0	4034	37.896621331929	0.00741918389
0	4040	37.919732842949	0.007418397626
0	4045	37.930962727916	0.007417611529
0	4050	38.013921611656	0.007412898443
0	4056	38.106618616108	0.007408191343
0	4061	38.252976732492	0.007400359446
0	4066	38.317526239057	0.007397231322
0	4074	38.382649362879	0.007394105841
0	4079	38.390042687763	0.011682582156
0	4082	38.397436012647	0.009037050734
0	4087	38.420419345538	0.007391763464
0	4092	38.433366861721	0.007390983001
0	4097	38.50911145567	0.007387083157
0	4102	38.567417789222	0.007383966245
0	4109	38.592655867849	0.007383187427
0	4118	38.676051915275	0.007391763464
0	4121	38.683444459366	0.014085150185
0	4124	38.69083778425	0.015642298851
0	4129	38.705565647666	0.007395668251
0	4136	38.811103373414	0.007407407407
0	4141	38.853274075616	0.007412113511
0	4146	38.949112988232	0.007423117709
0	4152	38.96968435934	0.007425480004
0	4157	39.002992910349	0.007429420505
0	4163	39.121175101023	0.007442849548
0	4168	39.144954532285	0.00744522442
0	4173	39.17633332806	0.00744918591
0	4180	39.316492541021	0.007465074118
0	4185	39.408110445548	0.007475437847
0	4190	39.430689214194	0.007478632479
0	4196	39.459397903566	0.007481829842
0	4203	39.478633103939	0.007484229659
0	4206	39.486118133879	0.012121914446
0	4212	39.508556993318	0.007487431811
0	4217	39.5472369608	0.00749224018
0	4224	39.578049128678	0.007495449192
0	4227	39.585545380552	0.008089042661
0	4234	39.599339659965	0.007497857755
0	4238	39.606838320918	0.013406959274
0	4245	39.72330971498	0.007512341704
0	4248	39.730822862989	0.013055840605
0	4253	39.787380190434	0.007520412548
0	4259	39.8135691503	0.007522837184
0	4266	39.834615742862	0.007525263384
0	4271	39.842141815327	0.010645075311
0	4274	39.849669506477	0.013179194117
0	4282	39.916045799744	0.007534983854
0	4285	39.92358159477	0.008919249851
0	4291	39.993575660474	0.00754391637
0	4298	40.024303998121	0.00754798361
0	4301	40.031852795705	0.014647283685
0	4307	40.184531964049	0.007566749541
0	4313	40.280258628607	0.007578218036
0	4318	40.366108686985	0.007588075881
0	4323	40.436306139514	0.007597134795
0	4328	40.448368330081	0.007597959405
0	4333	40.45720263157	0.007599609163
0	4338	40.485652391171	0.007602910829
0	4344	40.546540627438	0.007610350076
0	4349	40.574882987352	0.007613661083
0	4354	40.626713532638	0.007619462284
0	4360	40.642120738288	0.00762195122
0	4367	40.772993487352	0.007637752319
0	4370	40.780632073122	0.009486607322
0	4375	40.801174325203	0.007641087218
0	4381	40.89767110953	0.007652782333
0	4389	40.946250324776	0.007658643326
0	4392	40.95390980612	0.013803529032
0	4399	40.985722988306	0.007662835249
0	4402	40.993387501609	0.009200161494
0	4409	41.056820711617	0.007672073652
0	4414	41.148283829175	0.007683020525
0	4419	41.161391124475	0.007684707432
0	4426	41.303052497499	0.00770161734
0	4432	41.392714762778	0.007712648744
0	4437	41.423201723124	0.007716900011
0	4442	41.638988511982	0.007743362832
0	4447	41.733296733333	0.007755373366
0	4454	41.783053341298	0.007761392616
0	4457	41.790815594569	0.00785456481
0	4462	41.806010681831	0.007763975155
0	4469	41.883503756106	0.007774322523
0	4472	41.891278942155	0.011938379832
0	4477	41.901872845961	0.007776049767
0	4482	41.914856503263	0.007777777778
0	4487	41.951565468798	0.007782966422
0	4495	42.027801913908	0.007792496939
0	4498	42.035595278415	0.009728329003
0	4503	42.091429142914	0.007800312012
0	4510	42.099683564404	0.007801181322
0	4513	42.107485615229	0.009817831949
0	4520	42.262219980216	0.007822103028
0	4525	42.278048251208	0.00782385157
0	4530	42.317618966967	0.00782910189
0	4535	42.342598724951	0.007831729693
0	4540	42.369556016505	0.007835236176
0	4545	42.560581340638	0.007859869751
0	4550	42.687758272814	0.007875787579
0	4555	42.699469580225	0.007877560207
0	4561	42.726917384493	0.007881107859
0	4566	42.737997028017	0.007882882883
0	4575	42.7737227225	0.007887323944
0	4578	42.781610935256	0.015360719409
0	4581	42.789500037025	0.016723997146
0	4586	42.92587351832	0.007906924206
0	4591	43.053921475664	0.00792303339
0	4598	43.062145746478	0.007924827352
0	4601	43.070071471116	0.010468448523
0	4608	43.192712255907	0.007941910597
0	4613	43.204409256536	0.007942811755
0	4619	43.427332205694	0.007972665148
0	4624	43.440545806352	0.007974481659
0	4629	43.477302815515	0.007979026559
0	4634	43.550402113525	0.007989043597
0	4639	43.564158715817	0.007989955485
0	4644	43.610216642199	0.007996344528
0	4649	43.664422296523	0.008003658815
0	4657	43.712740555725	0.008010069802
0	4660	43.720751542221	0.012840463411
0	4665	43.776592558389	0.008018327606
0	4670	43.890973902512	0.008033972225
0	4675	43.940854614376	0.008040431886
0	4681	44.005787923924	0.008016491067
0	4690	44.058642810289	0.007797705247
0	4693	44.066409369703	0.014565770279
0	4696	44.074145031102	0.017873106098
0	4701	44.082407548849	0.007702464789
0	4706	44.115368718128	0.007574937777
0	4711	44.133858229871	0.007505092742
0	4716	44.144395377088	0.007466666667
0	4721	44.170842094492	0.007369972626
0	4727	44.183979379905	0.007353713625
0	4733	44.240787384727	0.007531740908
0	4739	44.30742885111	0.007751937984
0	4745	44.348357413631	0.007893549842
0	4750	44.46721909106	0.008336310587
0	4755	44.48312714545	0.008399328054
0	4763	44.544497234013	0.008605851979
0	4766	44.553091463602	0.013486833111
0	4771	44.63085318742	0.008489993936
0	4776	44.640868617228	0.008476628724
0	4781	44.658493618852	0.008453085376
0	4788	44.950611955888	0.008085008085
0	4795	45.081813326368	0.007930214116
0	4800	45.214288183404	0.007780371235
0	4807	45.265685179991	0.007722859665
0	4810	45.27339952868	0.008968093214
0	4815	45.292911237661	0.007693153094
0	4822	45.316676562577	0.007667871618
0	4825	45.324336043921	0.012164411444
0	4832	45.352056327741	0.007629427793
0	4837	45.359677449135	0.014383899198
0	4840	45.367290282196	0.015047223878
0	4845	45.409570549514	0.007568385771
0	4851	45.426692982987	0.00755042606
0	4857	45.538057731484	0.007434944238
0	4862	45.556478865771	0.007416825599
0	4869	45.579321678559	0.007393324884
0	4872	45.586707982242	0.008864357106
0	4879	45.707666419091	0.007377740304
0	4885	45.747509751986	0.007387862797
0	4892	45.756910908674	0.007390202703
0	4895	45.764302672138	0.011509780675
0	4902	45.815507106836	0.007404273323
0	4905	45.82291294687	0.007976710201
0	4912	45.831818051919	0.007408191343
0	4915	45.839228596065	0.012374448418
0	4922	45.961003509409	0.00744047619
0	4925	45.96844556767	0.012899609716
0	4930	45.994855307864	0.00744918591
0	4936	46.103027804055	0.007476236249
0	4941	46.162433843451	0.007490636704
0	4951	46.327202989746	0.007532551383
0	4956	46.372339384586	0.007544729468
0	4961	46.382830974871	0.007547169811
0	4968	46.431733188601	0.007559395248
0	4971	46.439295033691	0.012381478284
0	4977	46.533534027489	0.007585609016
0	4983	46.605904212365	0.007604562738
0	4992	46.702562237899	0.007630259429
0	4997	46.750171945072	0.007642755759
0	5002	46.780634651214	0.007650273224
0	5007	46.792109677797	0.007653619068
0	5012	46.819462231941	0.007661157929
0	5017	46.845561250818	0.007667871618
0	5022	46.86319554157	0.007672073652
0	5029	46.902254826112	0.007683020525
0	5034	46.918244027165	0.007687239183
0	5039	46.936195971801	0.007691462477
0	5045	46.973499200922	0.00770161734
0	5050	46.98840849383	0.007705856451
0	5056	47.027293909602	0.007716049383
0	5061	47.049319786334	0.007722007722
0	5066	47.072659780321	0.00772797527
0	5071	47.174399073585	0.007756232687
0	5078	47.298235863511	0.007789895393
0	5081	47.306027493075	0.014274548761
0	5087	47.402304600386	0.00781773509
0	5092	47.410727252197	0.007820355268
0	5099	47.527521480326	0.007852815795
0	5104	47.540384337043	0.00785634119
0	5109	47.584403899994	0.007868705036
0	5116	47.62369028582	0.007879333633
0	5121	47.631572281091	0.009562800955
0	5126	47.639456051786	0.014331444671
0	5129	47.647342487117	0.012482733941
0	5136	47.664982456702	0.007890880397
0	5139	47.672876006544	0.013911862638
0	5144	47.720592854781	0.007906924206
0	5150	47.945447106569	0.007970849465
0	5155	48.005756191804	0.007988131918
0	5160	48.013830469151	0.007989955485
0	5165	48.032395193161	0.007995431182
0	5170	48.107694541781	0.008017409231
0	5175	48.169187165422	0.008034894399
0	5181	48.192135035156	0.008041355543
0	5186	48.225294806933	0.008032128514
0	5192	48.336214715709	0.007994518045
0	5197	48.363010406756	0.007985398129
0	5202	48.37711621944	0.00798084597
0	5207	48.427346478666	0.007963594994
0	5212	48.461403179075	0.007952738014
0	5218	48.573154463038	0.007914970602
0	5224	48.618235469342	0.007899785577
0	5230	48.686399290293	0.007877560207
0	5237	48.720536051815	0.007866052365
0	5240	48.728399453298	0.013876797103
0	5245	48.742700045634	0.007858987313
0	5250	48.774831668554	0.007848413499
0	5258	48.856462632168	0.007822103028
0	5261	48.864282113848	0.00896679584
0	5267	48.915130923185	0.007802920522
0	5272	48.927087893383	0.007798573975
0	5278	48.992779058686	0.007777777778
0	5285	49.002365640711	0.007774322523
0	5290	49.010137373807	0.015221902567
0	5293	49.017906519201	0.009646001427
0	5298	49.043150006634	0.007761392616
0	5303	49.102511192449	0.00774250636
0	5308	49.162196452147	0.007723711795
0	5313	49.24146388382	0.007698229407
0	5319	49.504225591133	0.00761614623
0	5324	49.512066567943	0.007614489285
0	5329	49.586164016398	0.007591367531
0	5334	49.634987104285	0.007576577552
0	5340	49.758388621045	0.007539041465
0	5345	49.803164510283	0.007525263384
0	5351	49.875506384411	0.00750348376
0	5356	49.903546184159	0.007495449192
0	5363	50.024911921138	0.007504288165
0	5368	50.044141543727	0.007510729614
0	5374	50.055877344511	0.007513954487
0	5380	50.14560222575	0.007542290701
0	5385	50.178633885148	0.007552055238
0	5390	50.21757647317	0.00756429652
0	5395	50.256711247911	0.007576577552
0	5401	50.284950573866	0.007585609016
0	5407	50.426547189571	0.007631091246
0	5412	50.496308636132	0.007652782333
0	5418	50.529640018785	0.007663674184
0	5423	50.609258296781	0.007689772602
0	5428	50.654123702995	0.007704160247
0	5433	50.672876512896	0.007710100231
0	5443	50.967285645405	0.007807271916
0	5446	50.975095530488	0.009897648382
0	5451	50.996940078455	0.00781773509
0	5458	51.026006500861	0.007827351001
0	5463	51.06074747158	0.007838745801
0	5469	51.076161776352	0.007844016136
0	5476	51.097644857212	0.007851054284
0	5479	51.105498554059	0.008162883381
0	5485	51.133289035981	0.007860752386
0	5492	51.231525311686	0.007854578097
0	5497	51.335499734408	0.007847533632
0	5502	51.387124835689	0.007844016136
0	5507	51.434427181114	0.007840501792
0	5512	51.504235345137	0.007836113288
0	5519	51.519815248584	0.007835236176
0	5524	51.527649607845	0.011977357345
0	5529	51.535483967106	0.009132013404
0	5532	51.543317449649	0.014848839021
0	5537	51.594876438923	0.007829977629
0	5542	51.613263869792	0.00782910189
0	5547	51.694385909346	0.00782385157
0	5552	51.741830160424	0.007820355268
0	5559	51.860282002285	0.0078125
0	5564	51.959200981628	0.007806401249
0	5571	52.011778990624	0.007802920522
0	5576	52.019581041449	0.01079991851
0	5579	52.027383092274	0.013141068222
0	5584	52.117771579235	0.007795968371
0	5589	52.176011267821	0.007792496939
0	5594	52.203426382324	0.007789895393
0	5600	52.228163381507	0.007789028597
0	5605	52.250006786392	0.007787295583
0	5610	52.303056773226	0.007783831869
0	5615	52.378993975742	0.007778642071
0	5620	52.387517369417	0.007778642071
0	5625	52.396661776578	0.007777777778
0	5631	52.579765723678	0.007765697803
0	5637	52.651082806125	0.007761392616
0	5642	52.663092653532	0.007763975155
0	5648	52.736430426234	0.007789028597
0	5653	52.961780300564	0.007867820614
0	5658	52.98670036676	0.007876673793
0	5663	53.004759269764	0.007882882883
0	5668	53.025708607684	0.007890880397
0	5673	53.042642458261	0.007896221094
0	5678	53.056088561283	0.007901569026
0	5683	53.171643316015	0.007942811755
0	5690	53.209293056167	0.007956353717
0	5695	53.244463037262	0.007969034608
0	5700	53.28766964597	0.007984487282
0	5705	53.314120035729	0.007994518045
0	5712	53.325767760901	0.007998171846
0	5715	53.33376958989	0.01174955066
0	5721	53.468430790602	0.008050603795
0	5727	53.499009667455	0.008061729817
0	5734	53.572091978802	0.00808967988
0	5737	53.580184464351	0.015887737175
0	5745	53.646345472895	0.008116883117
0	5748	53.654466122547	0.015957657685
0	5753	53.684163046462	0.008131025671
0	5758	53.713498991154	0.008142375247
0	5763	53.7415580076	0.008152806895
0	5768	53.753272609137	0.008157557394
0	5773	53.786797308579	0.008169934641
0	5780	53.824930913733	0.008185219832
0	5785	53.880090806218	0.008206330598
0	5790	53.922103444277	0.008221752408
0	5797	54.107126066274	0.008293838863
0	5802	54.124017600837	0.008300723349
0	5807	54.146108048244	0.008309591643
0	5815	54.282155049344	0.008363201912
0	5820	54.348731899061	0.00839026729
0	5826	54.587418200887	0.008486905917
0	5837	54.788276985032	0.008570029383
0	5843	54.863706454429	0.00860162202
0	5848	54.876764944962	0.008606910119
0	5854	54.969322152601	0.00860056518
0	5859	55.006280104552	0.008596340415
0	5868	55.04840030556	0.008591065292
0	5871	55.056990316604	0.015467440322
0	5874	55.065579273659	0.019805014975
0	5879	55.092924967309	0.008584743684
0	5886	55.126050629942	0.008580534445
0	5889	55.134630112722	0.012349942399
0	5894	55.170352039802	0.008575278697
0	5901	55.214131962263	0.008568980291
0	5904	55.22269989372	0.010282432137
0	5911	55.301054251155	0.008558503485
0	5917	55.326478547943	0.008555365436
0	5923	55.452781930715	0.008538667968
0	5928	55.557148358016	0.00852514919
0	5933	55.577835959287	0.008523073177
0	5938	55.611890568247	0.008518924182
0	5945	55.778259994635	0.00849720806
0	5952	55.893481504557	0.00848279205
0	5958	56.010116676449	0.008468424873
0	5963	56.05570132284	0.008462282398
0	5969	56.077939122191	0.008459214502
0	5974	56.089174417153	0.008458192363
0	5979	56.108233924167	0.008456148828
0	5984	56.170602467597	0.008447984552
0	5989	56.203635394774	0.008443908323
0	5998	56.235582209884	0.008439836026
0	6001	56.244021028449	0.013029224123
0	6004	56.252458829799	0.017165192456
0	6010	56.280662710312	0.008434751175
0	6016	56.312366196643	0.008430687703
0	6022	56.428252414575	0.008415484491
0	6028	56.514076555546	0.008405379443
0	6034	56.569287267322	0.008398320336
0	6042	56.821599062325	0.008367200574
0	6045	56.829965262875	0.014843799423
0	6052	56.856700468655	0.008363201912
0	6058	56.887136288275	0.00835920707
0	6065	56.907213819917	0.008357211079
0	6068	56.915570033359	0.012585154391
0	6074	56.97941991834	0.008265438659
0	6079	57.060703278421	0.007966313873
0	6084	57.144582060895	0.00767964893
0	6089	57.155624668046	0.007643590304
0	6094	57.167380565257	0.007605388961
0	6099	57.213642187417	0.007458710709
0	6105	57.259044188523	0.007320644217
0	6111	57.348842776539	0.00706143448
0	6116	57.410074282469	0.007110208228
0	6121	57.424055581581	0.007127583749
0	6129	57.573153921975	0.007315288954
0	6132	57.580478396182	0.012855579919
0	6139	57.75106771748	0.007552055238
0	6145	57.964114421501	0.00785634119
0	6150	58.00003565692	0.007910498361
0	6155	58.010931728591	0.007926622127
0	6161	58.162445658523	0.008163265306
0	6167	58.214016136807	0.008180437069
0	6172	58.236767784422	0.008180437069
0	6177	58.336714387484	0.008183306056
0	6184	58.356144258228	0.008184262832
0	6189	58.36432852106	0.015089167475
0	6192	58.372512783892	0.014183394344
0	6197	58.436691698026	0.008186177055
0	6202	58.453128508167	0.008186177055
0	6207	58.487380412351	0.008187134503
0	6212	58.563176936838	0.00818905007
0	6217	58.599256107131	0.00819000819
0	6222	58.691930271279	0.008192883895
0	6227	58.842698603401	0.008196721311
0	6232	58.867147907248	0.008197681227
0	6240	58.970316177521	0.008200562324
0	6252	59.056515108107	0.008202484181
0	6256	59.064717592288	0.015789779685
0	6259	59.072920076469	0.023081523081
0	6263	59.081123521916	0.028276752324
0	6269	59.093606513413	0.008203445447
0	6274	59.102277487911	0.008203445447
0	6279	59.136377740444	0.008204406939
0	6285	59.193375508166	0.008206330598
0	6292	59.252459420995	0.008207292766
0	6298	59.404397326499	0.008212106992
0	6306	59.451972065818	0.008213070515
0	6311	59.460185136333	0.01297758481
0	6314	59.468398206848	0.009197770932
0	6320	59.530650810328	0.00821499824
0	6325	59.636379158326	0.008217891524
0	6330	59.714189061824	0.008219821512
0	6339	59.793955085302	0.008221752408
0	6344	59.802177803498	0.012635665106
0	6347	59.810400521694	0.015781561356
0	6352	59.823966405207	0.008222718196
0	6357	59.833587298329	0.008222718196
0	6364	59.884637511432	0.008224650452
0	6369	59.985103005404	0.008227550541
0	6374	60.159467237018	0.008231420508
0	6379	60.193600608269	0.008232388569
0	6386	60.307715318899	0.00823626309
0	6391	60.31873413114	0.00823626309
0	6397	60.337898291535	0.00823626309
0	6402	60.468344345416	0.00824014126
0	6408	60.529746982018	0.008242081714
0	6413	60.539800554266	0.008242081714
0	6418	60.575380355157	0.008243052285
0	6426	60.747155850276	0.008248880509
0	6429	60.755405702957	0.009536115734
0	6439	60.940571819776	0.008260561718
0	6449	61.070642347829	0.008267391048
0	6452	61.078910715417	0.010975133335
0	6457	61.10029236046	0.008269344359
0	6463	61.157127784595	0.008273253753
0	6468	61.223873037222	0.008277166844
0	6473	61.315640726037	0.008282063417
0	6479	61.356546765268	0.008285004143
0	6484	61.379127343235	0.008285984848
0	6489	61.418783066154	0.008287946957
0	6496	61.451068554011	0.008289909995
0	6499	61.459359445874	0.012869848901
0	6504	61.47238792609	0.008290891863
0	6511	61.483356805097	0.008291873964
0	6514	61.491649661394	0.014881349249
0	6522	61.71255805582	0.008305647841
0	6527	61.769259400517	0.008308605341
0	6534	61.788618538372	0.008309591643
0	6538	61.796929116551	0.013832151112
0	6543	61.805731722723	0.008310578179
0	6548	61.817381912307	0.008311564949
0	6555	61.881340773268	0.008315514374
0	6563	61.937126484829	0.008318478907
0	6568	61.945445952383	0.010061592452
0	6573	61.953765419937	0.014562159227
0	6576	61.962085876373	0.01534871249
0	6581	61.991611370011	0.008322434907
0	6589	62.067863203047	0.008326394671
0	6593	62.076190588248	0.009839423
0	6599	62.210806898819	0.008335317933
0	6606	62.228093933449	0.008336310587
0	6609	62.236430244036	0.009801675862
0	6616	62.246659222678	0.008337303478
0	6619	62.254996526156	0.016532313989
0	6624	62.275261409632	0.008338296605
0	6630	62.286383613073	0.008339289969
0	6635	62.334997008881	0.008342271481
0	6640	62.374988330115	0.008344260341
0	6645	62.384458269791	0.008345255126
0	6650	62.43648900755	0.008348240906
0	6655	62.537317701448	0.008354218881
0	6662	62.619875742005	0.00835920707
0	6667	62.646729345429	0.008361204013
0	6672	62.683778509045	0.008363201912
0	6680	62.774103450388	0.008368200837
0	6683	62.782472651727	0.014720451133
0	6688	62.861549489649	0.008373205742
0	6697	62.965320430902	0.008380222674
0	6700	62.973700653576	0.016096027961
0	6707	63.031188334762	0.008384237633
0	6712	63.047364887992	0.008387251378
0	6717	63.114783868137	0.008399328054
0	6723	63.17970469441	0.008410428932
0	6729	63.230800043898	0.008419533317
0	6734	63.264102070844	0.008425613866
0	6739	63.325841018708	0.00843678438
0	6746	63.352662449205	0.008441871684
0	6749	63.361105339086	0.00958726255
0	6756	63.57131260121	0.008480736613
0	6763	63.584524098185	0.008483820143
0	6766	63.59300894667	0.010590258694
0	6771	63.646720956199	0.008495145631
0	6776	63.682024895041	0.008501335924
0	6781	63.715092332895	0.008507535246
0	6786	63.937220244281	0.008548052265
0	6791	63.956014912248	0.00855118495
0	6796	63.995474641582	0.008558503485
0	6801	64.056674583041	0.008570029383
0	6806	64.072052345754	0.0085731782
0	6811	64.096724994015	0.008577380223
0	6816	64.217545372771	0.0085995086
0	6821	64.226491919113	0.00860162202
0	6830	64.433602682705	0.008639842014
0	6839	64.48291266168	0.008649450142
0	6842	64.491563180711	0.013137805427
0	6850	64.566854173336	0.008639842014
0	6855	64.673014831476	0.008623875816
0	6860	64.739846487044	0.008614324391
0	6865	64.763207321367	0.008611145282
0	6872	64.787127394777	0.008606910119
0	6879	64.795733246756	0.015852209591
0	6882	64.804338040856	0.015669592165
0	6885	64.812941777336	0.020100380905
0	6890	64.852014402618	0.008597396217
0	6895	64.933074252451	0.008585796639
0	6900	64.948349225435	0.008583690987
0	6906	65.110398282021	0.008559550012
0	6911	65.123834134936	0.008557457213
0	6916	65.257232158524	0.008538667968
0	6921	65.393421263565	0.008518924182
0	6926	65.433518741648	0.008512708257
0	6931	65.556761396688	0.008495145631
0	6937	65.575900565831	0.008492053864
0	6943	65.634232447402	0.008483820143
0	6948	65.648662173978	0.008481764207
0	6956	65.681080373608	0.008477655323
0	6960	65.689557002332	0.014852786085
0	6965	65.716785817054	0.008472524812
0	6970	65.739695370584	0.008469449486
0	6975	65.779653998584	0.008463305525
0	6980	65.82402553235	0.008457170472
0	6985	65.956971831842	0.00843780135
0	6994	66.026128226959	0.008428657435
0	6997	66.034555869627	0.014275042452
0	7001	66.042981483493	0.019194945816
0	7008	66.116394324511	0.008415484491
0	7013	66.147408116064	0.008411439558
0	7018	66.179729132846	0.008406388856
0	7023	66.213312913222	0.008402352659
0	7028	66.290691416434	0.008391273076
0	7035	66.301219994556	0.008389261745
0	7038	66.309608250997	0.011903309777
0	7043	66.375146721011	0.008379219536
0	7050	66.674176234735	0.008337303478
0	7055	66.780247776637	0.008323424495
0	7060	66.850486942197	0.008313539192
0	7065	66.863544550931	0.008311564949
0	7070	66.872581777383	0.008310578179
0	7077	66.884979961223	0.008308605341
0	7080	66.893287580497	0.015023765148
0	7085	66.908389831141	0.008305647841
0	7091	67.118869495974	0.008277166844
0	7096	67.170946518435	0.008269344359
0	7102	67.249563861401	0.008258612553
0	7107	67.341787687449	0.008245965367
0	7112	67.358715154151	0.008244023083
0	7119	67.461490231244	0.008230452675
0	7124	67.503042250327	0.008224650452
0	7131	67.541215339567	0.008219821512
0	7137	67.549434195972	0.014534551213
0	7140	67.557651122841	0.01348305856
0	7145	67.585377878401	0.008214034264
0	7150	67.616634854405	0.008209217779
0	7156	67.654094632285	0.008204406939
0	7163	67.744649152849	0.008191925102
0	7166	67.752840119383	0.015070944068
0	7173	67.830720701868	0.008180437069
0	7178	67.856493196793	0.008177570093
0	7183	67.914085545763	0.008169934641
0	7188	67.952662224226	0.008164217401
0	7193	68.049514097856	0.008151857459
0	7198	68.05768346773	0.008150908244
0	7203	68.07266750073	0.008149010477
0	7208	68.206093787254	0.008131025671
0	7217	68.214563387309	0.008130081301
0	7220	68.222692524459	0.011394816227
0	7223	68.230820717678	0.017484861717
0	7230	68.325654227074	0.008115001159
0	7233	68.333768287582	0.010531890286
0	7238	68.377217168001	0.008108421175
0	7244	68.484473936017	0.008094357077
0	7249	68.53889934228	0.008087810514
0	7254	68.550728805572	0.008085942012
0	7259	68.56201556898	0.008085008085
0	7264	68.794163607877	0.008054309055
0	7269	68.803128061	0.008053382421
0	7276	68.822548405926	0.008050603795
0	7279	68.830598083939	0.015115949677
0	7286	68.869344601903	0.008045052293
0	7289	68.87738872969	0.01270080083
0	7294	69.016481728265	0.008025682183
0	7299	69.037027603084	0.008022922636
0	7305	69.114643430619	0.008013737836
0	7311	69.159362809305	0.008007320979
0	7316	69.192671871903	0.008003658815
0	7321	69.203247519165	0.008001828989
0	7326	69.218778447805	0.008
0	7331	69.304853467429	0.007989043597
0	7336	69.3340048286	0.007985398129
0	7344	69.37298551009	0.00798084597
0	7347	69.380965446251	0.009266873669
0	7353	69.499362723743	0.007964501081
0	7358	69.523535101986	0.007961783439
0	7363	69.537633493031	0.007959972709
0	7368	69.590940037136	0.007952738014
0	7373	69.656068632932	0.007944614686
0	7378	69.68450903883	0.007941009643
0	7384	69.706006194232	0.007938308006
0	7389	69.72465776995	0.007936507937
0	7395	69.831902350842	0.00792303339
0	7402	69.97732100157	0.007904245709
0	7407	70.007047863799	0.007900677201
0	7412	70.022742947776	0.007898894155
0	7417	70.035867411541	0.007897111913
0	7422	70.103700105595	0.007889101769
0	7427	70.118048342345	0.007887323944
0	7434	70.168132016429	0.007881107859
0	7437	70.176012237075	0.013247991144
0	7443	70.222865888985	0.007874015748
0	7448	70.248184501366	0.007871359496
0	7453	70.272838711186	0.007867820614
0	7460	70.364597367546	0.007857223033
0	7465	70.429655371021	0.007848413499
0	7470	70.463901792098	0.007844895215
0	7476	70.599968727715	0.007828226348
0	7481	70.654243956104	0.00782122905
0	7486	70.720727378587	0.007813372028
0	7491	70.760105415806	0.007808142777
0	7497	70.780347568879	0.007806401249
0	7502	70.806479848325	0.007802920522
0	7510	71.041498337279	0.007774322523
0	7517	71.140355100626	0.007762253271
0	7520	71.148116493242	0.010539711936
0	7526	71.180131304446	0.007757951901
0	7531	71.195210966866	0.007756232687
0	7536	71.22497856573	0.007752796544
0	7543	71.411847026575	0.007730535616
0	7546	71.419576708554	0.009590828051
0	7551	71.477792742469	0.007722007722
0	7558	71.657100604078	0.00770161734
0	7564	71.715698917282	0.007693998681
0	7569	71.750208569204	0.007690617447
0	7574	71.758787302362	0.007688927944
0	7579	71.796758594228	0.007684707432
0	7586	71.813599670905	0.007683020525
0	7589	71.821281848254	0.009523763942
0	7594	71.842365040378	0.00767964893
0	7603	71.952808529912	0.007666192093
0	7608	71.960473882518	0.011433661066
0	7611	71.968138395821	0.008062683298
0	7617	72.084902504343	0.007651109411
0	7622	72.103744846611	0.007648601399
0	7627	72.13248670593	0.007645259939
0	7633	72.157250572648	0.007641921397
0	7639	72.17783772743	0.007635253054
0	7644	72.2513331853	0.007611177558
0	7649	72.273407008277	0.007604562738
0	7656	72.306363921986	0.007593838143
0	7659	72.313955289517	0.010211675062
0	7665	72.398316396617	0.007565114017
0	7670	72.447554765299	0.007549611734
0	7675	72.492976674764	0.007534983854
0	7680	72.517758801793	0.00752769115
0	7685	72.530206901142	0.007523645744
0	7693	72.590010813572	0.007505092742
0	7696	72.5975134931	0.01084381564
0	7705	72.697115640376	0.007471448394
0	7709	72.70458549418	0.011589462002
0	7714	72.765367016998	0.007450771687
0	7720	72.893908865212	0.007412113511
0	7727	72.920488348658	0.007403490217
0	7730	72.927889490548	0.009149204299
0	7735	73.057600193133	0.007362221287
0	7741	73.153340244516	0.007333682556
0	7746	73.164219184579	0.007330610535
0	7751	73.189422322283	0.007323707889
0	7757	73.261866709657	0.007302315877
0	7762	73.289648283728	0.007293946025
0	7767	73.316673761056	0.007285595337
0	7772	73.334926397529	0.007280291212
0	7779	73.392813879722	0.007263671267
0	7783	73.40007529051	0.007283524099
0	7791	73.535009664152	0.007222451506
0	7795	73.542229880758	0.013595148509
0	7800	73.566366225836	0.007213520198
0	7805	73.585290847923	0.007208320461
0	7810	73.667604727766	0.007184645386
0	7816	73.681707162266	0.007180960197
0	7821	73.757052893893	0.007159660428
0	7827	73.787448856199	0.00716112532
0	7832	73.831381086659	0.007169927276
0	7838	73.914710549622	0.007185382878
0	7843	74.008822270705	0.007203128216
0	7850	74.05524441899	0.007212033794
0	7853	74.062457939188	0.007273482772
0	7858	74.07071648695	0.007215007215
0	7864	74.132445653967	0.007226925459
0	7870	74.259456442768	0.007250880464
0	7875	74.305339476293	0.007259904584
0	7880	74.337107038584	0.007265933153
0	7885	74.349908435548	0.007268951194
0	7890	74.428362119921	0.007284079084
0	7897	74.444651951469	0.007287112222
0	7902	74.451940581207	0.014272420393
0	7905	74.459230729093	0.007996507748
0	7910	74.480097515995	0.007293946025
0	7917	74.512460017935	0.007300031286
0	7920	74.519761572123	0.008108696872
0	7925	74.541076812761	0.007306126709
0	7930	74.614075090088	0.007320644217
0	7935	74.622573363587	0.007322175732
0	7943	74.662709797323	0.007329842932
0	7946	74.670041175622	0.011829751613
0	7951	74.717698749952	0.007340604027
0	7958	74.797722818031	0.007356805045
0	7965	74.837575581221	0.007364544976
0	7968	74.844941676138	0.009696393074
0	7973	74.870111954152	0.007370748657
0	7981	74.954349870698	0.007387862797
0	7988	74.989820255192	0.007394886964
0	7991	74.997216704896	0.013457844616
0	7997	75.06527190002	0.007409759712
0	8004	75.072860120572	0.007411328745
0	8007	75.080273019015	0.009740747729
0	8015	75.174111851591	0.007431786814
0	8018	75.181545216782	0.008222629525
0	8025	75.191199298441	0.007435734013
0	8028	75.198636612508	0.012757386081
0	8033	75.26924965579	0.007451564829
0	8040	75.368769190593	0.007471448394
0	8045	75.376242234257	0.01117747169
0	8048	75.383716873873	0.012814992446
0	8053	75.456253441922	0.007489835224
0	8058	75.464582152519	0.007491438356
0	8063	75.482165086098	0.007494646681
0	8068	75.583492741555	0.007515567962
0	8073	75.591220702705	0.007517182131
0	8078	75.601446126188	0.007519604684
0	8084	75.705853714115	0.00754147813
0	8089	75.725112873556	0.00754554274
0	8094	75.766892067157	0.007554500324
0	8099	75.807283787311	0.007562662057
0	8104	75.831742812753	0.007567567568
0	8109	75.848614542586	0.007571660357
0	8114	75.863963513575	0.007574118156
0	8121	76.027860331062	0.007609522774
0	8126	76.054850237456	0.007614489285
0	8131	76.101927697615	0.007625272331
0	8136	76.166673789125	0.00763858577
0	8141	76.219881621179	0.007650273224
0	8146	76.26566409335	0.007660319545
0	8151	76.443246269651	0.007698229407
0	8158	76.534460570087	0.00771860183
0	8163	76.551151245189	0.007722007722
0	8168	76.574320960494	0.007727122199
0	8174	76.639346328587	0.007741650077
0	8179	76.647186538611	0.007743362832
0	8185	76.673492519115	0.007748505645
0	8190	76.746898124704	0.007764836384
0	8196	76.817635869193	0.007780371235
0	8202	77.010548325868	0.00782385157
0	8208	77.02898890529	0.007828226348
0	8215	77.084902173288	0.007840501792
0	8218	77.092744431858	0.010907642168
0	8226	77.135233532233	0.007851934941
0	8229	77.14308722908	0.014094912834
0	8234	77.18270900361	0.007862518252
0	8239	77.213471633191	0.007869589657
0	8244	77.260292624836	0.007880220646
0	8250	77.273161330827	0.007882882883
0	8256	77.404692201939	0.007913181099
0	8261	77.439528417004	0.00792124024
0	8268	77.552038346144	0.007947320618
0	8271	77.55998747174	0.015120182284
0	8276	77.618549138113	0.007962689114
0	8281	77.659560155324	0.007972665148
0	8286	77.702091584069	0.007981755986
0	8292	77.762760228337	0.007996344528
0	8297	77.813083379643	0.008008237044
0	8304	77.841769851829	0.00801465537
0	8307	77.849786342896	0.014107245147
0	8313	77.94199531665	0.008038585209
0	8322	78.025284504271	0.008058017728
0	8327	78.033345305745	0.009540315244
0	8330	78.041407964119	0.014316036002
0	8335	78.049614843885	0.008064516129
0	8342	78.105047921014	0.008077544426
0	8347	78.11623719537	0.008080341683
0	8352	78.165505435448	0.00809155011
0	8357	78.324097640097	0.008130081301
0	8362	78.36281892087	0.008139534884
0	8368	78.412406531638	0.008151857459
0	8375	78.446762482588	0.008160410352
0	8378	78.454924796021	0.008501018876
0	8385	78.475357720025	0.00816707502
0	8388	78.483526701236	0.014328490827
0	8393	78.510689511353	0.008175659893
0	8399	78.528697959995	0.008180437069
0	8404	78.553332671627	0.00819576162
0	8410	78.571443043827	0.008206330598
0	8419	78.749214982348	0.008316502317
0	8422	78.757536427902	0.013781236626
0	8428	78.816419180042	0.008358208955
0	8433	78.83749532943	0.008372204282
0	8439	78.911527180337	0.008419533317
0	8444	78.922570090058	0.008426628145
0	8449	78.941702829265	0.008438818565
0	8458	79.151586558692	0.008558503485
0	8463	79.192338257213	0.008544921875
0	8468	79.202341224513	0.008541793777
0	8473	79.343831136956	0.008494114792
0	8478	79.368085429659	0.008486905917
0	8483	79.422153921427	0.008468424873
0	8488	79.52088511424	0.00843678438
0	8493	79.544816098914	0.008428657435
0	8498	79.568294938612	0.008420546133
0	8503	79.585127426405	0.008415484491
0	8508	79.712558656453	0.008374207441
0	8513	79.860649515748	0.008327385201
0	8521	79.917899849478	0.008309591643
0	8526	79.926206482918	0.014294872893
0	8529	79.934510160261	0.010993756979
0	8534	79.990994992521	0.008285984848
0	8540	80.01211078287	0.008279124778
0	8546	80.074620694529	0.008259587021
0	8552	80.137498683426	0.00824014126
0	8557	80.298731930875	0.008190966534
0	8564	80.345024869674	0.008176614881
0	8567	80.353198620258	0.014497645077
0	8572	80.376075525319	0.00816707502
0	8577	80.392454514255	0.008162313433
0	8582	80.411266750589	0.008156606852
0	8589	80.431400638217	0.00814995925
0	8592	80.439548700142	0.015131899177
0	8597	80.474880670727	0.008136696501
0	8604	80.614414799559	0.008095293165
0	8607	80.622507285108	0.014837625701
0	8612	80.659363066759	0.008081274532
0	8617	80.743604376079	0.008056162965
0	8622	80.806593110842	0.008037662189
0	8628	80.868764149754	0.008019246191
0	8637	80.921586710943	0.008003658815
0	8640	80.929588539932	0.014368847618
0	8643	80.937587625751	0.02021897865
0	8648	80.971248379933	0.007989955485
0	8653	81.002219944326	0.00798084597
0	8658	81.065781452496	0.007961783439
0	8667	81.205984396075	0.00792124024
0	8670	81.213903843976	0.01356548334
0	8675	81.269993358369	0.00790335328
0	8680	81.344422949207	0.007881995271
0	8685	81.371953707286	0.007874015748
0	8691	81.404109413476	0.007865168539
0	8697	81.443710729627	0.007853696847
0	8703	81.478406699401	0.007844016136
0	8708	81.522461693197	0.007831729693
0	8713	81.5717263014	0.00781773509
0	8719	81.713605900012	0.007778642071
0	8724	81.730363625279	0.007774322523
0	8731	81.886996415144	0.007731389441
0	8736	81.916585203386	0.007722859665
0	8741	81.981732178562	0.007705008255
0	8746	81.99523949114	0.00770161734
0	8751	82.018503667786	0.007695690413
0	8756	82.140293647795	0.007662835249
0	8761	82.165653775007	0.007655293088
0	8767	82.185170174864	0.00765194578
0	8772	82.260113588137	0.007752796544
0	8778	82.312623598312	0.007824726135
0	8784	82.363077325085	0.007894440059
0	8791	82.493499733049	0.008083140878
0	8796	82.502817347454	0.00809622947
0	8807	82.805537412857	0.008295804693
0	8810	82.813834200815	0.010947723761
0	8815	82.852012236261	0.008299739151
0	8821	82.896766103975	0.008302692445
0	8826	82.942948836343	0.00830663344
0	8831	82.974949832071	0.008308605341
0	8836	83.006910478503	0.008311564949
0	8842	83.056061861827	0.008315514374
0	8848	83.160920442414	0.008323424495
0	8853	83.217204109966	0.008328375967
0	8860	83.238379115311	0.008329366968
0	8863	83.246709473516	0.010566547793
0	8868	83.278200605256	0.008332341388
0	8873	83.356945753384	0.008339289969
0	8878	83.369883151548	0.00834028357
0	8884	83.440338402943	0.008345255126
0	8889	83.469205015378	0.008348240906
0	8898	83.603336259542	0.008358208955
0	8902	83.611695466612	0.016630749005
0	8905	83.620055672034	0.020846986868
0	8911	83.724464250234	0.008368200837
0	8916	83.806904997887	0.008374207441
0	8921	83.81588540623	0.00837520938
0	8926	83.844264032011	0.008377213978
0	8932	83.860807370383	0.008379219536
0	8937	83.949746948651	0.008386246556
0	8942	83.973151992717	0.008388256441
0	8948	84.043743284286	0.008393285372
0	8953	84.059527127656	0.008394291882
0	8961	84.215125623026	0.008407398511
0	8966	84.229349090332	0.008408408408
0	8972	84.25472120799	0.008410428932
0	8978	84.303509890641	0.008414472893
0	8984	84.349357821169	0.008417508418
0	8990	84.42944896298	0.008424599832
0	8996	84.456825414881	0.008426628145
0	9002	84.467246855276	0.008427642668
0	9007	84.503342600161	0.008430687703
0	9013	84.665984582301	0.008443908323
0	9020	84.840240492528	0.008457170472
0	9025	85.005671504394	0.008471499455
0	9031	85.128067734778	0.008480736613
0	9036	85.138901334867	0.008481764207
0	9041	85.216252157096	0.008487935007
0	9046	85.236489491646	0.008489993936
0	9051	85.255111210834	0.008491023775
0	9056	85.265228008461	0.008492053864
0	9062	85.339865022287	0.00849823965
0	9069	85.402425386828	0.008503401361
0	9072	85.410929821283	0.014304302462
0	9077	85.422303466261	0.008505467801
0	9082	85.476446910502	0.008509603696
0	9089	85.618043119926	0.008520998174
0	9095	85.670312106456	0.008484848485
0	9102	85.709575184593	0.008455127431
0	9107	85.726109125314	0.008441871684
0	9112	85.75288913216	0.008422572494
0	9117	85.782059254517	0.008400336013
0	9123	85.90606375698	0.008308605341
0	9128	85.975775302353	0.008258612553
0	9133	85.99736904107	0.008243052285
0	9138	86.008205550713	0.008235294118
0	9143	86.029121587771	0.008219821512
0	9148	86.102509268612	0.008168028005
0	9155	86.249501187704	0.008066374741
0	9163	86.274092147921	0.008048752443
0	9166	86.282136275708	0.015210867047
0	9171	86.413423022651	0.007955449483
0	9176	86.433066464938	0.007941910597
0	9181	86.470115752653	0.007917656374
0	9186	86.482958864858	0.00790871088
0	9192	86.502993954553	0.007895330476
0	9197	86.516322281032	0.007886435331
0	9203	86.583296997825	0.007843137255
0	9208	86.592101525002	0.007836990596
0	9213	86.650374366491	0.007799442897
0	9218	86.659477051082	0.007794232268
0	9223	86.692306070766	0.007772596047
0	9229	86.76076732173	0.007729681979
0	9234	86.796771157609	0.007706704833
0	9241	86.924059644784	0.007627765065
0	9246	86.939450316341	0.007635253054
0	9251	86.998935910378	0.007683020525
0	9256	87.011348227095	0.007693153094
0	9261	87.075454216559	0.007745076344
0	9266	87.097409372058	0.007763114118
0	9274	87.175260381832	0.007828226348
0	9277	87.183094741093	0.010109468534
0	9282	87.1965917201	0.00784577449
0	9289	87.28045605796	0.007916760914
0	9292	87.288379988229	0.008484518956
0	9297	87.378908617077	0.008001828989
0	9303	87.429836409826	0.008046901943
0	9308	87.562647310646	0.008166122259
0	9315	87.627108367194	0.008225616921
0	9320	87.639067504364	0.00823626309
0	9325	87.689142494483	0.008283043427
0	9332	87.733232681742	0.008325404377
0	9335	87.741566015075	0.010171185922
0	9343	87.849162520425	0.008410428932
0	9348	87.95692833058	0.008377213978
0	9353	87.996997688018	0.008365200765
0	9358	88.011321997003	0.008360205422
0	9366	88.111182281582	0.008330358205
0	9369	88.119509666783	0.01587016783
0	9375	88.158155376952	0.008315514374
0	9380	88.167863040057	0.008312551953
0	9385	88.176731931788	0.008309591643
0	9390	88.238820870763	0.008290891863
0	9395	88.333371977349	0.008262511804
0	9400	88.359717369579	0.008254716981
0	9409	88.420595014288	0.00823626309
0	9414	88.428829339661	0.015311288114
0	9419	88.437060760169	0.01810107663
0	9424	88.44528927786	0.023106646952
0	9427	88.453515861477	0.018880608112
0	9430	88.461739545688	0.022016569217
0	9435	88.611304915099	0.008179481187
0	9440	88.622201560316	0.008176614881
0	9447	88.76357939181	0.008134805346
0	9452	88.804119232812	0.008123476848
0	9457	88.820774729332	0.008118765948
0	9464	88.890997197443	0.00809810273
0	9467	88.899092490608	0.010420555668
0	9473	88.919760190029	0.00808967988
0	9478	88.947439053737	0.008082207597
0	9483	88.970260661466	0.008075680665
0	9488	89.00067778209	0.008066374741
0	9495	89.118979925526	0.008033050264
0	9500	89.181000448178	0.008015573113
0	9505	89.222128468325	0.008003658815
0	9510	89.301367169	0.00798084597
0	9517	89.322863432423	0.007975390224
0	9520	89.330836097571	0.011896599413
0	9527	89.342000522407	0.007969941933
0	9530	89.349967742985	0.014983590091
0	9535	89.378367371958	0.007959972709
0	9540	89.402417499864	0.007952738014
0	9545	89.451977678883	0.007939208348
0	9550	89.650039993884	0.007884658707
0	9558	89.710237995914	0.007867820614
0	9563	89.763414691972	0.007853696847
0	9568	89.807943099954	0.007841380083
0	9573	89.827670975507	0.007836113288
0	9578	89.862515891107	0.00782647585
0	9585	89.918475248884	0.007811628166
0	9593	90.004118667827	0.007789028597
0	9599	90.25361182812	0.007722859665
0	9604	90.273618456904	0.007717750827
0	9610	90.367077104072	0.007693153094
0	9619	90.403182489314	0.007683863886
0	9622	90.410863823672	0.013760825362
0	9625	90.418543472602	0.021035243632
0	9630	90.434463743981	0.007675438596
0	9635	90.502820189321	0.007657805492
0	9643	90.513749157359	0.007654455987
0	9646	90.521401939692	0.008875565711
0	9651	90.60934011015	0.007630259429
0	9657	90.642384540929	0.00762195122
0	9665	90.693321825496	0.007608695652
0	9668	90.700928867443	0.0105289319
0	9673	90.797895234147	0.007582322357
0	9679	90.815990917282	0.007577397705
0	9684	90.849701326772	0.007569204152
0	9691	90.920662762509	0.007551240561
0	9694	90.928212374243	0.011397248084
0	9699	90.959114529784	0.00754147813
0	9704	90.972100407302	0.007538229593
0	9711	91.024485015701	0.007525263384
0	9714	91.032008661445	0.010913445293
0	9719	91.045215475061	0.007520412548
0	9726	91.169272633269	0.007489033915
0	9729	91.17676006508	0.008692571941
0	9734	91.268239592575	0.007465074118
0	9739	91.305388713538	0.007455533071
0	9747	91.350927236651	0.007444432628
0	9753	91.459824370192	0.007418397626
0	9758	91.498419335411	0.007408975445
0	9763	91.517269160367	0.007404273323
0	9769	91.673180472107	0.007366870133
0	9775	91.68364085556	0.007364544976
0	9784	91.816511783986	0.00733291431
0	9789	91.823842394521	0.008296820574
0	9792	91.83117147001	0.00819425217
0	9798	91.878301765292	0.007318348144
0	9803	91.925369052379	0.007306889353
0	9809	91.94981234523	0.007300792657
0	9814	91.997126160906	0.007290147886
0	9819	92.064580624584	0.007274238803
0	9826	92.074084071428	0.007271971743
0	9832	92.110956554869	0.007263671267
0	9837	92.165519621648	0.007250880464
0	9843	92.190949855154	0.007244876837
0	9848	92.365028262105	0.007204610951
0	9853	92.419962066635	0.007192027124
0	9864	92.628053151371	0.007158928206
0	9869	92.638935877373	0.007178014766
0	9874	92.657159130974	0.007210548002
0	9881	92.675765312708	0.007243377483
0	9885	92.683021454514	0.011940310827
0	9892	92.824459418972	0.007517182131
0	9898	92.840402154011	0.00754798361
0	9903	92.881523536131	0.007628596338
0	9909	93.037616912399	0.007949125596
0	9914	93.109350895417	0.008105604447
0	9919	93.211133881295	0.008338296605
0	9924	93.236635622564	0.008399328054
0	9932	93.372097114887	0.008538667968
0	9937	93.413175209468	0.008520998174
0	9942	93.461814638651	0.008499271491
0	9947	93.479023149782	0.008492053864
0	9954	93.690852074751	0.008399328054
0	9959	93.700254463132	0.008395298633
0	9965	93.759399450491	0.008370202081
0	9970	93.818791452802	0.008345255126
0	9975	93.843212587716	0.008334325515
0	9980	93.856284229808	0.008329366968
0	9987	93.866157983107	0.008325404377
0	9990	93.874479428661	0.014372256689
0	9995	93.910384008907	0.00830663344
0	10003	94.00349631074	0.008267391048
0	10006	94.011759797932	0.016270288251
0	10012	94.3319858911	0.008132915069
0	10018	94.469842344369	0.008077544426
0	10026	94.507474586638	0.008062658374
0	10029	94.515534459983	0.013341931871
0	10034	94.577351443175	0.008034894399
0	10039	94.673931531132	0.007997258083
0	10046	94.72103378726	0.007979026559
0	10051	94.729009177484	0.00946067495
0	10054	94.736981842632	0.015204316381
0	10059	94.765191632067	0.007961783439
0	10064	94.786361325437	0.007953641632
0	10069	94.825754664356	0.007938308006
0	10074	94.860609841307	0.007924827352
0	10080	95.003920683966	0.007870474477
0	10085	95.024500820482	0.007862518252
0	10090	95.066623374006	0.007846653963
0	10095	95.084698071975	0.007840501792
0	10101	95.099997670633	0.007834359261
0	10109	95.149539048514	0.007815989281
0	10112	95.157352420542	0.013610209164
0	10119	95.273481906261	0.00782910189
0	10128	95.340402597077	0.00784225857
0	10131	95.348246613213	0.012989130173
0	10136	95.409150810054	0.00785634119
0	10141	95.439529598672	0.007862518252
0	10146	95.46076575266	0.00786693639
0	10152	95.489997673695	0.007873130132
0	10157	95.512964051798	0.007877560207
0	10162	95.528776794578	0.007880220646
0	10167	95.591183089951	0.007893549842
0	10174	95.635143451437	0.007902461052
0	10177	95.643046804717	0.014518795251
0	10182	95.690074406529	0.007913181099
0	10188	95.760945374561	0.007927519819
0	10193	95.81388560976	0.007938308006
0	10198	95.836061750075	0.007943713118
0	10203	95.857287174014	0.007947320618
0	10208	95.896455741298	0.007955449483
0	10216	96.005022702062	0.007978117164
0	10221	96.043398509725	0.007986309184
0	10229	96.076436315281	0.007992692396
0	10232	96.084430833326	0.011236828534
0	10239	96.350538494564	0.008050603795
0	10244	96.375018381766	0.008055235903
0	10249	96.422970339203	0.008065445328
0	10254	96.45873897879	0.008073817762
0	10260	96.500046823201	0.008082207597
0	10267	96.525536837047	0.008087810514
0	10270	96.533626516927	0.01016589999
0	10276	96.688479359221	0.008122534231
0	10281	96.750707616829	0.008135750814
0	10288	96.869970248646	0.008161361782
0	10293	96.878463226643	0.008163265306
0	10299	96.979075247398	0.008185219832
0	10304	97.037468437488	0.008198641368
0	10309	97.047299835105	0.008200562324
0	10314	97.110724293209	0.008214034264
0	10319	97.189237138507	0.008231420508
0	10324	97.232321708284	0.008241111373
0	10332	97.431993105653	0.008285004143
0	10337	97.44028007144	0.016464496939
0	10340	97.4485689998	0.010849432095
0	10346	97.481774011766	0.008296787958
0	10351	97.498073914345	0.008300723349
0	10356	97.57712196234	0.008318478907
0	10363	97.595190168355	0.008322434907
0	10366	97.603514582673	0.011597741508
0	10371	97.639985327212	0.008332341388
0	10376	97.733265246205	0.008353221957
0	10382	97.834901062552	0.008376211559
0	10387	97.879643253747	0.008387251378
0	10392	97.972523119003	0.008408408408
0	10398	98.142554004517	0.008447984552
0	10408	98.233756730334	0.008468424873
0	10411	98.242227204681	0.015264751799
0	10414	98.250699729493	0.02285478475
0	10421	98.333607359585	0.008492053864
0	10424	98.342101474377	0.014102705766
0	10429	98.351249296892	0.00849617672
0	10434	98.432548641896	0.008515815085
0	10441	98.523553144156	0.008536585366
0	10446	98.546090525386	0.008542836222
0	10452	98.612216847554	0.008558503485
0	10458	98.677494145586	0.008574228319
0	10464	98.78083807589	0.008598452279
0	10469	98.862405069761	0.008618566855
0	10474	98.897800057063	0.008627064333
0	10483	98.962237588227	0.008641975309
0	10487	98.970881697884	0.009510430589
0	10494	98.985559500121	0.008648381517
0	10497	98.994210019152	0.009353695362
0	10502	99.05648286815	0.008665511265
0	10507	99.12456033364	0.008682709005
0	10512	99.170725642814	0.0086934923
0	10517	99.244526752372	0.008711885501
0	10522	99.269183391066	0.008717310087
0	10530	99.492494184161	0.00868917577
0	10535	99.551230038112	0.008680555556
0	10544	99.7265696177	0.00865479723
0	10547	99.735223344984	0.01531935455
0	10552	99.76939255929	0.008649450142
0	10557	99.81847037905	0.008641975309
0	10562	99.828852475053	0.00864090853
0	10567	99.942637756455	0.008623875816
0	10572	99.984993210292	0.008618566855
0	10577	100.003495541946	0.008615384615
0	10582	100.04165144216	0.008610086101
0	10588	100.118271713842	0.0085995086
0	10593	100.144263012373	0.008595284872
0	10598	100.189388592371	0.008588957055
0	10603	100.20499533821	0.008586849853
0	10608	100.289100924056	0.008575278697
0	10614	100.363872228939	0.008564786492
0	10620	100.464046331265	0.008553274682
0	10625	100.473416853522	0.008552229688
0	10634	100.513357120539	0.008550140467
0	10637	100.521907261006	0.010199763421
0	10644	100.692875504117	0.008540751586
0	10650	100.795233045423	0.008535544446
0	10655	100.814308824128	0.00853450378
0	10663	100.878359972905	0.008531383303
0	10672	101.114326218338	0.008518924182
0	10678	101.268776350092	0.008510638298
0	10684	101.319944412627	0.008507535246
0	10691	101.333776159084	0.008506501397
0	10696	101.342282660481	0.012408704025
0	10701	101.350789161878	0.014709471059
0	10704	101.359294629679	0.009098226956
0	10709	101.397185202113	0.008503401361
0	10714	101.406070121801	0.008503401361
0	10719	101.46384173014	0.008500303582
0	10724	101.472454406203	0.008499271491
0	10729	101.497658398887	0.00849823965
0	10734	101.535054379315	0.00849617672
0	10741	101.608670158623	0.008492053864
0	10744	101.617162212487	0.012135764613
0	10751	101.710853032144	0.008486905917
0	10757	101.809414574986	0.008481764207
0	10763	101.943911343257	0.00826446281
0	10768	101.953712317959	0.008244994111
0	10773	101.991143278048	0.008170888292
0	10778	102.011569752351	0.008130081301
0	10783	102.04747947486	0.008060801474
0	10788	102.057568890103	0.008041355543
0	10795	102.102590569778	0.007956353717
0	10798	102.110532480375	0.013711066372
0	10803	102.121424924598	0.00792124024
0	10810	102.266060681059	0.007662835249
0	10815	102.289932360295	0.007621121394
0	10821	102.411032092996	0.00741918389
0	10828	102.537395121793	0.008025682183
0	10833	102.556383748891	0.008225616921
0	10839	102.564780692168	0.008316502317
0	10846	102.808234648254	0.008378216637
0	10851	102.858566762967	0.008388256441
0	10857	102.902028910981	0.008396305626
0	10865	103.246262033048	0.008463305525
0	10870	103.262458625282	0.008467400508
0	10875	103.280349977027	0.008470474347
0	10880	103.293773559497	0.008473550418
0	10885	103.326925124759	0.008479709267
0	10895	103.369897415574	0.008487935007
0	10898	103.37838740951	0.01077550674
0	10904	103.447161019002	0.008503401361
0	10911	103.512257993965	0.008516851198
0	10914	103.520775881529	0.009232902862
0	10920	103.56639057434	0.008527226215
0	10925	103.589806679943	0.008532423208
0	10931	103.609467518757	0.008518924182
0	10937	103.702498374855	0.008192883895
0	10943	103.752818951055	0.008026602454
0	10948	103.769462110833	0.008027522936
0	10954	103.816607594812	0.008035816783
0	10959	103.912672357376	0.008054309055
0	10964	103.973677565144	0.008065445328
0	10969	103.989399315645	0.008068234209
0	10974	104.040769363995	0.008077544426
0	10979	104.209335110727	0.008109360519
0	10985	104.238403748424	0.008115001159
0	10990	104.251769666008	0.008117824423
0	10996	104.284832856111	0.008124419684
0	11003	104.374823850778	0.008141428239
0	11006	104.382966226025	0.013167619352
0	11012	104.509332907014	0.00816707502
0	11017	104.540143520283	0.008172796264
0	11022	104.676898219951	0.008199601734
0	11027	104.732991504662	0.008210180624
0	11032	104.750323156912	0.008213070515
0	11037	104.832970222571	0.008229485069
0	11042	104.842964277931	0.008231420508
0	11052	104.961205781342	0.008254716981
0	11055	104.969461471872	0.011135497729
0	11061	105.129948637823	0.008287946957
0	11068	105.240289664256	0.008309591643
0	11073	105.321800233674	0.008325404377
0	11078	105.400936357131	0.008341277407
0	11084	105.438056359019	0.008349236641
0	11089	105.465922401856	0.008355216042
0	11098	105.623301838918	0.007208320461
0	11103	105.694202962005	0.007252382926
0	11108	105.757107615953	0.007291666667
0	11113	105.778775903446	0.007305364225
0	11118	105.834597713345	0.007341373886
0	11124	105.90552042193	0.007387083157
0	11129	105.959169140499	0.007422330612
0	11134	105.973658758591	0.007431786814
0	11139	106.002800479788	0.007450771687
0	11144	106.014467227721	0.007458710709
0	11149	106.05775219695	0.007487431811
0	11155	106.096360602225	0.007513148009
0	11160	106.132182482888	0.007537417896
0	11165	106.19195335697	0.007577397705
0	11170	106.20745233818	0.007588075881
0	11176	106.223763204222	0.007599609163
0	11185	106.334234978056	0.007676280294
0	11188	106.341916312414	0.014416344863
0	11193	106.381435930343	0.007709251101
0	11200	106.541375807367	0.00782385157
0	11205	106.560789093414	0.007828226348
0	11211	106.66164041574	0.0078378681
0	11216	106.74483735738	0.007844895215
0	11221	106.790919786946	0.007849293564
0	11227	106.806838337854	0.007851054284
0	11232	106.909179945844	0.007859869751
0	11238	106.996161338646	0.007867820614
0	11245	107.030429979019	0.007871359496
0	11248	107.038302223733	0.011490272923
0	11253	107.04791980251	0.007873130132
0	11259	107.163384988741	0.007882882883
0	11266	107.202632248209	0.007887323944
0	11271	107.237988556449	0.007889990983
0	11276	107.261634220984	0.007892659826
0	11281	107.404510958097	0.00790513834
0	11286	107.424207425676	0.007906924206
0	11292	107.463173893319	0.007910498361
0	11298	107.541498606369	0.007918552036
0	11306	107.662336994828	0.007929315813
0	11309	107.670267208944	0.010409373033
0	11317	107.685753297655	0.007932011331
0	11320	107.693685308986	0.011826621228
0	11326	107.704604971557	0.007932910245
0	11331	107.716054287146	0.007934708683
0	11336	107.766432397517	0.007939208348
0	11343	107.839570729911	0.007945516459
0	11346	107.847517148347	0.009019290683
0	11351	107.928006970202	0.007954545455
0	11356	107.945355127852	0.007955449483
0	11361	107.957567463572	0.007957258156
0	11366	108.044188945582	0.007965407374
0	11372	108.112619026361	0.007954545455
0	11380	108.291721794672	0.007896221094
0	11383	108.299615344514	0.011455071607
0	11389	108.366663279276	0.007871359496
0	11395	108.44802430994	0.00784577449
0	11400	108.538573236462	0.007816862088
0	11405	108.600778898531	0.007796836712
0	11411	108.660653513721	0.007777777778
0	11417	108.793736658584	0.007736516357
0	11423	108.866943650901	0.007713498623
0	11430	108.914279932705	0.007699076111
0	11433	108.921976469264	0.0084156198
0	11441	109.013973649101	0.007667871618
0	11444	109.021639841194	0.014673672791
0	11452	109.047661536402	0.007661157929
0	11455	109.055324371651	0.015001847778
0	11460	109.175323170793	0.007684707432
0	11469	109.266946628477	0.00770161734
0	11472	109.274649093266	0.014255900053
0	11477	109.314619225968	0.007710100231
0	11482	109.366359458088	0.007719453022
0	11489	109.385859469262	0.007723711795
0	11492	109.393584033376	0.011866884499
0	11497	109.422760134621	0.007730535616
0	11503	109.580431558932	0.007759671877
0	11510	109.59735051459	0.007763114118
0	11513	109.605114489745	0.015302382096
0	11519	109.657863292084	0.007774322523
0	11524	109.68319397007	0.007778642071
0	11529	109.781189220801	0.007797705247
0	11534	109.819853171932	0.007804660497
0	11541	109.853066993589	0.007810756528
0	11544	109.860879493589	0.010121487062
0	11549	109.891976410071	0.007818608288
0	11554	110.024210853232	0.007844016136
0	11561	110.171540626686	0.007872244714
0	11566	110.223438091796	0.007881995271
0	11573	110.2614117996	0.007889101769
0	11576	110.269302679997	0.008793698354
0	11583	110.413031133122	0.007918552036
0	11586	110.420951477091	0.011821102505
0	11594	110.631978844782	0.007961783439
0	11600	110.705042515009	0.007976298997
0	11606	110.855534197304	0.008006405124
0	11611	110.883271981124	0.008011903399
0	11616	110.892650758066	0.008013737836
0	11621	110.914145332172	0.008018327606
0	11626	110.926150661735	0.008020164986
0	11633	110.976726673283	0.008030285649
0	11636	110.984758801797	0.010748176596
0	11641	110.999337759142	0.008034894399
0	11646	111.241134569561	0.008084074373
0	11651	111.269010580277	0.00808967988
0	11657	111.320608530996	0.008099976857
0	11663	111.375319175568	0.008111239861
0	11668	111.403967106903	0.008116883117
0	11674	111.440743709758	0.008124419684
0	11679	111.466390358773	0.008130081301
0	11684	111.554914817244	0.008148061925
0	11689	111.574129953327	0.008151857459
0	11694	111.620516987753	0.008162313433
0	11699	111.66910120161	0.008171842167
0	11708	111.786749938793	0.008196721311
0	11711	111.794948580161	0.012402359884
0	11716	111.827356152144	0.008205368655
0	11723	112.01905853005	0.008244994111
0	11728	112.046189893222	0.008250825083
0	11733	112.084989996808	0.008259587021
0	11738	112.126935357801	0.008268367588
0	11744	112.150465576401	0.008273253753
0	11749	112.222659525643	0.00828892836
0	11755	112.440792644248	0.008335317933
0	11760	112.51626117885	0.008352225271
0	11765	112.534920389156	0.008356213442
0	11771	112.768307116958	0.008407398511
0	11778	112.797497609433	0.008413461538
0	11781	112.805913093924	0.015791968491
0	11786	112.825702009046	0.008419533317
0	11791	112.837252335372	0.008422572494
0	11796	112.858758475678	0.008426628145
0	11803	112.909885686615	0.00843780135
0	11806	112.918325522641	0.015618324803
0	11811	112.935374062197	0.008443908323
0	11816	112.947577459694	0.008446965126
0	11821	112.959913215822	0.008449004225
0	11826	112.983443564731	0.008455127431
0	11832	113.013179278717	0.008442889881
0	11838	113.096344262816	0.008245965367
0	11845	113.107714625173	0.008219821512
0	11848	113.115915187497	0.010282994116
0	11855	113.134240552076	0.008159459144
0	11862	113.142381033527	0.012112064433
0	11865	113.150503567758	0.016061496319
0	11868	113.15860823373	0.017240970057
0	11874	113.217578597443	0.007974481659
0	11879	113.269594350571	0.007863401483
0	11884	113.282696330915	0.007836113288
0	11889	113.304925488881	0.007789895393
0	11895	113.460711564307	0.007480230819
0	11900	113.472014624026	0.007458710709
0	11906	113.600115879887	0.007223942208
0	11911	113.619506591826	0.007189811011
0	11916	113.631461241805	0.007168458781
0	11924	113.690717118768	0.007073565077
0	11927	113.697796406794	0.007872183299
0	11933	113.794558264291	0.007161857991
0	11938	113.812768240932	0.007178014766
0	11943	113.869553937753	0.007227671657
0	11949	113.947940621136	0.007296987387
[...]
19	19549	186.555526319742	2.8926229528817
19	19800	189.448149272624	2.7506867872839
19	20079	192.198836059908	2.0875870693444
19	20346	194.286423129252	0.25582806384535
19	20392	194.542251193097	1.1523808281464
19	20519	195.694632021243	2.5851098757374
19	20781	198.27974189698	0.3967099670362
19	20828	198.676451864016	5.9603003093786
19	21370	204.636752173395	0.33808106843391
19	21419	204.974833241829	4.1735311790211
19	21879	209.14836442085	1.6940031197024
19	22082	210.842367540552	1.8409398631933
19	22287	212.683307403745	1.6000957899204
19	22465	214.283403193665	0.37454975968586
19	22518	214.657952953351	0.59697387013738
19	22598	215.254926823488	2.6842498628497
19	22876	217.939176686338	0.72081752524403
19	22938	218.659994211582	1.6432448121157
19	23083	220.303239023698	1.9186758247287
19	23251	222.221914848427	2.9066724165393
19	23532	225.128587264966	5.0316487038487
19	24029	230.160235968815	0.22830872703557
19	24058	230.388544695851	1.6251866463451
19	24222	232.013731342196	1.5168006581626
19	24404	233.530532000359	0.13501414668167
19	24425	233.665546147041	0.50401959664212
19	24462	234.169565743683	1.2550446305929
19	24638	235.424610374276	0.71479111396484
19	24722	236.139401488241	0.17692403859225
19	24739	236.316325526833	1.2517938287988
19	24856	237.568119355632	1.1694683170727
19	24997	238.737587672705	1.3210363533977
19	25130	240.058624026103	0.25755482764575
19	25151	240.316178853749	6.9360632917925
19	25945	247.252242145542	1.8998485978927
19	26117	249.152090743435	4.0018349430405
19	26581	253.153925686476	0.29219678667352
19	26603	253.44612247315	1.1465162311389
19	26768	254.592638704289	1.5676060603926
19	26931	256.160244764682	1.7988730790221
19	27105	257.959117843704	0.38890168233428
19	27160	258.348019526038	3.0589227694533
19	27533	261.406942295491	0.1115835283015
19	27552	261.518525823792	0.56611009318729
19	27639	262.084635916979	1.5835712776992
19	27831	263.668207194678	0.22538494331244
19	27862	263.89359213799	1.1457422312565
19	27999	265.039334369247	2.9260906067047
19	28294	267.965424975952	0.1590282309915
19	28313	268.124453206943	0.27792250328147
19	28327	268.402375710224	3.3794325562995
19	28705	271.781808266523	3.2673818992972
19	29080	275.04919016582	3.1659582493155
19	29435	278.215148415135	0.06548038954952
19	29441	278.280628804685	0.66147379332023
19	29495	278.942102598005	2.187810485163
19	29745	281.129913083168	3.656779574553
19	30150	284.786692657721	0.85351522414405
19	30241	285.640207881865	1.5583193648913
19	30434	287.198527246756	0.97937166296699
19	30517	288.177898909723	0.67676317973535
19	30583	288.854662089458	0.62089100804688
19	30675	289.475553097505	1.4575722276814
19	30809	290.933125325186	2.3758137117515
19	31028	293.308939036938	2.4867384599235
19	31224	295.795677496862	4.0345049339601
19	31706	299.830182430822	0.32667616831847
19	31735	300.15685859914	3.5152018828909
19	32083	303.672060482031	0.061730474241033
19	32084	303.733790956272	2.648708035061
19	32338	306.382498991333	4.2819440950366
19	32824	310.66444308637	1.5509527450936
19	32982	312.215395831464	3.2225140285892
19	33313	315.437909860053	0.78092523501223
19	33400	316.218835095065	0.77145551764271
19	33476	316.990290612708	0.54023026595852
19	33536	317.530520878667	0.21452385604206
19	33560	317.745044734709	1.0905387329244
19	33666	318.835583467633	2.3049191037942
19	33845	321.140502571427	1.8187537071814
19	34020	322.959256278608	0.18038849601349
19	34041	323.139644774621	2.5409958104987
19	34319	325.68064058512	2.0422224649121
19	34540	327.722863050032	0.86673537325419
19	34665	328.589598423286	1.2632629045856
19	34818	329.852861327872	0.21204538530134
19	34850	330.064906713173	1.1430933818146
19	34987	331.208000094988	2.2686515168633
19	35231	333.476651611851	4.4023853988418
19	35651	337.879037010693	1.0334608857276
19	35748	338.912497896421	1.4506792957272
19	35910	340.363177192148	1.647514096594
19	36110	342.010691288742	1.0057270615226
19	36257	343.016418350265	1.3817278267077
19	36430	344.398146176973	0.72196227625479
19	36498	345.120108453228	1.9051773121261
19	36675	347.025285765354	0.73621296373855
19	36749	347.761498729093	2.9307107782194
19	37166	350.692209507312	1.2245470310838
19	37288	351.916756538396	3.0068100652867
19	37634	354.923566603683	1.8600790582697
19	37859	356.783645661953	0.29281299450418
19	37897	357.076458656457	0.90304761133052
19	38018	357.979506267788	4.9179409015628
19	38628	362.897447169351	4.0039480371944
19	39099	366.901395206545	0.24940805850217
19	39121	367.150803265047	1.6235949535532
19	39247	368.7743982186	2.8862474883658
19	39544	371.660645706966	3.2730243487319
19	39866	374.933670055698	1.5498248261951
19	40033	376.483494881893	0.046184727017751
19	40035	376.529679608911	7.6862418045502
19	40931	384.215921413461	0.052365745384375
19	40934	384.268287158845	1.4519882987092
19	41075	385.720275457554	5.701333118267
19	41652	391.421608575821	0.49228807702119
19	41697	391.913896652842	1.3357063000019
19	41871	393.249602952844	0.88769295001542
19	42007	394.137295902859	2.4457749010436
19	42304	396.583070803903	1.800235205369
19	42453	398.383306009272	0.38740505237004
19	42504	398.770711061642	0.037557317075842
19	42512	398.808268378718	1.6017942633232
20	1660	15.699145912479	3.6944432493739
20	2092	19.393589161853	1.0232753817994
20	2169	20.416864543652	0.68394972534198
20	2245	21.100814268994	6.327606446961
20	2938	27.428420715955	1.3063701151624
20	3081	28.734790831117	0.91227359652747
20	3183	29.647064427644	1.5846772160922
20	3332	31.231741643736	0.62786585040329
20	3396	31.859607494139	0.52174059751236
20	3447	32.381348091651	1.1295440575402
20	3559	33.510892149191	1.0084075358927
20	3699	34.519299685084	0.99007385103049
20	3787	35.509373536114	0.78183610128659
20	3847	36.291209637401	0.93406035742896
20	3995	37.22526999483	0.15071956867543
20	3997	37.375989563505	1.5902545097126
20	4151	38.966244073218	7.2069770070728
20	4944	46.173221080291	4.7443074713719
20	5437	50.917528551663	3.1606408160595
20	5793	54.078169367723	0.54505533663731
20	5829	54.62322470436	2.0224200039932
20	6037	56.645644708353	6.3284658718723
20	6703	62.974110580225	2.6989710639261
20	6953	65.673081644151	4.6423351861352
20	7456	70.315416830286	3.9430715928061
20	7869	74.258488423092	6.9232180748572
20	8662	81.181706497949	0.39446861850597
20	8716	81.576175116455	4.9116325478014
20	9189	86.487807664256	0.68332562258934
20	9271	87.171133286845	0.5712761761871
20	9338	87.742409463032	2.2527232607363
20	9589	89.995132723768	1.55263902282
20	9766	91.547771746588	1.288002443916
20	9897	92.835774190504	2.4621960230966
20	10122	95.297970213601	0.98117829138886
20	10236	96.27914850499	2.3890510939711
20	10455	98.668199598961	0.29456377834234
20	10486	98.962763377303	1.8782897827015
20	10658	100.841053160005	0.022534302550283
20	10659	100.863587462555	0.83383724553206
20	10748	101.697424708087	0.66828906742438
20	10818	102.365713775511	0.29661030159555
20	10842	102.662324077107	1.5666519569522
20	10982	104.228976034059	0.6991355489946
20	11046	104.928111583054	4.2567453078896
20	11463	109.184856890944	0.93019817150774
20	11558	110.115055062452	0.47756940425137
20	11591	110.592624466703	4.1576638322877
20	12046	114.750288298991	2.0748176115196
20	12257	116.825105910511	0.94003141267456
20	12352	117.765137323186	0.36008234653353
20	12411	118.12521966972	0.90185991414428
20	12556	119.027079583864	1.7512288840459
20	12770	120.77830846791	1.6331972464673
20	12961	122.411505714377	0.18860372803996
20	12974	122.600109442417	2.3599533085167
20	13226	124.960062750934	2.36914115286
20	13457	127.329203903794	1.438942878376
20	13652	128.76814678217	5.5613787371783
20	14246	134.329525519348	2.9077460166954
20	14508	137.237271536043	0.30553892439036
20	14532	137.542810460433	2.9261561016063
20	14778	140.468966562039	6.7534326433979
20	15454	147.222399205437	0.72652845131617
20	15541	147.948927656753	0.19956485096233
20	15553	148.148492507715	7.2959075892168
20	16319	155.444400096932	1.6668865620474
20	16527	157.111286658979	0.3425590493209
20	16560	157.4538457083	0.065006258303889
20	16567	157.518851966604	0.90550949950346
20	16684	158.424361466107	4.4249232760555
20	17120	162.849284742163	7.2421930970771
20	17943	170.09147783924	0.040810044460764
20	17950	170.132287883701	2.0485482514819
20	18184	172.180836135183	0.91541987506362
20	18278	173.096256010247	0.10641259297284
20	18292	173.20266860322	5.713148178947
20	18782	178.915816782167	0.2151088859494
20	18804	179.130925668116	6.5126237431043
20	19489	185.64354941122	1.2173381689041
20	19576	186.860887580124	2.0172526092128
20	19756	188.878140189337	3.3124431563555
20	20078	192.190583345693	0.46324225216341
20	20120	192.653825597856	1.9420316981636
20	20401	194.59585729602	2.0461968786601
20	20641	196.64205417468	0.42430742279944
20	20663	197.066361597479	2.9771180940323
20	20937	200.043479691511	2.1907551665172
20	21169	202.234234858028	0.96114683304272
20	21265	203.195381691071	0.84914827333962
20	21333	204.044529964411	0.26541382948879
20	21351	204.3099437939	1.1297149242526
20	21460	205.439658718153	0.26582983085126
20	21482	205.705488549004	0.26312096720293
20	21517	205.968609516207	4.3589594765956
20	22010	210.327568992803	0.63982010878755
20	22094	210.967389101591	1.4387715955356
20	22256	212.406160697127	2.0981513581913
20	22496	214.504312055318	0.36131516892757
20	22544	214.865627224246	1.6342323648485
20	22727	216.499859589094	0.84748070007418
20	22818	217.347340289168	0.49206784800176
20	22865	217.83940813717	1.1889204268566
20	22966	219.028328564027	1.7724423631837
20	23140	220.800770927211	1.3797408086811
20	23244	222.180511735892	1.5740374042256
20	23393	223.754549140118	1.108843457326
20	23502	224.863392597444	1.3432372901772
20	23597	226.206629887621	0.17635752462854
20	23634	226.38298741225	0.67729501585033
20	23708	227.0602824281	1.8300024736176
20	23926	228.890284901718	2.0100555697277
20	24098	230.900340471446	0.74687148559541
20	24167	231.647211957041	1.4613111766307
20	24366	233.108523133672	2.2372748432479
20	24627	235.34579797692	6.2769746910604
20	25330	241.62277266798	0.13059697734092
20	25343	241.753369645321	0.079124131444306
20	25349	241.832493776765	1.9359856665442
20	25529	243.768479443309	1.8255925339806
20	25777	245.59407197729	3.9760057678717
20	26199	249.570077745162	4.4562687269478
20	26684	254.02634647211	0.7453139942772
20	26781	254.771660466387	1.5789550960806
20	26937	256.350615562468	0.54893327669188
20	27005	256.89954883916	1.4533842442319
20	27164	258.352933083392	0.8758623386207
20	27257	259.228795422013	0.54175971584592
20	27331	259.770555137859	2.8911181452851
20	27677	262.661673283144	4.154972957947
20	28218	266.816646241091	1.4625299811402
20	28324	268.279176222231	1.1207168077844
20	28412	269.399893030015	3.1497250948312
20	28774	272.549618124846	0.48198256813733
20	28820	273.031600692983	0.62454753340819
20	28924	273.656148226391	0.78641770588903
20	29019	274.44256593228	2.0450234936041
20	29257	276.487589425884	0.81558013805366
20	29366	277.303169563938	0.30410477494417
20	29390	277.607274338882	1.3085150284076
20	29491	278.91578936729	2.9962936289246
20	29833	281.912082996215	0.89535069246788
20	29936	282.807433688683	0.0097979612511732
20	29942	282.817231649934	0.59988724910623
20	29997	283.41711889904	1.7558497865377
20	30186	285.172968685578	2.5670354482626
20	30462	287.740004133841	0.19544056938302
20	30482	287.935444703224	3.060924835836
20	30815	290.99636953906	1.4677388020187
20	30938	292.464108341079	5.8256383806184
20	31499	298.289746721697	0.66786162197592
20	31589	298.957608343673	7.2581442850548
20	32322	306.215752628728	4.7106357558422
20	32847	310.92638838457	3.6648619710161
20	33259	314.591250355586	3.9157106269192
20	33632	318.506960982505	0.47833069570504
20	33682	318.98529167821	0.47793367736235
20	33726	319.463225355572	0.75622809708711
20	33773	320.219453452659	2.251047172643
20	33953	322.470500625302	0.33839924340537
20	33993	322.808899868707	1.2113455369901
20	34136	324.020245405697	0.77808619883656
20	34236	324.798331604534	0.72323968940419
20	34307	325.521571293938	0.1981426559362
20	34326	325.719713949874	0.76947394875818
20	34389	326.489187898632	1.2793128632028
20	34557	327.768500761835	2.5162177661531
20	34864	330.284718527988	1.0441146284463
20	34988	331.328833156434	0.75261657583429
20	35071	332.081449732268	0.78664145307399
20	35173	332.868091185342	3.8137261271414
20	35519	336.681817312483	3.7952041098148
20	35931	340.477021422298	3.1982131309989
20	36336	343.675234553297	2.7478773240005
20	36624	346.423111877297	0.93405292155476
20	36706	347.357164798852	7.9649212275839
20	37684	355.322086026436	2.1011028149071
20	37930	357.423188841343	1.3231805679047
20	38112	358.746369409248	2.7324648347538
20	38479	361.478834244002	1.7014086369283
20	38655	363.18024288093	0.47855143846641
20	38678	363.658794319396	0.5444405344893
20	38743	364.203234853885	1.0019258829977
20	38882	365.205160736883	3.6675948499261
20	39253	368.872755586809	1.5627146230352
20	39408	370.435470209844	4.3003642943464
20	39837	374.73583450419	0.19034450454222
20	39863	374.926179008732	0.18173607928062
20	39895	375.107915088013	1.4434976646644
20	40036	376.551412752677	1.4504346394742
20	40249	378.001847392151	5.2973496390491
20	40817	383.2991970312	2.7839763181681
20	41107	386.083173349368	12.503540693889
20	42482	398.586714043257	1.6487491954844
21	1894	17.693397425771	4.2323666669641
21	2338	21.925764092735	0.97694566686463
21	2448	22.9027097596	2.1988714306966
21	2693	25.101581190297	5.8876274038887
21	3309	30.989208594186	2.6186564246267
21	3570	33.607865018813	0.027923550026727
21	3571	33.63578856884	4.0636308214809
21	4021	37.699419390321	5.0027332031573
21	4558	42.702152593478	4.8100314358935
21	5095	47.512184029371	0.0093439622259515
21	5098	47.521527991597	1.2559749344567
21	5253	48.777502926054	1.0579856527354
21	5348	49.835488578789	7.0101393131804
21	6049	56.845627891969	0.019753261196227
21	6055	56.865381153165	3.0107629004097
21	6361	59.876144053575	3.0203151840191
21	6691	62.896459237594	1.4157450354637
21	6826	64.312204273058	1.2930525758911
21	6940	65.605256848949	0.076832140293538
21	6959	65.682088989243	0.4086986869429
21	7005	66.090787676186	2.3715019474076
21	7241	68.462289623594	1.7440649225136
21	7440	70.206354546108	0.12787061531062
21	7457	70.334225161419	0.57445266358169
21	7507	70.908677825001	1.6261450129705
21	7688	72.534822837972	4.1264343922082
21	8182	76.66125723018	0.18388201831349
21	8199	76.845139248493	3.2209410000527
21	8543	80.066080248546	0.067138830537295
21	8551	80.133219079083	1.5976156052336
21	8727	81.730834684317	10.340515500452
21	9825	92.071350184769	2.8196374759268
21	10077	94.890987660696	1.9700390122337
21	10285	96.86102667293	0.60087446197536
21	10343	97.461901134905	0.66609923287975
21	10395	98.128000367785	0.028324345376727
21	10401	98.156324713162	0.61383963220523
21	10461	98.770164345367	1.5471439964933
21	10611	100.31730834186	11.417161557931
21	11703	111.734469899791	6.5202318837597
21	12437	118.254701783551	7.4895663105001
21	13291	125.744268094051	2.3988442533862
21	13563	128.143112347437	0.37412614170554
21	13615	128.517238489143	0.33704151641089
21	13654	128.854280005554	1.5221479503352
21	13758	130.376427955889	6.8240437479307
21	14504	137.20047170382	8.6261230687399
21	15350	145.82659477256	5.9398083021082
21	15912	151.766403074668	0.088172900755362
21	15921	151.854575975423	0.65657001155718
21	16003	152.51114598698	8.3980347375439
21	16904	160.909180724524	3.0313389908312
21	17266	163.940519715355	1.1924221278557
21	17433	165.132941843211	0.049929512798084
21	17434	165.182871356009	11.396291779546
21	18598	176.579163135555	9.1170553715602
21	19490	185.696218507115	2.2183706180701
21	19679	187.914589125185	0.20668671104268
21	19692	188.121275836228	4.7284089842494
21	20156	192.849684820477	3.362320627634
21	20573	196.212005448111	5.2628389651196
21	21084	201.474844413231	0.87221882710075
21	21180	202.347063240332	3.3605367189287
21	21483	205.707599959261	0.099071228725725
21	21500	205.806671187987	0.45662678956302
21	21564	206.26329797755	0.88696344746922
21	21647	207.150261425019	0.28782555232125
21	21689	207.43808697734	0.30563643689512
21	21723	207.743723414235	0.66758887526412
21	21790	208.411312289499	1.5174874869777
21	21976	209.928799776477	0.33031445444015
21	22008	210.259114230917	4.1487008276952
21	22483	214.407815058612	0.018216525456502
21	22489	214.426031584069	3.2532467295016
21	22852	217.679278313571	3.9601519943646
21	23210	221.639430307936	2.4790188197545
21	23435	224.118449127691	0.02745960011989
21	23438	224.145908727811	2.2851737401766
21	23642	226.431082467988	3.9516247842757
21	24055	230.382707252264	1.181123328139
21	24161	231.563830580403	6.6521883000944
21	24965	238.216018880497	1.4404540092449
21	25098	239.656472889742	0.61224210207383
21	25150	240.268714991816	0.061526812895841
21	25152	240.330241804712	1.3661060359235
21	25336	241.696347840636	0.89283557869074
21	25436	242.589183419327	2.1818692216441
21	25677	244.771052640971	1.4136294792655
21	25872	246.184682120237	1.0429285271143
21	25944	247.227610647351	2.077705530373
21	26147	249.305316177724	4.7125950105214
21	26683	254.017911188245	1.4027458180544
21	26865	255.420657006299	3.5279590992985
21	27232	258.948616105597	3.0852574667302
21	27631	262.033873572327	3.9986391374031
21	28127	266.03251270973	0.98279574400078
21	28235	267.015308453731	4.4571292526326
21	28673	271.472437706364	0.78027330897071
21	28748	272.252711015335	5.333710085468
21	29389	277.586421100803	1.4802131080128
21	29514	279.066634208816	2.1499831297544
21	29754	281.21661733857	3.2605156204225
21	30130	284.477132958993	0.81223481522771
21	30187	285.289367774221	1.626725727348
21	30403	286.916093501569	0.18209750678713
21	30420	287.098191008356	0.79899122348548
21	30480	287.897182231841	0.1111634085345
21	30495	288.008345640376	0.84002171954039
21	30582	288.848367359916	2.4663257729195
21	30863	291.314693132836	2.1048899002923
21	31035	293.419583033128	2.8284404510672
21	31276	296.248023484195	0.34942967700792
21	31306	296.597453161203	2.0071943220095
21	31532	298.604647483213	2.7201313295803
21	31845	301.324778812793	1.0833255866273
21	31913	302.40810439942	2.3539623039011
21	32196	304.762066703321	0.40449579817455
21	32235	305.166562501496	5.8439190626629
21	32849	311.010481564159	2.1983724916897
21	33088	313.208854055849	0.60794399944335
21	33180	313.816798055292	1.4291078993563
21	33299	315.245905954648	0.71768943011143
21	33392	315.963595384759	2.1008108413189
21	33591	318.064406226078	0.28858050890074
21	33625	318.352986734979	2.2392120803035
21	33789	320.592198815283	2.9190151075136
21	34084	323.511213922797	1.2092265115692
21	34228	324.720440434366	1.237712420308
21	34338	325.958152854674	1.0361514083788
21	34449	326.994304263053	0.51739588947882
21	34523	327.511700152532	5.5627846556587
21	35198	333.074484808191	1.2874166675389
21	35279	334.36190147573	3.6211433901249
21	35658	337.983044865855	4.9273526942962
21	36241	342.910397560151	0.43348023889172
21	36292	343.343877799043	0.3279120934259
21	36335	343.671789892469	3.1603165605888
21	36671	346.832106453058	1.5250513713821
21	36839	348.35715782444	0.44799235797436
21	36913	348.805150182414	1.0254338744804
21	37047	349.830584056894	1.8991328877276
21	37265	351.729716944622	1.0301916815911
21	37385	352.759908626213	4.6902961666828
21	37934	357.450204792896	3.4240905148838
21	38402	360.87429530778	1.9254619912334
21	38624	362.799757299013	1.1094450140395
21	38716	363.909202313053	4.1026343176278
21	39188	368.011836630681	0.58300110060459
21	39240	368.594837731286	2.229470945967
21	39465	370.824308677253	2.111449640644
21	39673	372.935758317897	3.0394788253867
21	39996	375.975237143284	1.1436967032587
21	40155	377.118933846543	5.2143371018609
21	40696	382.333270948404	1.1032071626374
21	40835	383.436478111041	3.4156514503153
21	41192	386.852129561356	0.86772815618922
21	41282	387.719857717545	0.66741351120125
21	41354	388.387271228746	0.81656978301766
21	41439	389.203841011764	4.6359979033292
21	41965	393.839838915093	8.6073593023467

