file 8628643 1614185329                                         
version 2
run Nonmonitoring-exponential-184-20210224-17:48:47-26767
attr configname Nonmonitoring-exponential
attr datetime 20210224-17:48:47
attr experiment Nonmonitoring-exponential
attr inifile aerocom.ini
attr iterationvars $0=10
attr iterationvarsf 10-
attr measurement $0=10
attr network Aerocom
attr processid 26767
attr repetition 84
attr replication #84
attr resultdir results
attr runnumber 184
attr seedset 84
param **.t 2s
param **.k 10ms
param **.X 0.05s
param **.m 1s
param **.tDistribution "\"exponential\""
param **.operationMode 1
param **.s "70 byte"
param **.dimPoolMax 10000
param **.dimPoolMin 8000
param **.nDL 16
param **.nA 1
param **.DLMaxCapacity 0
param **.trasmitting false

vector 0 Aerocom.aircraft[0].linkSelector responseTime:vector ETV
attr "" ""
attr source computeResponseTime
vector 1 Aerocom.aircraft[0].linkSelector waitingTime:vector ETV
attr "" ""
attr source computeWaitingTime
vector 2 Aerocom.aircraft[0].linkSelector queueLength:vector ETV
attr "" ""
attr source computeQueueLength
vector 3 Aerocom.aircraft[0].dataLink[9] actualCapacity:vector ETV
attr "" ""
attr source computeActualCapacity
vector 4 Aerocom.aircraft[0].linkSelector serviceTime:vector ETV
attr "" ""
attr source computeServiceTime
vector 5 Aerocom.aircraft[0].packetGenerator arrivalTime:vector ETV
attr "" ""
attr source computeArrivalTime
vector 6 Aerocom.aircraft[0].dataLink[13] tDistribution:vector ETV
attr "" ""
attr source computeTDistribution
vector 7 Aerocom.aircraft[0].dataLink[15] tDistribution:vector ETV
attr "" ""
attr source computeTDistribution
vector 8 Aerocom.aircraft[0].dataLink[9] tDistribution:vector ETV
attr "" ""
attr source computeTDistribution
vector 9 Aerocom.aircraft[0].dataLink[5] tDistribution:vector ETV
attr "" ""
attr source computeTDistribution
vector 10 Aerocom.aircraft[0].dataLink[14] tDistribution:vector ETV
attr "" ""
attr source computeTDistribution
vector 11 Aerocom.aircraft[0].dataLink[0] tDistribution:vector ETV
attr "" ""
attr source computeTDistribution
vector 12 Aerocom.aircraft[0].dataLink[10] tDistribution:vector ETV
attr "" ""
attr source computeTDistribution
vector 13 Aerocom.aircraft[0].dataLink[3] tDistribution:vector ETV
attr "" ""
attr source computeTDistribution
vector 14 Aerocom.aircraft[0].dataLink[6] tDistribution:vector ETV
attr "" ""
attr source computeTDistribution
vector 15 Aerocom.aircraft[0].dataLink[11] tDistribution:vector ETV
attr "" ""
attr source computeTDistribution
vector 16 Aerocom.aircraft[0].dataLink[7] tDistribution:vector ETV
attr "" ""
attr source computeTDistribution
vector 17 Aerocom.aircraft[0].dataLink[1] tDistribution:vector ETV
attr "" ""
attr source computeTDistribution
vector 18 Aerocom.aircraft[0].dataLink[8] tDistribution:vector ETV
attr "" ""
attr source computeTDistribution
vector 19 Aerocom.aircraft[0].dataLink[4] tDistribution:vector ETV
attr "" ""
attr source computeTDistribution
vector 20 Aerocom.aircraft[0].dataLink[12] tDistribution:vector ETV
attr "" ""
attr source computeTDistribution
vector 21 Aerocom.aircraft[0].dataLink[2] tDistribution:vector ETV
attr "" ""
attr source computeTDistribution
5	3133 1307111 4863 171442 10.010773276538 339.578853633778 32768 1.14721e-07 0.094911004889 329.57719159023 6.6424819416373
0	1310244 1307458 4857 171451 10.002494572957 339.589052025214 32768 0.007030936119 0.161430902722 721.84416956069 25.82548758711
1	2617702 1213062 4857 171451 10.002494572957 339.589052025214 32768 0 0.152852471349 467.33451198045 16.490866835145
2	3830764 885418 4857 171451 10.002494572957 339.589052025214 32768 0 17 46861 210107
3	4716182 983399 4857 171451 10.002494572957 339.589052025214 32768 8020 9956 296083662 2682388029600
4	5699581 1437992 4857 171451 10.002494572957 339.589052025214 32768 0.0070309361189233 0.0087281795511222 254.5290965087 1.982381708589
0	7137573 247747 171456 202295 339.597277642135 399.996610289955 6075 0.007077856421 0.116812808251 124.59442554031 3.96055797557
1	7385320 230308 171456 202295 339.597277642135 399.996610289955 6075 0 0.108734331621 77.415646947883 2.3710602712875
2	7615628 169469 171456 202295 339.597277642135 399.996610289955 6075 0 13 7479 28921
3	7785097 187664 171456 202295 339.597277642135 399.996610289955 6075 8037 9890 54947182 498618963146
4	7972761 271909 171456 202295 339.597277642135 399.996610289955 6075 0.0070778564206269 0.0087097175563021 47.172092567567 0.36751499592715
5	8244670 247631 171447 202293 339.587964866769 399.992202178615 6074 2.099424e-06 0.099489401463 60.415778072036 1.2001465254887
6	8492301 8039 5013 201962 10.283898615364 399.32339539355 194 0.030393597156578 11.598229475519 394.69164088472 1656.5782616966
7	8500340 8468 5049 202239 10.400171273756 399.88111516526 204 0.0062159103803322 13.203914404057 392.20744296561 1469.2845179592
8	8508808 8047 5075 198897 10.455613179525 393.141280503148 194 0.011206051869106 12.555284148115 389.58607409402 1637.5552655599
9	8516855 8217 5086 202066 10.493607167391 399.551575403142 198 0.00078795723934736 17.610107859699 390.83578665667 1666.2928732357
10	8525072 9281 5090 202039 10.511977260001 399.52294505148 218 0.0041620561909744 9.3271616535429 390.84680859145 1419.9122011773
11	8534353 8167 5121 201449 10.623358333783 398.210293084379 192 0.010785891205968 18.224798577107 392.70932910197 1749.6966155439
12	8542520 8616 5217 198386 10.840762657706 392.105592358488 203 0.014739343558288 14.425070788698 393.06339349734 1660.3349938709
13	8551136 8482 5304 202016 10.989738270571 399.465965039282 200 0.0099301211944238 8.3876515896432 390.26405417201 1392.5514886884
14	8559618 8825 5357 200953 11.114515465042 397.287236078381 208 0.0044593065841597 8.8059748958091 392.52383222934 1448.9469382803
15	8568443 8061 5421 201634 11.271908178722 398.629467027851 190 0.0062587098646916 10.958520433316 389.22696252535 1494.8874591923
16	8576504 8855 5458 202255 11.360508856506 399.917930253601 209 0.00039675575961255 14.686406863566 392.54125535482 1532.6224481634
17	8585359 9547 5774 201709 12.101510875749 398.75471188518 224 0.0055487319523845 13.501602856166 389.2502788775 1454.511033981
18	8594906 8190 6373 201884 13.24718359085 399.115261635077 193 0.018172187394942 15.0499581236 388.33559231872 1501.1688120287
19	8603096 7698 6522 201852 13.544254915246 399.040028274745 181 0.0055466413959604 14.922104653827 386.47377779337 1911.1081939905
20	8610794 8269 7185 201444 14.738640226033 398.200402424338 195 0.0085965410128772 8.6809142871347 385.43721541246 1503.081359635
21	8619063 9579 7435 201172 15.199898719967 397.703599047959 225 0.010605750924919 8.141193322109 389.65842480154 1310.0112836608

