file 6573826 1614185343                                         
version 2
run Nonmonitoring-exponential-272-20210224-17:49:03-26819
attr configname Nonmonitoring-exponential
attr datetime 20210224-17:49:03
attr experiment Nonmonitoring-exponential
attr inifile aerocom.ini
attr iterationvars $0=13
attr iterationvarsf 13-
attr measurement $0=13
attr network Aerocom
attr processid 26819
attr repetition 72
attr replication #72
attr resultdir results
attr runnumber 272
attr seedset 72
param **.t 2s
param **.k 13ms
param **.X 0.05s
param **.m 1s
param **.tDistribution "\"exponential\""
param **.operationMode 1
param **.s "70 byte"
param **.dimPoolMax 10000
param **.dimPoolMin 8000
param **.nDL 16
param **.nA 1
param **.DLMaxCapacity 0
param **.trasmitting false

vector 0 Aerocom.aircraft[0].packetGenerator arrivalTime:vector ETV
attr "" ""
attr source computeArrivalTime
vector 1 Aerocom.aircraft[0].linkSelector waitingTime:vector ETV
attr "" ""
attr source computeWaitingTime
vector 2 Aerocom.aircraft[0].linkSelector queueLength:vector ETV
attr "" ""
attr source computeQueueLength
vector 3 Aerocom.aircraft[0].dataLink[3] actualCapacity:vector ETV
attr "" ""
attr source computeActualCapacity
vector 4 Aerocom.aircraft[0].linkSelector serviceTime:vector ETV
attr "" ""
attr source computeServiceTime
vector 5 Aerocom.aircraft[0].linkSelector responseTime:vector ETV
attr "" ""
attr source computeResponseTime
vector 6 Aerocom.aircraft[0].dataLink[2] tDistribution:vector ETV
attr "" ""
attr source computeTDistribution
vector 7 Aerocom.aircraft[0].dataLink[10] tDistribution:vector ETV
attr "" ""
attr source computeTDistribution
vector 8 Aerocom.aircraft[0].dataLink[9] tDistribution:vector ETV
attr "" ""
attr source computeTDistribution
vector 9 Aerocom.aircraft[0].dataLink[12] tDistribution:vector ETV
attr "" ""
attr source computeTDistribution
vector 10 Aerocom.aircraft[0].dataLink[15] tDistribution:vector ETV
attr "" ""
attr source computeTDistribution
vector 11 Aerocom.aircraft[0].dataLink[11] tDistribution:vector ETV
attr "" ""
attr source computeTDistribution
vector 12 Aerocom.aircraft[0].dataLink[5] tDistribution:vector ETV
attr "" ""
attr source computeTDistribution
vector 13 Aerocom.aircraft[0].dataLink[4] tDistribution:vector ETV
attr "" ""
attr source computeTDistribution
vector 14 Aerocom.aircraft[0].dataLink[3] tDistribution:vector ETV
attr "" ""
attr source computeTDistribution
vector 15 Aerocom.aircraft[0].dataLink[7] tDistribution:vector ETV
attr "" ""
attr source computeTDistribution
vector 16 Aerocom.aircraft[0].dataLink[13] tDistribution:vector ETV
attr "" ""
attr source computeTDistribution
vector 17 Aerocom.aircraft[0].dataLink[1] tDistribution:vector ETV
attr "" ""
attr source computeTDistribution
vector 18 Aerocom.aircraft[0].dataLink[6] tDistribution:vector ETV
attr "" ""
attr source computeTDistribution
vector 19 Aerocom.aircraft[0].dataLink[8] tDistribution:vector ETV
attr "" ""
attr source computeTDistribution
vector 20 Aerocom.aircraft[0].dataLink[14] tDistribution:vector ETV
attr "" ""
attr source computeTDistribution
vector 21 Aerocom.aircraft[0].dataLink[0] tDistribution:vector ETV
attr "" ""
attr source computeTDistribution
0	3133 1192302 3831 156499 10.024997573084 399.99697941352 29906 1.95502e-07 0.169970052555 389.97635364196 10.209280611584
1	1195435 1038386 3832 156498 10.024997573084 399.994349855783 29905 0 0.087436322237 178.67134817256 3.1982683089207
2	2233821 807015 3832 156498 10.024997573084 399.994349855783 29905 0 10 13806 33180
3	3040836 896728 3832 156498 10.024997573084 399.994349855783 29905 8000 9989 269005034 2427837333116
4	3937564 1311541 3832 156498 10.024997573084 399.994349855783 29905 0.0070077084793273 0.00875 233.49733683935 1.8293030487129
5	5249105 1192400 3833 156494 10.032335868503 399.972280139406 29904 0.007007708479 0.095678403951 412.16052935529 7.8481617780986
6	6441505 8111 3926 156493 10.214543653024 399.967147080249 197 0.007212399407029 8.7064546024203 393.38296915441 1298.542679364
7	6449616 8554 3993 156019 10.371519359448 398.694648597691 207 0.015312420483765 11.101081324143 390.29766772221 1468.2259421996
8	6458170 7634 4031 155551 10.45181969143 397.454844169815 185 0.0031212753008953 8.4726524362941 392.40630951496 1496.7160746064
9	6465804 8315 4089 155434 10.599670736566 397.118689717998 201 0.025469954306526 11.604357751378 389.56783188009 1546.7354969288
10	6474119 8016 4163 156368 10.73812045574 399.64254017934 190 0.016495491118007 14.095885641247 393.27679135305 1695.0058211443
11	6482135 8778 4177 155602 10.760676168041 397.662913526755 207 0.0021831164111163 10.751948949011 390.79916866825 1430.0955962496
12	6490913 8391 4315 156358 11.127471110794 399.603306624474 198 0.0051585431978651 10.993524107418 392.88188699923 1549.9308416487
13	6499304 8148 4341 156485 11.19093478548 399.954983654952 193 0.054271041509915 13.040260896365 389.88080838412 1608.8321451106
14	6507452 9107 4424 156345 11.473621939573 399.560154072893 215 0.00053658455780424 9.1107839380427 389.84636881908 1269.3521332636
15	6516559 9246 4560 155980 11.887173010379 398.590426922207 218 0.0038164335498453 9.9818469917162 391.91993610699 1283.2710264163
16	6525805 7816 4583 154465 11.932170900127 394.672906297817 185 7.7533175843083e-05 10.912763165229 388.16468601702 1546.5525080538
17	6533621 8908 4836 155172 12.516522093298 396.458452501244 210 0.0040491929176511 11.330345311278 391.63948354417 1431.4269254164
18	6542529 6948 4963 155471 12.859651942465 397.25417476883 165 0.00096506622425339 9.7432648657487 390.3214061772 1589.4819963147
19	6549477 8762 5033 156219 12.999982028018 399.115039012459 207 0.0072027095285813 9.3679445434325 388.46581939989 1337.5916234167
20	6558239 8643 6278 154579 16.209459397045 394.953774610027 204 0.0075512171541706 11.127243400255 385.05177930703 1564.521218858
21	6566882 6943 6472 154769 16.922717444539 395.356757388892 164 0.015584260403354 10.442771411105 384.91643292696 1662.0838836825

