version 2
run Nonmonitoring-exponential-556-20210224-17:49:32-27080
attr configname Nonmonitoring-exponential
attr datetime 20210224-17:49:32
attr experiment Nonmonitoring-exponential
attr inifile aerocom.ini
attr iterationvars $0=50
attr iterationvarsf 50-
attr measurement $0=50
attr network Aerocom
attr processid 27080
attr repetition 56
attr replication #56
attr resultdir results
attr runnumber 556
attr seedset 56
param **.t 2s
param **.k 50ms
param **.X 0.05s
param **.m 1s
param **.tDistribution "\"exponential\""
param **.operationMode 1
param **.s "70 byte"
param **.dimPoolMax 10000
param **.dimPoolMin 8000
param **.nDL 16
param **.nA 1
param **.DLMaxCapacity 0
param **.trasmitting false

vector 0 Aerocom.aircraft[0].packetGenerator arrivalTime:vector ETV
attr "" ""
attr source computeArrivalTime
vector 1 Aerocom.aircraft[0].linkSelector waitingTime:vector ETV
attr "" ""
attr source computeWaitingTime
vector 2 Aerocom.aircraft[0].linkSelector queueLength:vector ETV
attr "" ""
attr source computeQueueLength
vector 3 Aerocom.aircraft[0].dataLink[3] actualCapacity:vector ETV
attr "" ""
attr source computeActualCapacity
vector 4 Aerocom.aircraft[0].linkSelector serviceTime:vector ETV
attr "" ""
attr source computeServiceTime
vector 5 Aerocom.aircraft[0].linkSelector responseTime:vector ETV
attr "" ""
attr source computeResponseTime
vector 6 Aerocom.aircraft[0].dataLink[7] tDistribution:vector ETV
attr "" ""
attr source computeTDistribution
vector 7 Aerocom.aircraft[0].dataLink[3] tDistribution:vector ETV
attr "" ""
attr source computeTDistribution
vector 8 Aerocom.aircraft[0].dataLink[12] tDistribution:vector ETV
attr "" ""
attr source computeTDistribution
vector 9 Aerocom.aircraft[0].dataLink[9] tDistribution:vector ETV
attr "" ""
attr source computeTDistribution
vector 10 Aerocom.aircraft[0].dataLink[8] tDistribution:vector ETV
attr "" ""
attr source computeTDistribution
vector 11 Aerocom.aircraft[0].dataLink[2] tDistribution:vector ETV
attr "" ""
attr source computeTDistribution
vector 12 Aerocom.aircraft[0].dataLink[4] tDistribution:vector ETV
attr "" ""
attr source computeTDistribution
vector 13 Aerocom.aircraft[0].dataLink[6] tDistribution:vector ETV
attr "" ""
attr source computeTDistribution
vector 14 Aerocom.aircraft[0].dataLink[11] tDistribution:vector ETV
attr "" ""
attr source computeTDistribution
vector 15 Aerocom.aircraft[0].dataLink[13] tDistribution:vector ETV
attr "" ""
attr source computeTDistribution
vector 16 Aerocom.aircraft[0].dataLink[5] tDistribution:vector ETV
attr "" ""
attr source computeTDistribution
vector 17 Aerocom.aircraft[0].dataLink[15] tDistribution:vector ETV
attr "" ""
attr source computeTDistribution
vector 18 Aerocom.aircraft[0].dataLink[1] tDistribution:vector ETV
attr "" ""
attr source computeTDistribution
vector 19 Aerocom.aircraft[0].dataLink[10] tDistribution:vector ETV
attr "" ""
attr source computeTDistribution
vector 20 Aerocom.aircraft[0].dataLink[14] tDistribution:vector ETV
attr "" ""
attr source computeTDistribution
vector 21 Aerocom.aircraft[0].dataLink[0] tDistribution:vector ETV
attr "" ""
attr source computeTDistribution
0	1049	10.03747549823	0.015933020498
0	1054	10.053408518728	0.010306167396
0	1059	10.063714686124	0.042993943407
0	1065	10.106708629531	0.066327502406
0	1070	10.173036131937	0.037845782423
0	1075	10.21088191436	0.0136044289
0	1082	10.22448634326	0.026672758479
0	1087	10.251159101739	0.061456937573
0	1092	10.312616039312	0.020041590223
0	1097	10.332657629535	0.156773344868
0	1103	10.489430974403	0.01567016535
0	1108	10.505101139753	0.018275768181
0	1113	10.523376907934	0.004467077722
0	1116	10.527843985656	0.007712734965
0	1121	10.535556720621	0.136400369686
0	1133	10.671957090307	0.028388377476
0	1138	10.700345467783	0.057909025851
0	1143	10.758254493634	0.061680081133
0	1148	10.819934574767	0.015790542375
0	1154	10.835725117142	0.035416772642
0	1159	10.871141889784	0.144918399064
0	1167	11.016060288848	0.007059922556
0	1169	11.023120211404	0.031895189575
0	1177	11.055015400979	0.097960845282
0	1182	11.152976246261	0.12423836738
0	1188	11.277214613641	0.099698221421
0	1193	11.376912835062	0.104501733008
0	1199	11.48141456807	0.137263093009
0	1204	11.618677661079	0.033632856191
0	1209	11.65231051727	0.11491202111
0	1215	11.76722253838	0.062200187407
0	1220	11.829422725787	0.029823317793
0	1225	11.85924604358	0.04563897403
0	1230	11.90488501761	0.059589215494
0	1235	11.964474233104	0.105023392793
0	1240	12.069497625897	0.006687840024
0	1242	12.076185465921	0.004832346518
0	1247	12.081017812439	0.012889902809
0	1255	12.093907715248	0.020179345404
0	1260	12.114087060652	0.069683289708
0	1265	12.18377035036	0.190063381804
0	1272	12.373833732164	0.122843189325
0	1278	12.496676921489	0.047263047872
0	1284	12.543939969361	0.020864763536
0	1289	12.564804732897	0.040180887486
0	1295	12.604985620383	0.038076000707
0	1300	12.64306162109	0.034836485036
0	1305	12.677898106126	0.003602718803
0	1307	12.681500824929	0.20926661263
0	1315	12.890767437559	0.183079893294
0	1324	13.073847330853	0.038834762323
0	1329	13.112682093176	0.071075871956
0	1335	13.183757965132	0.018427415491
0	1340	13.202185380623	0.033157882819
0	1345	13.235343263442	0.028553814903
0	1350	13.263897078345	0.084888508823
0	1356	13.348785587168	0.007203890741
0	1358	13.355989477909	0.080837783012
0	1367	13.436827260921	0.026571057004
0	1372	13.463398317925	0.070377703419
0	1377	13.533776021344	0.012415329779
0	1382	13.546191351123	0.002805254111
0	1384	13.548996605234	0.007180583754
0	1389	13.556177188988	0.016469624301
0	1397	13.572646813289	0.031906834382
0	1402	13.604553647671	0.007481675698
0	1405	13.612035323369	0.021381569444
0	1413	13.633416892813	0.134838477995
0	1418	13.768255370808	0.055707169274
0	1424	13.823962540082	0.102772289675
0	1430	13.926734829757	0.118930248551
0	1435	14.045665078308	0.007094938674
0	1437	14.052760016982	0.05666183941
0	1445	14.109421856392	0.043684216411
0	1450	14.153106072803	0.072942481474
0	1455	14.226048554277	0.013151583957
0	1460	14.239200138234	0.007861951525
0	1465	14.247062089759	0.005524798116
0	1467	14.252586887875	0.033486631897
0	1475	14.286073519772	0.063421157669
0	1480	14.349494677441	0.037279768458
0	1485	14.386774445899	0.028266593011
0	1490	14.41504103891	0.043509022617
0	1496	14.458550061527	7.46783e-05
0	1498	14.458624739827	0.10093059671
0	1507	14.559555336537	0.010960649372
0	1512	14.570515985909	0.050380098348
0	1517	14.620896084257	0.212880143425
0	1524	14.833776227682	0.046459123013
0	1529	14.880235350695	0.039332678491
0	1534	14.919568029186	0.045098737314
0	1539	14.9646667665	0.007012618311
0	1541	14.971679384811	0.050764797762
0	1549	15.022444182573	0.021789060237
0	1555	15.04423324281	0.06532091955
0	1560	15.10955416236	0.036477396393
0	1565	15.146031558753	0.108677870671
0	1570	15.254709429424	0.065294727908
0	1576	15.320004157332	0.018390774537
0	1581	15.338394931869	0.014556231512
0	1587	15.352951163381	0.026540243734
0	1592	15.379491407115	0.044419583791
0	1597	15.423910990906	0.060815703209
0	1602	15.484726694115	0.05019800685
0	1607	15.534924700965	0.075051802812
0	1613	15.609976503777	0.057293293218
0	1618	15.667269796995	0.002700178864
0	1620	15.669969975859	0.040797903757
0	1628	15.710767879616	0.093333196165
0	1633	15.804101075781	0.009058409212
0	1638	15.813159484993	0.063407864841
0	1643	15.876567349834	0.079891141011
0	1650	15.956458490845	0.000178776397
0	1652	15.956637267242	0.026450198959
0	1660	15.983087466201	0.013595082919
0	1665	15.99668254912	0.011408564794
0	1670	16.008091113914	0.025107552337
0	1675	16.033198666251	0.029277449767
0	1681	16.062476116018	0.011659506719
0	1686	16.074135622737	0.269673219784
0	1691	16.343808842521	0.050629545467
0	1696	16.394438387988	0.049738101762
0	1701	16.44417648975	0.016251712057
0	1706	16.460428201807	0.012150758964
0	1711	16.472578960771	0.014985328543
0	1716	16.487564289314	0.150805881948
0	1721	16.638370171262	0.064367116686
0	1727	16.702737287948	0.044075709784
0	1732	16.746812997732	0.011154284522
0	1737	16.757967282254	0.026954656286
0	1743	16.78492193854	0.068391846029
0	1748	16.853313784569	0.009903386484
0	1753	16.863217171053	0.029133997616
0	1759	16.892351168669	0.065600947935
0	1766	16.957952116604	0.048260187192
0	1771	17.006212303796	0.090135725916
0	1777	17.096348029712	0.278197668807
0	1784	17.374545698519	0.016575057807
0	1789	17.391120756326	0.060561549518
0	1794	17.451682305844	0.028903103828
0	1800	17.480585409672	0.063255139049
0	1805	17.543840548721	0.012757409686
0	1810	17.556597958407	0.108677747781
0	1816	17.665275706188	0.042180921159
0	1821	17.707456627347	0.024024898696
0	1826	17.731481526043	0.158104396406
0	1832	17.889585922449	0.001140476241
0	1834	17.89072639869	0.051419843532
0	1842	17.942146242222	0.017138585286
0	1848	17.959284827508	0.021073691751
0	1853	17.980358519259	0.04973843932
0	1858	18.030096958579	0.018675201794
0	1863	18.048772160373	0.015772060386
0	1868	18.064544220759	0.229840531563
0	1877	18.294384752322	0.072797857939
0	1883	18.367182610261	0.019641663553
0	1888	18.386824273814	0.098763111409
0	1895	18.485587385223	6.776297e-06
0	1897	18.48559416152	0.096433180024
0	1908	18.582027341544	0.022196898581
0	1913	18.604224240125	0.000998182653
0	1915	18.605222422778	0.080473690906
0	1924	18.685696113684	0.084430111735
0	1931	18.770126225419	0.053859123411
0	1937	18.82398534883	0.012138539752
0	1942	18.836123888582	0.011751892338
0	1947	18.84787578092	0.002977919747
0	1949	18.850853700667	0.022284344347
0	1958	18.873138045014	0.035390993699
0	1964	18.908529038713	0.04494306467
0	1970	18.953472103383	0.028437444782
0	1975	18.981909548165	0.03139668519
0	1981	19.013306233355	0.013205839984
0	1986	19.026512073339	0.154238298252
0	1991	19.180750371591	0.016438124873
0	1996	19.197188496464	0.038895372806
0	2001	19.23608386927	0.019655632884
0	2006	19.255739502154	0.001313182269
0	2008	19.257052684423	0.026417073216
0	2016	19.283469757639	0.104226619762
0	2021	19.387696377401	0.034775779983
0	2026	19.422472157384	0.033809051687
0	2031	19.456281209071	0.008068820849
0	2033	19.46435002992	0.028488336664
0	2041	19.492838366584	0.006651576985
0	2043	19.499489943569	0.016635109299
0	2051	19.516125052868	0.03558075236
0	2056	19.551705805228	0.125028534764
0	2062	19.676734339992	0.010780462978
0	2067	19.68751480297	0.064242603093
0	2072	19.751757406063	0.07448337644
0	2079	19.826240782503	0.052252348525
0	2084	19.878493131028	0.020203615641
0	2089	19.898696746669	0.115409716942
0	2094	20.014106463611	0.000417448009
0	2096	20.01452391162	0.014475246085
0	2101	20.028999157705	0.150023332763
0	2111	20.179022490468	0.055342467614
0	2116	20.234364958082	0.012831928027
0	2123	20.247196886109	0.052247300859
0	2128	20.299444186968	0.061063947687
0	2133	20.360508134655	0.023663245705
0	2138	20.38417138036	0.033280747117
0	2143	20.417452127477	0.016542184143
0	2148	20.43399431162	0.04790352482
0	2153	20.48189783644	0.0100314988
0	2158	20.49192933524	0.015698308601
0	2163	20.507627643841	0.003016142165
0	2165	20.510643786006	0.00975638424
0	2170	20.520400170246	0.03974607475
0	2178	20.560146244996	0.048165497584
0	2183	20.60831174258	0.093135768467
0	2188	20.701447511047	0.044573076269
0	2193	20.746020587316	0.031013492905
0	2198	20.777034080221	0.018519589127
0	2203	20.795553669348	0.040120198701
0	2209	20.835673868049	0.154203027037
0	2214	20.989876895086	0.049274156195
0	2220	21.039151051281	0.039494043398
0	2225	21.078645094679	0.005616142194
0	2228	21.084261236873	0.002979289596
0	2230	21.087240526469	0.044806820841
0	2242	21.13204734731	0.104390239823
0	2248	21.236437587133	0.044938231942
0	2254	21.281375819075	0.060605065494
0	2259	21.341980884569	0.058461330552
0	2266	21.400442215121	0.014413875816
0	2271	21.414856090937	0.040570836237
0	2276	21.455426927174	0.038567460655
0	2281	21.493994387829	0.093105086028
0	2287	21.587099473857	0.032483390951
0	2292	21.619582864808	0.198537001415
0	2298	21.818119866223	0.006961507934
0	2300	21.825081374157	0.151237932252
0	2308	21.976319306409	0.087680224114
0	2313	22.063999530523	0.015188946913
0	2318	22.079188477436	0.028987357088
0	2323	22.108175834524	0.006948295999
0	2325	22.115124130523	0.009912778242
0	2330	22.125036908765	0.001039460158
0	2335	22.126076368923	0.009351546981
0	2340	22.135427915904	0.015081131273
0	2345	22.150509047177	0.027815444765
0	2354	22.178324491942	0.085705703731
0	2359	22.264030195673	0.011391522949
0	2365	22.275421718622	0.080649472598
0	2372	22.35607119122	0.003590204813
0	2374	22.359661396033	0.01719719222
0	2382	22.376858588253	0.046827203998
0	2387	22.423685792251	0.047331427023
0	2393	22.471017219274	0.025285103671
0	2398	22.496302322945	0.006774124546
0	2400	22.503076447491	0.158095427095
0	2410	22.661171874586	0.03457418433
0	2416	22.695746058916	0.089486994542
0	2423	22.785233053458	0.009018927096
0	2428	22.794251980554	0.017155861261
0	2433	22.811407841815	0.026936047312
0	2438	22.838343889127	0.011893763253
0	2444	22.85023765238	0.148139946977
0	2449	22.998377599357	0.001407651625
0	2451	22.999785250982	0.010712637247
0	2456	23.010497888229	0.037185938136
0	2464	23.047683826365	0.010823322473
0	2469	23.058507148838	0.116553396286
0	2474	23.175060545124	0.125989796006
0	2481	23.30105034113	0.154426143761
0	2488	23.455476484891	0.025535626199
0	2494	23.48101211109	0.020622332989
0	2499	23.501634444079	0.009179515489
0	2504	23.510813959568	0.004223121786
0	2506	23.515037081354	0.002724870539
0	2508	23.517761951893	0.007250481037
0	2513	23.52501243293	0.046359853337
0	2524	23.571372286267	0.00459837147
0	2526	23.575970657737	0.10108625827
0	2534	23.677056916007	0.05381630582
0	2540	23.730873221827	0.004662924209
0	2542	23.735536146036	0.002325759558
0	2544	23.737861905594	0.031268858397
0	2555	23.769130763991	0.082565276588
0	2560	23.851696040579	0.050339681526
0	2565	23.902035722105	0.058288016805
0	2570	23.96032373891	0.032749944105
0	2575	23.993073683015	0.130140952423
0	2580	24.123214635438	0.060108807195
0	2586	24.183323442633	0.004474173663
0	2588	24.187797616296	0.192258712575
0	2596	24.380056328871	0.0101777015
0	2601	24.390234030371	0.086553510041
0	2607	24.476787540412	0.022177290968
0	2612	24.49896483138	0.021213469983
0	2617	24.520178301363	0.036655256152
0	2622	24.556833557515	0.015100207049
0	2627	24.571933764564	0.016427597166
0	2632	24.58836136173	0.092054198416
0	2638	24.680415560146	0.000353260845
0	2640	24.680768820991	0.051806350247
0	2649	24.732575171238	0.101896489639
0	2654	24.834471660877	0.060538717536
0	2661	24.895010378413	0.015832868659
0	2666	24.910843247072	0.015660382248
0	2671	24.92650362932	0.070043499887
0	2677	24.996547129207	0.116457989501
0	2683	25.113005118708	0.080369030478
0	2688	25.193374149186	0.157959958191
0	2693	25.351334107377	0.030038396717
0	2698	25.381372504094	0.005540407688
0	2700	25.386912911782	0.115462722788
0	2710	25.50237563457	0.10448502172
0	2716	25.60686065629	0.116270427364
0	2721	25.723131083654	0.020214460407
0	2726	25.743345544061	0.000647863733
0	2728	25.743993407794	0.049207673808
0	2736	25.793201081602	0.025605798404
0	2741	25.818806880006	0.010721475991
0	2746	25.829528355997	0.063735375804
0	2753	25.893263731801	0.041828819485
0	2758	25.935092551286	0.050847970389
0	2763	25.985940521675	0.015175836671
0	2768	26.001116358346	0.014028947394
0	2773	26.01514530574	0.000687086869
0	2775	26.015832392609	0.031734068312
0	2783	26.047566460921	0.079963553384
0	2790	26.127530014305	0.020912590704
0	2795	26.148442605009	0.086281981414
0	2801	26.234724586423	0.003557584643
0	2803	26.238282171066	0.091490605526
0	2812	26.329772776592	0.02033359996
0	2817	26.350106376552	0.094404750288
0	2822	26.44451112684	0.037212514123
0	2827	26.481723640963	0.140491191725
0	2834	26.622214832688	0.021179810038
0	2839	26.643394642726	0.000959936083
0	2841	26.644354578809	0.009985103547
0	2846	26.654339682356	0.029246785747
0	2854	26.683586468103	0.033165599647
0	2859	26.71675206775	0.048462650675
0	2864	26.765214718425	0.05875048038
0	2869	26.823965198805	0.04211876276
0	2874	26.866083961565	0.104199668229
0	2881	26.970283629794	0.00084934064
0	2883	26.971132970434	0.033296132575
0	2891	27.004429103009	0.001591239026
0	2893	27.006020342035	0.05505229919
0	2901	27.061072641225	0.087939600934
0	2908	27.149012242159	0.00681415734
0	2910	27.155826399499	0.008994742617
0	2915	27.164821142116	0.015276360215
0	2923	27.180097502331	0.075311705592
0	2930	27.255409207923	0.021080548683
0	2935	27.276489756606	0.010944443676
0	2940	27.287434200282	0.143038883148
0	2947	27.43047308343	0.007314821099
0	2949	27.437787904529	0.09295957135
0	2957	27.530747475879	0.040482313889
0	2962	27.571229789768	0.008230624112
0	2964	27.57946041388	0.068753847059
0	2972	27.648214260939	0.031359885258
0	2977	27.679574146197	0.077146022624
0	2982	27.756720168821	0.024808866265
0	2987	27.781529035086	0.004762501968
0	2990	27.786291537054	0.056824851366
0	2998	27.84311638842	0.030675623032
0	3003	27.873792011452	0.150832051383
0	3009	28.024624062835	0.237587811387
0	3015	28.262211874222	0.08348730058
0	3020	28.345699174802	0.002522666654
0	3022	28.348221841456	0.162668716219
0	3032	28.510890557675	0.036534714934
0	3037	28.547425272609	0.086722817002
0	3042	28.634148089611	0.031961249589
0	3047	28.6661093392	0.121383989933
0	3054	28.787493329133	0.085733387846
0	3059	28.873226716979	0.068042244924
0	3064	28.941268961903	0.026474835007
0	3069	28.96774379691	0.043373281502
0	3074	29.011117078412	0.003341017301
0	3076	29.014458095713	0.017155055201
0	3084	29.031613150914	0.013983587833
0	3091	29.045596738747	0.088114820157
0	3097	29.133711558904	0.037588119074
0	3102	29.171299677978	0.137972801336
0	3109	29.309272479314	0.061707695179
0	3114	29.370980174493	0.076343896576
0	3119	29.447324071069	0.02346604718
0	3124	29.470790118249	0.013934517275
0	3129	29.484724635524	0.128033051273
0	3135	29.612757686797	0.130685779329
0	3140	29.743443466126	0.027946012763
0	3145	29.771389478889	0.025474456468
0	3150	29.796863935357	0.000779647828
0	3152	29.797643583185	0.01694924893
0	3161	29.814592832115	0.05407589611
0	3166	29.868668728225	0.000100739412
0	3168	29.868769467637	0.111531694227
0	3177	29.980301161864	0.036081772228
0	3185	30.016382934092	0.110298643059
0	3193	30.126681577151	0.009194410138
0	3199	30.135875987289	0.039559313426
0	3204	30.175435300715	0.115881727322
0	3210	30.291317028037	0.037400339371
0	3215	30.328717367408	0.020758216311
0	3220	30.349475583719	0.008168666758
0	3225	30.357644250477	0.011046521812
0	3230	30.368690772289	0.056368141386
0	3236	30.425058913675	0.039463046316
0	3241	30.464521959991	0.009804048876
0	3246	30.474326008867	0.075475896633
0	3252	30.5498019055	0.102062649215
0	3258	30.651864554715	0.091406494396
0	3263	30.743271049111	0.038982287641
0	3269	30.782253336752	0.030361725431
0	3274	30.812615062183	0.144522675334
0	3279	30.957137737517	0.170372997829
0	3287	31.127510735346	0.026341864255
0	3293	31.153852599601	0.011424124999
0	3298	31.1652767246	0.066793604243
0	3306	31.232070328843	0.095061915932
0	3311	31.327132244775	0.156188760207
0	3316	31.483321004982	0.00553749598
0	3318	31.488858500962	0.010114544493
0	3326	31.498973045455	0.096336675821
0	3333	31.595309721276	0.029056036731
0	3338	31.624365758007	0.007567138182
0	3343	31.631932896189	0.04509486897
0	3348	31.677027765159	0.007489312621
0	3353	31.68451707778	0.021750683246
0	3358	31.706267761026	0.052539997601
0	3363	31.758807758627	0.238049628063
0	3368	31.99685738669	0.041888822587
0	3376	32.038746209277	0.006060612799
0	3378	32.044806822076	0.006400628403
0	3383	32.051207450479	0.058514081053
0	3391	32.109721531532	0.087658786481
0	3396	32.197380318013	0.048763147107
0	3401	32.24614346512	0.163365764323
0	3409	32.409509229443	0.008050456379
0	3414	32.417559685822	0.038004232541
0	3420	32.455563918363	0.037354237627
0	3426	32.49291815599	0.018176330721
0	3431	32.511094486711	0.013682358849
0	3437	32.52477684556	0.249228291768
0	3443	32.774005137328	0.016427885793
0	3448	32.790433023121	0.028337050051
0	3453	32.818770073172	0.020631864684
0	3458	32.839401937856	0.036370960815
0	3463	32.875772898671	0.008070208884
0	3469	32.883843107555	0.036115110952
0	3474	32.919958218507	0.031874885087
0	3479	32.951833103594	0.009218591111
0	3484	32.961051694705	0.059059778873
0	3490	33.020111473578	0.129052164155
0	3495	33.149163637733	0.006232747216
0	3497	33.155396384949	0.004643363954
0	3502	33.160039748903	0.019352615817
0	3510	33.17939236472	0.042927229785
0	3515	33.222319594505	0.017305847096
0	3520	33.239625441601	0.001148046423
0	3522	33.240773488024	0.098717416318
0	3530	33.339490904342	0.030317536545
0	3535	33.369808440887	0.025305078435
0	3541	33.395113519322	0.002643516694
0	3543	33.397757036016	0.30866730214
0	3552	33.706424338156	0.068031601149
0	3558	33.774455939305	0.012697619341
0	3563	33.787153558646	0.141229251534
0	3570	33.92838281018	0.054482221259
0	3575	33.982865031439	0.032590347794
0	3580	34.015455379233	0.053022670611
0	3585	34.068478049844	0.110712365602
0	3591	34.179190415446	0.031124850029
0	3597	34.210315265475	0.067653596421
0	3602	34.277968861896	0.065877399857
0	3607	34.343846261753	0.023915650602
0	3612	34.367761912355	0.065368637577
0	3618	34.433130549932	0.040450128029
0	3624	34.473580677961	0.161392630568
0	3629	34.634973308529	0.053985082717
0	3634	34.688958391246	0.028595507684
0	3640	34.71755389893	0.010096823874
0	3646	34.727650722804	0.004070795651
0	3648	34.731721518455	0.000584035283
0	3650	34.732305553738	0.166023428426
0	3662	34.898328982164	0.08978699034
0	3667	34.988115972504	0.007360731944
0	3669	34.995476704448	0.01256925327
0	3677	35.008045957718	0.153670126343
0	3683	35.161716084061	0.031175211594
0	3688	35.192891295655	0.20124846367
0	3695	35.394139759325	0.210358224817
0	3702	35.604497984142	0.038542187915
0	3708	35.643040172057	0.032803509084
0	3713	35.675843681141	0.028356259684
0	3718	35.704199940825	0.053899729004
0	3723	35.758099669829	0.003350966168
0	3725	35.761450635997	0.024416636194
0	3733	35.785867272191	0.023702105132
0	3738	35.809569377323	0.070305043294
0	3743	35.879874420617	0.276622761066
0	3750	36.156497181683	0.108746341571
0	3755	36.265243523254	0.017735302117
0	3760	36.282978825371	0.021136057481
0	3765	36.304114882852	0.012852464029
0	3770	36.316967346881	0.027329782135
0	3776	36.344297129016	0.004294155308
0	3778	36.348591284324	0.060852233286
0	3787	36.40944351761	0.021361714419
0	3792	36.430805232029	0.063386482106
0	3797	36.494191714135	0.037396553814
0	3802	36.531588267949	0.026056610851
0	3807	36.5576448788	0.009356096719
0	3812	36.567000975519	0.018363959306
0	3818	36.585364934825	0.072940714023
0	3823	36.658305648848	0.107823325695
0	3829	36.766128974543	0.03992441832
0	3834	36.806053392863	0.066543901133
0	3840	36.872597293996	0.020360191759
0	3845	36.892957485755	0.02967009565
0	3850	36.922627581405	0.021004532656
0	3855	36.943632114061	0.019677434216
0	3860	36.963309548277	0.002257121631
0	3862	36.965566669908	0.059604936965
0	3871	37.025171606873	0.003334574533
0	3873	37.028506181406	0.047153817689
0	3882	37.075659999095	0.050079089988
0	3887	37.125739089083	0.006502109539
0	3889	37.132241198622	0.085515066343
0	3898	37.217756264965	0.209110209018
0	3906	37.426866473983	0.086656711688
0	3911	37.513523185671	0.172910582496
0	3918	37.686433768167	0.006643434098
0	3921	37.693077202265	0.017281549929
0	3929	37.710358752194	0.014804275795
0	3934	37.725163027989	0.073113127542
0	3939	37.798276155531	0.031057372214
0	3944	37.829333527745	0.002640324989
0	3946	37.831973852734	0.026994028762
0	3954	37.858967881496	0.068035746863
0	3959	37.927003628359	0.04988308251
0	3964	37.976886710869	0.034681628688
0	3969	38.011568339557	0.021529675839
0	3974	38.033098015396	0.065933317276
0	3979	38.099031332672	0.008640117399
0	3984	38.107671450071	0.113124299986
0	3990	38.220795750057	0.124286557057
0	3996	38.345082307114	0.029308326143
0	4001	38.374390633257	0.044819866372
0	4007	38.419210499629	0.051463812457
0	4013	38.470674312086	0.195634672192
0	4021	38.666308984278	0.027164820385
0	4027	38.693473804663	0.008363139296
0	4032	38.701836943959	0.046562410835
0	4037	38.748399354794	0.131574727801
0	4044	38.879974082595	0.092870005161
0	4049	38.972844087756	0.038975403931
0	4054	39.011819491687	0.013774544981
0	4060	39.025594036668	0.145665641921
0	4065	39.171259678589	0.005436585794
0	4067	39.176696264383	0.033980621067
0	4075	39.21067688545	0.172466451545
0	4082	39.383143336995	0.005794877518
0	4084	39.388938214513	0.006808729725
0	4089	39.395746944238	0.030247963426
0	4098	39.425994907664	0.045210473233
0	4104	39.471205380897	0.059667864149
0	4109	39.530873245046	0.03092758995
0	4115	39.561800834996	0.0359567711
0	4120	39.597757606096	0.120650427171
0	4126	39.718408033267	0.046148296165
0	4131	39.764556329432	0.079804892078
0	4136	39.84436122151	0.006877368071
0	4138	39.851238589581	0.060651707737
0	4147	39.911890297318	0.025419805102
0	4152	39.93731010242	0.156995125653
0	4157	40.094305228073	0.036196912312
0	4164	40.130502140385	0.003014523227
0	4166	40.133516663612	0.070447655556
0	4174	40.203964319168	0.014541239002
0	4179	40.21850555817	0.008270305512
0	4184	40.226775863682	0.0028243637
0	4186	40.229600227382	0.044011751522
0	4194	40.273611978904	0.081691717035
0	4200	40.355303695939	0.203444150898
0	4208	40.558747846837	0.109574580123
0	4213	40.66832242696	0.049692081702
0	4219	40.718014508662	0.009684971928
0	4224	40.72769948059	0.032366702612
0	4229	40.760066183202	0.042901326202
0	4235	40.802967509404	0.06738649806
0	4243	40.870354007464	0.052287096177
0	4248	40.922641103641	0.007338084049
0	4253	40.92997918769	0.043033526434
0	4258	40.973012714124	0.136855142436
0	4264	41.10986785656	0.153564902272
0	4270	41.263432758832	0.05200061587
0	4275	41.315433374702	0.00748889334
0	4280	41.322922268042	0.03000904525
0	4285	41.352931313292	0.019154685334
0	4290	41.372085998626	0.047919599464
0	4295	41.42000559809	0.005768344788
0	4297	41.425773942878	0.0271083689
0	4305	41.452882311778	0.016607138492
0	4310	41.46948945027	0.004130137903
0	4312	41.473619588173	0.085082912231
0	4321	41.558702500404	0.005258403578
0	4323	41.563960903982	0.025355185954
0	4331	41.589316089936	0.04354758484
0	4336	41.632863674776	0.062125739341
0	4342	41.694989414117	0.036538792995
0	4347	41.731528207112	0.000197898154
0	4349	41.731726105266	0.067271036666
0	4359	41.798997141932	0.068374891651
0	4366	41.867372033583	0.082303279728
0	4372	41.949675313311	0.022395283718
0	4378	41.972070597029	0.03201433549
0	4383	42.004084932519	0.018626197961
0	4388	42.02271113048	0.033251840222
0	4393	42.055962970702	0.004187362833
0	4395	42.060150333535	0.026058825534
0	4403	42.086209159069	0.046527255927
0	4409	42.132736414996	0.000683149166
0	4411	42.133419564162	0.083561556246
0	4419	42.216981120408	0.030091396165
0	4425	42.247072516573	0.105658221025
0	4432	42.352730737598	0.04234489571
0	4437	42.395075633308	0.033861618558
0	4442	42.428937251866	0.113315114262
0	4447	42.542252366128	0.036122748159
0	4452	42.578375114287	0.098343852071
0	4458	42.676718966358	0.009408468405
0	4463	42.686127434763	0.020088605675
0	4468	42.706216040438	0.003642607658
0	4470	42.709858648096	0.029412304333
0	4479	42.739270952429	0.097848400512
0	4486	42.837119352941	0.017592526375
0	4491	42.854711879316	0.032645086255
0	4496	42.887356965571	0.034951415061
0	4501	42.922308380632	0.054309374757
0	4506	42.976617755389	0.00020703586
0	4508	42.976824791249	0.025381255582
0	4516	43.002206046831	0.077288471288
0	4522	43.079494518119	0.025079591814
0	4527	43.104574109933	0.026655764693
0	4533	43.131229874626	0.045018064794
0	4538	43.17624793942	0.070348205208
0	4545	43.246596144628	0.026592425856
0	4550	43.273188570484	0.08794827893
0	4556	43.361136849414	0.09855218437
0	4564	43.459689033784	0.050103158322
0	4569	43.509792192106	0.115590815708
0	4574	43.625383007814	0.041824005043
0	4580	43.667207012857	0.072501415046
0	4585	43.739708427903	0.077887505458
0	4593	43.817595933361	0.03879827063
0	4598	43.856394203991	0.098521899704
0	4605	43.954916103695	0.029402393353
0	4610	43.984318497048	0.085700323883
0	4616	44.070018820931	0.034220798785
0	4621	44.104239619716	0.018474594598
0	4626	44.122714214314	0.190667335644
0	4632	44.313381549958	0.041639023372
0	4637	44.35502057333	0.067222425917
0	4642	44.422242999247	0.0449332018
0	4647	44.467176201047	0.014131842918
0	4652	44.481308043965	0.026997362148
0	4657	44.508305406113	0.06056616506
0	4663	44.568871571173	0.012462147363
0	4668	44.581333718536	0.039418709515
0	4673	44.620752428051	0.035396558004
0	4679	44.656148986055	0.082247397294
0	4685	44.738396383349	0.023440722621
0	4690	44.76183710597	0.033768412762
0	4695	44.795605518732	0.037905948963
0	4701	44.833511467695	0.031046567742
0	4706	44.864558035437	0.047415062848
0	4712	44.911973098285	0.085255831145
0	4717	44.99722892943	0.081181310262
0	4723	45.078410239692	0.109875015692
0	4728	45.188285255384	0.056022914309
0	4734	45.244308169693	0.094233291024
0	4739	45.338541460717	0.052867393988
0	4744	45.391408854705	0.049955541371
0	4749	45.441364396076	0.108269453961
0	4754	45.549633850037	0.084862736485
0	4761	45.634496586522	0.018381471341
0	4767	45.652878057863	0.021511547238
0	4772	45.674389605101	0.03636153399
0	4778	45.710751139091	0.043580051419
0	4783	45.75433119051	0.081090809753
0	4788	45.835422000263	0.089033224517
0	4793	45.92445522478	0.196438224066
0	4799	46.120893448846	0.061153408039
0	4804	46.182046856885	0.188984919177
0	4809	46.371031776062	0.135595011717
0	4818	46.506626787779	0.053877788011
0	4823	46.56050457579	0.012629219956
0	4828	46.573133795746	0.042598992138
0	4833	46.615732787884	0.004171652018
0	4835	46.619904439902	0.008576327576
0	4840	46.628480767478	0.057740484762
0	4849	46.68622125224	0.013674826923
0	4854	46.699896079163	0.003280917592
0	4856	46.703176996755	0.01847241724
0	4864	46.721649413995	0.066662806013
0	4870	46.788312220008	0.020670647083
0	4875	46.808982867091	0.060722473823
0	4880	46.869705340914	0.049136290281
0	4885	46.918841631195	0.151690234722
0	4893	47.070531865917	0.010010975296
0	4898	47.080542841213	0.085904729566
0	4904	47.166447570779	0.117456269284
0	4909	47.283903840063	0.064761201726
0	4915	47.348665041789	0.059414085411
0	4920	47.4080791272	0.005091063949
0	4922	47.413170191149	0.038496102034
0	4930	47.451666293183	0.043699120438
0	4935	47.495365413621	0.143344983382
0	4945	47.638710397003	0.009526688261
0	4950	47.648237085264	0.010381943423
0	4955	47.658619028687	0.075624409174
0	4960	47.734243437861	0.009263852325
0	4965	47.743507290186	0.002202751626
0	4967	47.745710041812	0.078096021652
0	4975	47.823806063464	0.018219905265
0	4980	47.842025968729	0.000601265998
0	4982	47.842627234727	0.002196501888
0	4984	47.844823736615	0.023517159226
0	4995	47.868340895841	0.026785575343
0	5000	47.895126471184	0.077594212376
0	5006	47.97272068356	0.080946471644
0	5011	48.053667155204	0.002213084007
0	5013	48.055880239211	0.150546381813
0	5023	48.206426621024	0.031144730326
0	5028	48.23757135135	0.049306461734
0	5033	48.286877813084	0.058617412178
0	5038	48.345495225262	0.02406815037
0	5043	48.369563375632	0.019168662901
0	5048	48.388732038533	0.012643726717
0	5053	48.40137576525	0.056688317898
0	5058	48.458064083148	0.038860556554
0	5063	48.496924639702	0.048302450722
0	5068	48.545227090424	0.002311508856
0	5070	48.54753859928	0.061089315836
0	5078	48.608627915116	0.023404608414
0	5083	48.63203252353	0.045801623914
0	5088	48.677834147444	0.190834762624
0	5093	48.868668910068	0.039934787246
0	5098	48.908603697314	0.001867798968
0	5100	48.910471496282	0.094753392709
0	5109	49.005224888991	0.045949525946
0	5114	49.051174414937	0.013438571548
0	5119	49.064612986485	0.115510003164
0	5125	49.180122989649	0.105723703777
0	5130	49.285846693426	0.025448619571
0	5135	49.311295312997	0.042605386022
0	5140	49.353900699019	0.161786939225
0	5147	49.515687638244	0.006451752988
0	5149	49.522139391232	0.016063681257
0	5157	49.538203072489	0.062923970951
0	5162	49.60112704344	0.018290020288
0	5167	49.619417063728	0.119565445707
0	5172	49.738982509435	0.0492817649
0	5178	49.788264274335	0.043934827794
0	5183	49.832199102129	0.007856618011
0	5185	49.84005572014	0.039236897818
0	5194	49.879292617958	0.066029417593
0	5200	49.945322035551	0.068412211881
0	5205	50.013734247432	0.012570717115
0	5210	50.026304964547	0.06929920705
0	5215	50.095604171597	0.11771473559
0	5222	50.213318907187	0.256465452179
0	5228	50.469784359366	0.071251944076
0	5233	50.541036303442	0.012037965473
0	5238	50.553074268915	0.136728255158
0	5244	50.689802524073	0.102573521276
0	5250	50.792376045349	0.004677267672
0	5252	50.797053313021	0.030263498415
0	5260	50.827316811436	0.094786011504
0	5267	50.92210282294	0.029200829166
0	5272	50.951303652106	0.033985499662
0	5277	50.985289151768	0.002418816268
0	5279	50.987707968036	0.010075072697
0	5285	50.997783040733	0.056717895124
0	5293	51.054500935857	0.028754622647
0	5298	51.083255558504	0.048827042581
0	5303	51.132082601085	0.01821549062
0	5309	51.150298091705	0.015297647183
0	5314	51.165595738888	0.027073513368
0	5319	51.192669252256	0.056968826514
0	5325	51.24963807877	0.002926689346
0	5327	51.252564768116	0.034967016979
0	5335	51.287531785095	0.034684797544
0	5341	51.322216582639	0.049867055287
0	5349	51.372083637926	0.036819903566
0	5356	51.408903541492	0.016397239189
0	5361	51.425300780681	0.003036811103
0	5363	51.428337591784	0.064892706305
0	5371	51.493230298089	0.018740140549
0	5376	51.511970438638	0.013403294516
0	5381	51.525373733154	0.053097883513
0	5386	51.578471616667	0.026459542059
0	5391	51.604931158726	0.103759514845
0	5396	51.708690673571	0.00952127538
0	5401	51.718211948951	0.014594407959
0	5406	51.73280635691	0.043996555751
0	5412	51.776802912661	0.088255011152
0	5418	51.865057923813	0.081242778364
0	5424	51.946300702177	0.012012484779
0	5430	51.958313186956	0.013233749407
0	5435	51.971546936363	0.065058265699
0	5441	52.036605202062	0.161808454758
0	5446	52.19841365682	0.111365158575
0	5453	52.309778815395	0.035010607903
0	5458	52.344789423298	0.084587013257
0	5465	52.429376436555	0.014813824445
0	5470	52.444190261	0.020820439013
0	5476	52.465010700013	0.011477920312
0	5481	52.476488620325	0.010266678855
0	5486	52.48675529918	0.157613049979
0	5491	52.644368349159	0.049967125004
0	5496	52.694335474163	0.035135646621
0	5501	52.729471120784	0.026566289161
0	5506	52.756037409945	0.067059094048
0	5511	52.823096503993	0.06617260818
0	5516	52.889269112173	0.06172123947
0	5522	52.950990351643	0.028879310738
0	5527	52.979869662381	0.034184401809
0	5532	53.01405406419	0.136820465198
0	5537	53.150874529388	0.024323295402
0	5542	53.17519782479	0.001657566233
0	5544	53.176855391023	0.036220598703
0	5552	53.213075989726	0.100948908697
0	5559	53.314024898423	0.00997666693
0	5564	53.324001565353	0.036819274736
0	5569	53.360820840089	0.031422469848
0	5574	53.392243309937	0.026094922475
0	5579	53.418338232412	0.035652012153
0	5584	53.453990244565	0.004442076718
0	5586	53.458432321283	0.029464043653
0	5595	53.487896364936	0.018358361714
0	5601	53.50625472665	0.005926675945
0	5603	53.512181402595	0.071535838804
0	5611	53.583717241399	0.027992379236
0	5617	53.611709620635	0.006474080246
0	5619	53.618183700881	0.0169283526
0	5627	53.635112053481	0.007054951069
0	5630	53.64216700455	0.03604861741
0	5638	53.67821562196	0.270111308401
0	5644	53.948326930361	0.069346512479
0	5650	54.01767344284	0.089541496019
0	5655	54.107214938859	0.119254943698
0	5661	54.226469882557	0.103116966683
0	5666	54.32958684924	0.068584054153
0	5672	54.398170903393	0.106293262743
0	5678	54.504464166136	0.088306212535
0	5683	54.592770378671	0.051113553219
0	5689	54.64388393189	0.079784832273
0	5694	54.723668764163	0.032956790481
0	5699	54.756625554644	0.002052515335
0	5701	54.758678069979	0.008395263546
0	5706	54.767073333525	0.067519649051
0	5715	54.834592982576	0.005031807226
0	5717	54.839624789802	0.005284919781
0	5722	54.844909709583	0.025837432212
0	5730	54.870747141795	0.024157740727
0	5736	54.894904882522	0.089591756264
0	5742	54.984496638786	0.005301572193
0	5744	54.989798210979	0.026801580804
0	5752	55.016599791783	0.09453692975
0	5758	55.111136721533	0.055966218348
0	5763	55.167102939881	0.03863563683
0	5768	55.205738576711	0.013550450441
0	5773	55.219289027152	0.013387111688
0	5779	55.23267613884	0.039749406031
0	5784	55.272425544871	0.011818814059
0	5789	55.28424435893	0.1305746504
0	5795	55.41481900933	0.078919967251
0	5801	55.493738976581	0.066015511992
0	5806	55.559754488573	0.006141572815
0	5808	55.565896061388	0.026582994816
0	5816	55.592479056204	0.017155829153
0	5821	55.609634885357	0.055864874022
0	5826	55.665499759379	0.012175932166
0	5831	55.677675691545	0.019451472
0	5836	55.697127163545	0.004589761827
0	5838	55.701716925372	0.001817853558
0	5840	55.70353477893	0.157633476426
0	5851	55.861168255356	0.058198268089
0	5856	55.919366523445	0.085852427948
0	5861	56.005218951393	0.10478797088
0	5868	56.110006922273	0.101759645566
0	5874	56.211766567839	0.024956113781
0	5879	56.23672268162	0.210683278098
0	5884	56.447405959718	0.023430406626
0	5890	56.470836366344	0.009470121871
0	5895	56.480306488215	0.041839955252
0	5901	56.522146443467	0.069927933406
0	5907	56.592074376873	0.034408252784
0	5912	56.626482629657	0.140055613527
0	5918	56.766538243184	0.024101571672
0	5923	56.790639814856	0.033851788658
0	5928	56.824491603514	0.038022056048
0	5933	56.862513659562	0.030635452595
0	5939	56.893149112157	0.021115436813
0	5944	56.91426454897	0.127945096791
0	5950	57.042209645761	0.01663588372
0	5955	57.058845529481	0.016880718593
0	5960	57.075726248074	0.016118178966
0	5965	57.09184442704	0.012389749614
0	5970	57.104234176654	0.011825321239
0	5976	57.116059497893	0.051893938152
0	5982	57.167953436045	0.012088060428
0	5987	57.180041496473	0.008158139779
0	5989	57.188199636252	0.017401470871
0	5998	57.205601107123	0.02099032032
0	6003	57.226591427443	0.18586115891
0	6009	57.412452586353	0.367546294119
0	6018	57.779998880472	0.034651058935
0	6023	57.814649939407	0.008586928341
0	6028	57.823236867748	0.133350204775
0	6034	57.956587072523	0.17625851313
0	6039	58.132845585653	0.030694017128
0	6044	58.163539602781	0.018440657977
0	6049	58.181980260758	0.014204523538
0	6054	58.196184784296	0.031940148636
0	6059	58.228124932932	0.065154715004
0	6064	58.293279647936	0.051186169775
0	6069	58.344465817711	0.001973639795
0	6071	58.346439457506	0.026709144138
0	6079	58.373148601644	0.133338972949
0	6087	58.506487574593	0.031960692379
0	6092	58.538448266972	0.018725989066
0	6098	58.557174256038	0.074559969063
0	6104	58.631734225101	0.042513116468
0	6109	58.674247341569	0.023033175052
0	6114	58.697280516621	0.002640231298
0	6116	58.699920747919	0.078719134151
0	6125	58.77863988207	0.001177645226
0	6127	58.779817527296	0.039617940288
0	6136	58.819435467584	0.047379026079
0	6141	58.866814493663	0.018660141894
0	6146	58.885474635557	0.005015113696
0	6148	58.890489749253	0.203443574152
0	6159	59.093933323405	0.152999378683
0	6165	59.246932702088	0.011846687074
0	6170	59.258779389162	0.167658488241
0	6176	59.426437877403	0.173714046521
0	6184	59.600151923924	0.156375283152
0	6191	59.756527207076	0.06064176529
0	6196	59.817168972366	0.023533552869
0	6201	59.840702525235	0.141714195997
0	6207	59.982416721232	0.058700769798
0	6212	60.04111749103	0.009944234003
0	6217	60.051061725033	0.006359946754
0	6219	60.057421671787	0.045463552759
0	6227	60.102885224546	0.004677560445
0	6229	60.107562784991	0.033016881474
0	6237	60.140579666465	0.024377475762
0	6242	60.164957142227	0.158943477352
0	6249	60.323900619579	0.009615835823
0	6254	60.333516455402	0.047497290017
0	6259	60.381013745419	0.12490278783
0	6265	60.505916533249	0.004020202534
0	6267	60.509936735783	0.048883130265
0	6275	60.558819866048	0.099874076144
0	6282	60.658693942192	0.043284218675
0	6287	60.701978160867	0.003213748139
0	6289	60.705191909006	0.009665972245
0	6294	60.714857881251	0.092678654603
0	6304	60.807536535854	0.02425058052
0	6309	60.831787116374	0.045872196296
0	6314	60.87765931267	0.050492858084
0	6321	60.928152170754	0.100872670945
0	6327	61.029024841699	0.101186825731
0	6332	61.13021166743	0.008402014911
0	6337	61.138613682341	0.027579585903
0	6343	61.166193268244	0.036358948227
0	6349	61.202552216471	0.088061675064
0	6354	61.290613891535	0.052157325843
0	6359	61.342771217378	0.020146565033
0	6364	61.362917782411	0.03224560995
0	6369	61.395163392361	0.02329133853
0	6374	61.418454730891	0.066347249703
0	6379	61.484801980594	0.038402942862
0	6384	61.523204923456	0.000121727573
0	6386	61.523326651029	0.022421024933
0	6395	61.545747675962	0.005538578626
0	6397	61.551286254588	0.129555567511
0	6405	61.680841822099	0.036854271683
0	6410	61.717696093782	0.111108879997
0	6416	61.828804973779	0.014013426457
0	6422	61.842818400236	0.085108730705
0	6427	61.927927130941	0.006398143982
0	6429	61.934325274923	0.006681016083
0	6434	61.941006291006	0.025933675359
0	6442	61.966939966365	0.054970285032
0	6447	62.021910251397	0.016855608902
0	6453	62.038765860299	0.129826297748
0	6460	62.168592158047	0.141644858802
0	6468	62.310237016849	0.021237551039
0	6473	62.331474567888	0.007309557982
0	6475	62.33878412587	0.043934820394
0	6484	62.382718946264	0.067429441332
0	6489	62.450148387596	0.053540969131
0	6494	62.503689356727	0.03830647925
0	6500	62.541995835977	0.004750744622
0	6502	62.546746580599	0.052665394383
0	6510	62.599411974982	0.08509390812
0	6515	62.684505883102	0.092882296009
0	6521	62.777388179111	0.005381011122
0	6523	62.782769190233	0.00589976958
0	6528	62.788668959813	0.012132724201
0	6533	62.800801684014	0.04906678949
0	6542	62.849868473504	0.034208289155
0	6547	62.884076762659	0.002671890005
0	6549	62.886748652664	0.002522026165
0	6551	62.889270678829	0.036671962229
0	6562	62.925942641058	0.204765285977
0	6567	63.130707927035	0.006912635673
0	6569	63.137620562708	0.026508648281
0	6577	63.164129210989	0.111329467848
0	6583	63.275458678837	0.006644462565
0	6585	63.282103141402	0.064024455047
0	6595	63.346127596449	0.003295342438
0	6597	63.349422938887	0.034929779411
0	6605	63.384352718298	0.078547334743
0	6610	63.462900053041	0.005411286983
0	6612	63.468311340024	0.040672906186
0	6620	63.50898424621	0.057747867683
0	6625	63.566732113893	0.039226957839
0	6630	63.605959071732	0.120733984007
0	6636	63.726693055739	0.027707149408
0	6641	63.754400205147	0.026699222548
0	6646	63.781099427695	0.161625511199
0	6652	63.942724938894	0.068330097525
0	6658	64.011055036419	0.021828669599
0	6664	64.032883706018	0.02733992839
0	6669	64.060223634408	0.064126383412
0	6676	64.12435001782	0.056324625514
0	6682	64.180674643334	0.107246215812
0	6688	64.287920859146	0.02331826506
0	6693	64.311239124206	0.080820855324
0	6698	64.39205997953	0.106738392815
0	6703	64.498798372345	0.072160751982
0	6708	64.570959124327	0.07174927883
0	6715	64.642708403157	0.052652609302
0	6722	64.695361012459	0.040563431256
0	6727	64.735924443715	0.048747544822
0	6732	64.784671988537	0.058676924449
0	6738	64.843348912986	0.051735639135
0	6743	64.895084552121	0.012516257877
0	6748	64.907600809998	0.00506051813
0	6750	64.912661328128	0.00957245511
0	6755	64.922233783238	0.004004342464
0	6760	64.926238125702	0.045081784913
0	6768	64.971319910615	0.028466051634
0	6773	64.999785962249	0.103557792469
0	6779	65.103343754718	0.032564924989
0	6784	65.135908679707	0.095564863286
0	6789	65.231473542993	0.004580868462
0	6791	65.236054411455	0.012191905985
0	6800	65.24824631744	0.007455655499
0	6802	65.255701972939	0.014753705037
0	6810	65.270455677976	0.010362383338
0	6815	65.280818061314	0.100570250898
0	6821	65.381388312212	0.031671058443
0	6826	65.413059370655	0.057533408998
0	6832	65.470592779653	0.037244647813
0	6837	65.507837427466	0.023018133456
0	6842	65.530855560922	0.004444262966
0	6844	65.535299823888	0.005369352508
0	6849	65.540669176396	0.069553742677
0	6858	65.610222919073	0.019644884806
0	6863	65.629867803879	0.037749462425
0	6868	65.667617266304	0.026796532681
0	6873	65.694413798985	0.090487570881
0	6879	65.784901369866	0.011110645608
0	6884	65.796012015474	0.016600008485
0	6889	65.812612023959	0.010024428758
0	6894	65.822636452717	0.014046365912
0	6899	65.836682818629	0.055770012971
0	6905	65.8924528316	0.04000108595
0	6910	65.93245391755	0.072365367561
0	6917	66.004819285111	0.049608114104
0	6923	66.054427399215	0.035419178528
0	6930	66.089846577743	0.04102832505
0	6935	66.130874902793	0.250488957284
0	6944	66.381363860077	0.075490288249
0	6950	66.456854148326	0.00507999656
0	6952	66.461934144886	0.046462064229
0	6961	66.508396209115	0.139759557325
0	6967	66.64815576644	0.057697627141
0	6972	66.705853393581	0.10725462593
0	6979	66.813108019511	0.024297037869
0	6985	66.83740505738	0.031130118061
0	6990	66.868535175441	0.008953928143
0	6995	66.877489103584	0.068684893607
0	7001	66.946173997191	0.001785481899
0	7003	66.94795947909	0.016721135233
0	7012	66.964680614323	0.073625168759
0	7017	67.038305783082	0.025201093435
0	7022	67.063506876517	0.043680099701
0	7027	67.107186976218	0.02377630057
0	7032	67.130963276788	0.153470419872
0	7037	67.28443369666	0.002981447878
0	7039	67.287415144538	0.015528891025
0	7047	67.302944035563	0.038374039603
0	7052	67.341318075166	0.159725158677
0	7057	67.501043233843	0.04252646007
0	7063	67.543569693913	0.019666043176
0	7068	67.563235737089	0.019650535693
0	7073	67.582886272782	0.010560433006
0	7078	67.593446705788	0.011283270371
0	7083	67.604729976159	0.02308518966
0	7089	67.627815165819	0.154248328273
0	7095	67.782063494092	0.002352382633
0	7097	67.784415876725	0.003095425853
0	7099	67.787511302578	0.14054625288
0	7110	67.928057555458	0.079232620275
0	7115	68.007290175733	0.026460048111
0	7120	68.033750223844	0.021413033123
0	7125	68.055163256967	0.004200545909
0	7127	68.059363802876	0.12187572969
0	7137	68.181239532566	0.043147363016
0	7143	68.224386895582	0.011671175601
0	7148	68.236058071183	0.013475102101
0	7153	68.249533173284	0.030233904815
0	7158	68.279767078099	0.018993807783
0	7163	68.298760885882	0.069802238043
0	7168	68.368563123925	0.084047253435
0	7175	68.45261037736	0.108610322224
0	7180	68.561220699584	0.166160831988
0	7185	68.727381531572	0.012287067196
0	7190	68.739668598768	0.010824692125
0	7195	68.750493290893	0.003744572659
0	7197	68.754237863552	0.182657614818
0	7207	68.93689547837	0.061245070657
0	7212	68.998140549027	0.148302571683
0	7218	69.14644312071	0.00309529773
0	7220	69.14953841844	0.120333447555
0	7229	69.269871865995	0.079275506411
0	7236	69.349147372406	0.227338996758
0	7247	69.576486369164	0.073981979194
0	7252	69.650468348358	0.174714935513
0	7258	69.825183283871	0.04555296181
0	7264	69.870736245681	0.018385510549
0	7269	69.88912175623	0.023572665783
0	7274	69.912694422013	0.045618701605
0	7280	69.958313123618	0.025017905777
0	7285	69.983331029395	0.014591061722
0	7290	69.997922091117	0.061232401952
0	7296	70.059154493069	0.027501169717
0	7301	70.086655662786	0.005217098195
0	7303	70.091872760981	0.05021632865
0	7311	70.142089089631	0.132032320822
0	7316	70.274121410453	0.013878453142
0	7321	70.287999863595	0.029594769295
0	7326	70.31759463289	0.019219655524
0	7331	70.336814288414	0.134790917478
0	7339	70.471605205892	0.040023770048
0	7345	70.51162897594	0.049287979091
0	7350	70.560916955031	0.071520579532
0	7355	70.632437534563	0.230431715933
0	7363	70.862869250496	0.132001046514
0	7370	70.99487029701	0.001483051876
0	7372	70.996353348886	0.020423373649
0	7380	71.016776722535	0.011893481793
0	7385	71.028670204328	0.040415687937
0	7391	71.069085892265	0.012395666456
0	7396	71.081481558721	0.088943459365
0	7401	71.170425018086	0.155611651334
0	7408	71.32603666942	0.046456862957
0	7413	71.372493532377	0.029004054637
0	7418	71.401497587014	0.055553191386
0	7423	71.4570507784	0.009590772215
0	7429	71.466641550615	0.030047612901
0	7435	71.496689163516	0.023316607397
0	7440	71.520005770913	0.018456635121
0	7445	71.538462406034	0.027367047306
0	7450	71.56582945334	0.01838152232
0	7455	71.58421097566	0.035865388083
0	7461	71.620076363743	0.008817868234
0	7466	71.628894231977	0.027912737805
0	7471	71.656806969782	0.033704060539
0	7477	71.690511030321	0.035176914766
0	7482	71.725687945087	0.090817085177
0	7488	71.816505030264	0.108419232886
0	7493	71.92492426315	0.1627090312
0	7498	72.08763329435	0.009982059051
0	7503	72.097615353401	0.076936554686
0	7508	72.174551908087	0.054296364696
0	7515	72.228848272783	0.000683163906
0	7517	72.229531436689	0.043605287947
0	7525	72.273136724636	0.003362375318
0	7527	72.276499099954	0.074360627339
0	7535	72.350859727293	0.002282250971
0	7537	72.353141978264	0.022602589061
0	7545	72.375744567325	0.025595445242
0	7550	72.401340012567	0.092526778218
0	7555	72.493866790785	0.080541343263
0	7561	72.574408134048	0.013851519728
0	7566	72.588259653776	0.011152317052
0	7571	72.599411970828	0.013704708472
0	7577	72.6131166793	0.026396919259
0	7582	72.639513598559	0.116876853157
0	7587	72.756390451716	0.088873493636
0	7592	72.845263945352	0.009186793754
0	7597	72.854450739106	0.042608625225
0	7603	72.897059364331	0.169666868019
0	7613	73.06672623235	0.012237673112
0	7618	73.078963905462	0.018863543037
0	7624	73.097827448499	0.034344460416
0	7629	73.132171908915	0.031923313979
0	7636	73.164095222894	0.011963534704
0	7642	73.176058757598	0.047371998313
0	7648	73.223430755911	0.092873262375
0	7653	73.316304018286	0.043875255272
0	7659	73.360179273558	0.077437099358
0	7664	73.437616372916	0.020174044231
0	7669	73.457790417147	0.195820525926
0	7674	73.653610943073	0.236036038076
0	7681	73.889646981149	0.112292431906
0	7687	74.001939413055	0.057433198471
0	7692	74.059372611526	0.003524988401
0	7694	74.062897599927	0.02653637388
0	7703	74.089433973807	0.011890334506
0	7708	74.101324308313	0.050841273721
0	7713	74.152165582034	0.098981938496
0	7718	74.25114752053	0.006974976082
0	7721	74.258122496612	0.031619889802
0	7729	74.289742386414	0.051932896304
0	7735	74.341675282718	0.014581102771
0	7740	74.356256385489	0.059784215463
0	7746	74.416040600952	0.048850538263
0	7751	74.464891139215	0.019484903784
0	7756	74.484376042999	0.05307959554
0	7761	74.537455638539	0.002905320773
0	7763	74.540360959312	0.023951541248
0	7771	74.56431250056	0.032187658751
0	7776	74.596500159311	0.041896305026
0	7781	74.638396464337	0.039035956112
0	7788	74.677432420449	0.031195907889
0	7793	74.708628328338	0.179107388954
0	7799	74.887735717292	0.021205084642
0	7804	74.908940801934	0.156060310526
0	7809	75.06500111246	0.074996774546
0	7816	75.139997887006	0.144556737427
0	7823	75.284554624433	0.046000283775
0	7828	75.330554908208	0.053451040192
0	7835	75.3840059484	0.00860193617
0	7840	75.39260788457	0.005308833382
0	7843	75.397916717952	0.045673501622
0	7851	75.443590219574	0.006075872905
0	7853	75.449666092479	0.120024089706
0	7863	75.569690182185	0.020873949814
0	7868	75.590564131999	0.04298218779
0	7873	75.633546319789	0.095287128972
0	7880	75.728833448761	0.041678127609
0	7886	75.77051157637	0.029500673034
0	7891	75.800012249404	0.030615336878
0	7896	75.830627586282	0.002941294249
0	7898	75.833568880531	0.024389761238
0	7906	75.857958641769	0.027811061057
0	7911	75.885769702826	0.002242897952
0	7913	75.888012600778	0.014377542265
0	7922	75.902390143043	0.052800045529
0	7928	75.955190188572	0.052881670863
0	7933	76.008071859435	0.140325823307
0	7938	76.148397682742	0.003039311096
0	7940	76.151436993838	0.094504683848
0	7951	76.245941677686	0.017708546236
0	7956	76.263650223922	0.114375993589
0	7961	76.378026217511	0.065576945953
0	7966	76.443603163464	0.063386824608
0	7971	76.506989988072	0.019487386145
0	7976	76.526477374217	0.123734231052
0	7982	76.650211605269	0.019036770075
0	7987	76.669248375344	0.002626636638
0	7989	76.671875011982	0.091408954397
0	7997	76.763283966379	0.029564005557
0	8002	76.792847971936	0.089994614864
0	8007	76.8828425868	0.053365443317
0	8013	76.936208030117	0.023974693391
0	8018	76.960182723508	0.150022506978
0	8025	77.110205230486	0.033753509002
0	8030	77.143958739488	0.123765520768
0	8037	77.267724260256	0.084269234272
0	8042	77.351993494528	0.037738629532
0	8047	77.38973212406	0.0024576927
0	8049	77.39218981676	0.026101477338
0	8057	77.418291294098	0.008579231044
0	8062	77.426870525142	0.059759117473
0	8069	77.486629642615	0.025765966186
0	8074	77.512395608801	0.023487224049
0	8079	77.53588283285	0.113610938851
0	8085	77.649493771701	0.027014799631
0	8090	77.676508571332	0.068719877659
0	8095	77.745228448991	0.057281397367
0	8100	77.802509846358	0.017228442436
0	8105	77.819738288794	0.047815649301
0	8111	77.867553938095	0.011947284519
0	8116	77.879501222614	0.086077200509
0	8122	77.965578423123	0.092051371719
0	8128	78.057629794842	0.014531554139
0	8133	78.072161348981	0.03734407452
0	8138	78.109505423501	0.015994232067
0	8143	78.125499655568	0.003030412162
0	8145	78.12853006773	0.032771396816
0	8153	78.161301464546	0.001250424116
0	8155	78.162551888662	0.011077175362
0	8160	78.173629064024	0.007061809628
0	8166	78.180690873652	0.033057164873
0	8174	78.213748038525	0.105996994451
0	8180	78.319745032976	0.001289963821
0	8182	78.321034996797	0.021334835982
0	8190	78.342369832779	0.072658727291
0	8197	78.41502856007	0.02000742235
0	8202	78.43503598242	0.006891382329
0	8204	78.441927364749	0.107791380401
0	8213	78.54971874515	0.03237657408
0	8218	78.58209531923	0.007700562028
0	8223	78.589795881258	0.053980695447
0	8230	78.643776576705	0.028862401985
0	8235	78.67263897869	0.045822505083
0	8240	78.718461483773	0.049061229067
0	8245	78.76752271284	0.107576218544
0	8252	78.875098931384	0.013540674129
0	8257	78.888639605513	0.00247797297
0	8259	78.891117578483	0.037789904705
0	8268	78.928907483188	0.02513551409
0	8273	78.954042997278	0.092542903312
0	8278	79.04658590059	0.045336351255
0	8283	79.091922251845	0.066113035725
0	8288	79.15803528757	0.039026818701
0	8295	79.197062106271	0.048111141967
0	8300	79.245173248238	0.07364712904
0	8306	79.318820377278	0.019604161694
0	8311	79.338424538972	0.067882114239
0	8316	79.406306653211	0.033516774704
0	8321	79.439823427915	0.083878778758
0	8326	79.523702206673	0.051271417132
0	8332	79.574973623805	0.001779116516
0	8334	79.576752740321	0.012545490936
0	8339	79.589298231257	0.0115083732
0	8347	79.600806604457	0.008292343887
0	8352	79.609098948344	0.03035990916
0	8357	79.639458857504	0.006142376726
0	8359	79.64560123423	0.031366644711
0	8367	79.676967878941	0.026465965614
0	8372	79.703433844555	0.015807753873
0	8377	79.719241598428	0.205282971137
0	8385	79.924524569565	0.066097760572
0	8391	79.990622330137	0.025311403513
0	8396	80.01593373365	0.006686816267
0	8398	80.022620549917	0.025953484721
0	8406	80.048574034638	0.028002345493
0	8411	80.076576380131	0.108327302154
0	8416	80.184903682285	0.020235619805
0	8421	80.20513930209	0.124878116822
0	8429	80.330017418912	0.052824376522
0	8434	80.382841795434	0.117540003159
0	8442	80.500381798593	0.019231316271
0	8447	80.519613114864	0.004573786193
0	8449	80.524186901057	0.068481807327
0	8457	80.592668708384	0.062928993542
0	8463	80.655597701926	0.02341117652
0	8468	80.679008878446	0.074544071948
0	8473	80.753552950394	0.006667960801
0	8475	80.760220911195	0.049822458495
0	8483	80.81004336969	0.021225535029
0	8488	80.831268904719	0.059816648192
0	8493	80.891085552911	0.026853880423
0	8498	80.917939433334	0.007848213499
0	8500	80.925787646833	0.006236360752
0	8505	80.932024007585	0.106313079474
0	8513	81.038337087059	0.189540519306
0	8518	81.227877606365	0.004980466261
0	8520	81.232858072626	0.095488675158
0	8528	81.328346747784	0.022091803648
0	8533	81.350438551432	0.130284198434
0	8539	81.480722749866	0.079544666162
0	8544	81.560267416028	0.011576789672
0	8549	81.5718442057	0.107077268797
0	8554	81.678921474497	0.097087112381
0	8560	81.776008586878	0.31069124413
0	8569	82.086699831008	0.150840690066
0	8574	82.237540521074	0.025868536889
0	8579	82.263409057963	0.021085523726
0	8584	82.284494581689	0.017468088014
0	8589	82.301962669703	0.120429567344
0	8596	82.422392237047	0.123419043782
0	8605	82.545811280829	0.017591102719
0	8610	82.563402383548	0.022160785731
0	8616	82.585563169279	0.284497562199
0	8623	82.870060731478	0.008094903608
0	8628	82.878155635086	0.000423234903
0	8630	82.878578869989	0.023854430819
0	8639	82.902433300808	0.052175289534
0	8645	82.954608590342	0.050083991236
0	8650	83.004692581578	0.087694479549
0	8656	83.092387061127	0.000519386243
0	8658	83.09290644737	0.043173047125
0	8666	83.136079494495	0.049642931938
0	8672	83.185722426433	0.249705802687
0	8678	83.43542822912	0.008001104229
0	8683	83.443429333349	0.003592390691
0	8685	83.44702172404	0.000313422257
0	8687	83.447335146297	0.005590877489
0	8692	83.452926023786	0.063995619649
0	8704	83.516921643435	0.001984086833
0	8706	83.518905730268	0.018528474162
0	8714	83.53743420443	0.006533491109
0	8716	83.543967695539	0.076370709926
0	8724	83.620338405465	0.013235243759
0	8729	83.633573649224	0.045388594108
0	8734	83.678962243332	0.011659698686
0	8739	83.690621942018	0.021015791982
0	8744	83.711637734	0.009644006189
0	8749	83.721281740189	0.014558008607
0	8754	83.735839748796	0.019352924439
0	8760	83.755192673235	0.018031807355
0	8766	83.77322448059	0.005449258534
0	8768	83.778673739124	0.067458755688
0	8777	83.846132494812	0.008999782929
0	8783	83.855132277741	0.05212907796
0	8790	83.907261355701	0.023476913145
0	8796	83.930738268846	0.023284211972
0	8801	83.954022480818	0.023552061075
0	8806	83.977574541893	0.03551407663
0	8811	84.013088618523	0.003181537933
0	8813	84.016270156456	0.01042578461
0	8818	84.026695941066	0.104028242782
0	8826	84.130724183848	0.014164721695
0	8831	84.144888905543	0.032668526774
0	8836	84.177557432317	0.089099806277
0	8842	84.266657238594	0.019706890706
0	8847	84.2863641293	0.016929065331
0	8852	84.303293194631	0.136584748554
0	8858	84.439877943185	0.050512349467
0	8863	84.490390292652	0.026904350794
0	8868	84.517294643446	0.003810635884
0	8870	84.52110527933	0.134934606338
0	8880	84.656039885668	0.22990446034
0	8888	84.885944346008	0.027748886609
0	8893	84.913693232617	0.034431466856
0	8898	84.948124699473	0.034352578607
0	8904	84.98247727808	0.006121887726
0	8906	84.988599165806	0.001231251835
0	8911	84.989830417641	0.015123011282
0	8919	85.004953428923	0.066246756169
0	8924	85.071200185092	0.092532478971
0	8929	85.163732664063	0.010298959268
0	8935	85.174031623331	0.021833744021
0	8940	85.195865367352	0.033374897753
0	8945	85.229240265105	0.035487248128
0	8950	85.264727513233	0.007758335309
0	8955	85.272485848542	0.015788306419
0	8960	85.288274154961	0.047656258718
0	8966	85.335930413679	0.116832409132
0	8971	85.452762822811	0.081833745269
0	8978	85.53459656808	0.005285544473
0	8980	85.539882112553	0.058744526709
0	8988	85.598626639262	0.021461804425
0	8993	85.620088443687	0.02336443986
0	8998	85.643452883547	0.260024119584
0	9005	85.903477003131	0.079648656049
0	9010	85.98312565918	0.037423554896
0	9015	86.020549214076	0.021057580986
0	9021	86.041606795062	0.036000211774
0	9026	86.077607006836	0.012755531003
0	9031	86.090362537839	0.09865643188
0	9036	86.189018969719	0.002646587529
0	9038	86.191665557248	0.017841720839
0	9047	86.209507278087	0.036917715484
0	9053	86.246424993571	0.010070793052
0	9058	86.256495786623	0.074089397112
0	9063	86.330585183735	0.015026910589
0	9068	86.345612094324	0.196644655701
0	9075	86.542256750025	0.044442843381
0	9081	86.586699593406	0.051288077322
0	9088	86.637987670728	0.011925253481
0	9093	86.649912924209	0.020293890018
0	9098	86.670206814227	0.008050495723
0	9103	86.67825730995	0.013098382546
0	9108	86.691355692496	0.090139168409
0	9113	86.781494860905	0.110314234145
0	9119	86.89180909505	0.033794436422
0	9124	86.925603531472	0.010519319717
0	9129	86.936122851189	0.135211058093
0	9137	87.071333909282	0.057500630552
0	9143	87.128834539834	0.270663507557
0	9149	87.399498047391	0.020055699624
0	9154	87.419553747015	0.045951467905
0	9159	87.46550521492	0.012802440445
0	9165	87.478307655365	0.085238996238
0	9171	87.563546651603	0.048767048617
0	9176	87.61231370022	0.010690362917
0	9181	87.623004063137	0.059000088087
0	9186	87.682004151224	0.014233837528
0	9191	87.696237988752	0.049603805491
0	9196	87.745841794243	0.087677776778
0	9201	87.833519571021	0.097079545956
0	9206	87.930599116977	0.079176040869
0	9211	88.009775157846	0.036747951096
0	9216	88.046523108942	0.033643238645
0	9222	88.080166347587	0.089598520941
0	9229	88.169764868528	0.060438989802
0	9234	88.23020385833	0.111035431831
0	9242	88.341239290161	0.004028008759
0	9244	88.34526729892	0.005538087721
0	9249	88.350805386641	0.002145766095
0	9251	88.352951152736	0.00501841969
0	9256	88.357969572426	0.014855222148
0	9261	88.372824794574	0.100903868677
0	9273	88.473728663251	0.000830755471
0	9275	88.474559418722	0.038096963349
0	9284	88.512656382071	0.02389887927
0	9289	88.536555261341	0.064807754105
0	9294	88.601363015446	0.014178023235
0	9299	88.615541038681	0.043523323697
0	9305	88.659064362378	0.155205558954
0	9311	88.814269921332	0.006250927171
0	9313	88.820520848503	0.020992329154
0	9321	88.841513177657	0.010844146135
0	9326	88.852357323792	0.210147965415
0	9334	89.062505289207	0.264975162316
0	9341	89.327480451523	0.013618643815
0	9346	89.341099095338	0.041126179605
0	9352	89.382225274943	0.000364595475
0	9354	89.382589870418	0.094695899815
0	9364	89.477285770233	0.066295547842
0	9370	89.543581318075	0.032580795071
0	9376	89.576162113146	0.052690813529
0	9381	89.628852926675	0.068750784633
0	9386	89.697603711308	0.012750209208
0	9391	89.710353920516	0.023098527823
0	9396	89.733452448339	0.002493108248
0	9398	89.735945556587	0.084724590986
0	9407	89.820670147573	0.090987542018
0	9413	89.911657689591	0.072278597587
0	9419	89.983936287178	0.110868136628
0	9424	90.094804423806	0.055848884944
0	9429	90.15065330875	0.026860875347
0	9434	90.177514184097	0.048599061572
0	9440	90.226113245669	0.024740380131
0	9445	90.2508536258	0.027283636257
0	9450	90.278137262057	0.036202191797
0	9455	90.314339453854	9.921013e-06
0	9457	90.314349374867	0.002306654961
0	9459	90.316656029828	0.072975658217
0	9471	90.389631688045	0.003355237324
0	9473	90.392986925369	0.011133978389
0	9478	90.404120903758	0.00408157918
0	9483	90.408202482938	0.004111441422
0	9485	90.41231392436	0.022450028016
0	9496	90.434763952376	0.010088588872
0	9501	90.444852541248	0.007810625125
0	9503	90.452663166373	0.077171882162
0	9512	90.529835048535	0.147554837503
0	9517	90.677389886038	0.031715017737
0	9522	90.709104903775	0.008752899613
0	9527	90.717857803388	0.077596865483
0	9533	90.795454668871	0.008518690843
0	9539	90.803973359714	0.005238767926
0	9541	90.80921212764	0.047787247596
0	9549	90.856999375236	0.015919643984
0	9554	90.87291901922	0.000233862346
0	9556	90.873152881566	0.149592773477
0	9565	91.022745655043	0.037213018561
0	9570	91.059958673604	0.011710965109
0	9575	91.071669638713	0.018020510095
0	9580	91.089690148808	0.024399438615
0	9585	91.114089587423	0.010092073114
0	9590	91.124181660537	0.051043574166
0	9595	91.175225234703	0.039312590952
0	9600	91.214537825655	0.081526763326
0	9605	91.296064588981	0.081871768711
0	9611	91.377936357692	0.068099144946
0	9617	91.446035502638	0.011333195871
0	9623	91.457368698509	0.004429101788
0	9625	91.461797800297	0.006353688
0	9630	91.468151488297	0.035722997898
0	9638	91.503874486195	0.037108808852
0	9643	91.540983295047	0.0387155703
0	9648	91.579698865347	0.008944915237
0	9653	91.588643780584	0.01880041447
0	9658	91.607444195054	0.008655072992
0	9663	91.616099268046	0.03005008733
0	9668	91.646149355376	0.029854045859
0	9673	91.676003401235	0.057539983317
0	9679	91.733543384552	0.244489416681
0	9687	91.978032801233	0.005977099124
0	9689	91.984009900357	0.271985139324
0	9698	92.255995039681	0.110175902531
0	9703	92.366170942212	0.062544531043
0	9709	92.428715473255	0.041300666843
0	9714	92.470016140098	0.046811444445
0	9720	92.516827584543	0.003987217124
0	9722	92.520814801667	0.050472360757
0	9731	92.571287162424	0.030850445573
0	9736	92.602137607997	0.073348725495
0	9741	92.675486333492	0.026914834502
0	9746	92.702401167994	0.008055318908
0	9751	92.710456486902	0.058092126781
0	9757	92.768548613683	0.175553460056
0	9762	92.944102073739	0.029972404994
0	9767	92.974074478733	0.020486973032
0	9772	92.994561451765	0.002773570324
0	9774	92.997335022089	0.0136831604
0	9783	93.011018182489	0.004556235335
0	9785	93.015574417824	0.101244458041
0	9793	93.116818875865	0.038163218925
0	9798	93.15498209479	0.004736563506
0	9800	93.159718658296	0.144611495612
0	9808	93.304330153908	0.0627082697
0	9814	93.367038423608	0.049194337001
0	9819	93.416232760609	0.004275025392
0	9821	93.420507786001	0.049429640655
0	9829	93.469937426656	0.006408729737
0	9831	93.476346156393	0.002670450106
0	9836	93.479016606499	0.109571192055
0	9845	93.588587798554	0.009698147582
0	9850	93.598285946136	0.016491846605
0	9855	93.614777792741	0.039500785057
0	9860	93.654278577798	0.045575314861
0	9866	93.699853892659	0.072503736769
0	9872	93.772357629428	0.011108564119
0	9877	93.783466193547	0.05425905256
0	9882	93.837725246107	0.060808699499
0	9888	93.898533945606	0.019030888144
0	9893	93.91756483375	0.013783547117
0	9899	93.931348380867	0.018021076758
0	9904	93.949369457625	0.011363662224
0	9909	93.960733119849	0.195113798269
0	9914	94.155846918118	0.272134416738
0	9920	94.427981334856	0.013767268673
0	9925	94.441748603529	0.02532089722
0	9930	94.467069500749	0.066420694692
0	9935	94.533490195441	0.019502132304
0	9941	94.552992327745	0.04934887363
0	9946	94.602341201375	0.143608552233
0	9953	94.745949753608	1.890692e-05
0	9955	94.745968660528	0.089172367901
0	9964	94.835141028429	0.09504391676
0	9971	94.930184945189	0.012191304342
0	9976	94.942376249531	0.032489847766
0	9981	94.974866097297	0.019834414735
0	9986	94.994700512032	0.143752081328
0	9992	95.13845259336	0.026400948188
0	9999	95.164853541548	0.074284225315
0	10005	95.239137766863	0.054843026522
0	10010	95.293980793385	0.004465353251
0	10012	95.298446146636	0.120615312936
0	10020	95.419061459572	0.120426749259
0	10026	95.539488208831	0.011271726574
0	10031	95.550759935405	0.123241481634
0	10037	95.674001417039	0.105052669748
0	10042	95.779054086787	0.01848269339
0	10047	95.797536780177	0.03047009759
0	10053	95.828006877767	0.056692321852
0	10060	95.884699199619	0.005274276789
0	10062	95.889973476408	0.021452921594
0	10070	95.911426398002	0.033935738087
0	10076	95.945362136089	0.186081157635
0	10084	96.131443293724	0.259116348758
0	10093	96.390559642482	0.037542154143
0	10098	96.428101796625	0.012798998697
0	10104	96.440900795322	0.173651201534
0	10109	96.614551996856	0.077599203712
0	10114	96.692151200568	0.086656967206
0	10119	96.778808167774	0.002553321066
0	10121	96.78136148884	0.04683109642
0	10129	96.82819258526	0.081534443384
0	10135	96.909727028644	0.046489236039
0	10141	96.956216264683	0.095933464773
0	10147	97.052149729456	0.100899917689
0	10154	97.153049647145	0.045212699328
0	10159	97.198262346473	0.016976086452
0	10164	97.215238432925	0.076393787379
0	10169	97.291632220304	0.03184799325
0	10174	97.323480213554	0.00143841156
0	10176	97.324918625114	0.090441982801
0	10185	97.415360607915	0.033589117438
0	10190	97.448949725353	0.051014516103
0	10195	97.499964241456	0.078374711601
0	10200	97.578338953057	0.011419770419
0	10205	97.589758723476	0.144661911434
0	10212	97.73442063491	0.147645508475
0	10218	97.882066143385	0.027165184346
0	10223	97.909231327731	0.01028307478
0	10228	97.919514402511	0.032401051965
0	10233	97.951915454476	0.060965227569
0	10238	98.012880682045	0.012257166465
0	10243	98.02513784851	0.019750583956
0	10248	98.044888432466	0.032057995502
0	10253	98.076946427968	0.098403516479
0	10258	98.175349944447	0.016142934166
0	10263	98.191492878613	0.056351360743
0	10269	98.247844239356	0.018487657685
0	10274	98.266331897041	0.000310741482
0	10276	98.266642638523	0.020953541311
0	10284	98.287596179834	0.014853451881
0	10289	98.302449631715	0.204895906393
0	10294	98.507345538108	0.087407622624
0	10300	98.594753160732	0.029623783427
0	10307	98.624376944159	0.142877635356
0	10313	98.767254579515	0.069276676735
0	10318	98.83653125625	0.004384852128
0	10320	98.840916108378	0.012926078582
0	10328	98.85384218696	0.195832231711
0	10335	99.049674418671	0.28849049476
0	10343	99.338164913431	0.01214318289
0	10348	99.350308096321	0.005707278952
0	10350	99.356015375273	0.003113488095
0	10355	99.359128863368	0.042979217741
0	10364	99.402108081109	0.069312404984
0	10369	99.471420486093	0.073580684214
0	10374	99.545001170307	0.021977284235
0	10379	99.566978454542	0.114104881424
0	10384	99.681083335966	0.054612214774
0	10389	99.73569555074	0.068304684339
0	10395	99.804000235079	0.023484529497
0	10400	99.827484764576	0.07018861259
0	10405	99.897673377166	0.026019716487
0	10410	99.923693093653	0.031679343158
0	10415	99.955372436811	0.07539467131
0	10421	100.030767108121	0.036133089183
0	10426	100.066900197304	0.098832744425
0	10431	100.165732941729	0.010830769487
0	10436	100.176563711216	0.049580259609
0	10441	100.226143970825	0.016135075454
0	10446	100.242279046279	0.005935881763
0	10448	100.248214928042	0.052271485165
0	10456	100.300486413207	0.137869787302
0	10462	100.438356200509	0.078311601257
0	10467	100.516667801766	0.029262835155
0	10473	100.545930636921	0.002962937837
0	10475	100.548893574758	0.022470370161
0	10483	100.571363944919	0.03718082697
0	10489	100.608544771889	0.035791464749
0	10494	100.644336236638	0.027686903566
0	10499	100.672023140204	0.000436316768
0	10501	100.672459456972	0.085699622071
0	10509	100.758159079043	0.005540315451
0	10511	100.763699394494	0.002685488181
0	10516	100.766384882675	0.046938093732
0	10525	100.813322976407	0.000931383592
0	10527	100.814254359999	0.012999988715
0	10532	100.827254348714	0.066262222228
0	10541	100.893516570942	0.020272442816
0	10546	100.913789013758	0.104249139424
0	10552	101.018038153182	0.021368457767
0	10558	101.039406610949	0.03194206989
0	10563	101.071348680839	0.008140885595
0	10568	101.079489566434	0.010570184325
0	10573	101.090059750759	0.016634127501
0	10579	101.10669387826	0.005558764418
0	10581	101.112252642678	0.12694715476
0	10589	101.239199797438	0.024390901611
0	10594	101.263590699049	0.055347275152
0	10599	101.318937974201	0.120777207087
0	10605	101.439715181288	0.03025624178
0	10610	101.469971423068	0.140928797309
0	10617	101.610900220377	0.024130391318
0	10622	101.635030611695	0.054197978455
0	10629	101.68922859015	0.011576843425
0	10634	101.700805433575	0.027775454653
0	10639	101.728580888228	0.045956859086
0	10644	101.774537747314	0.024993135088
0	10649	101.799530882402	0.016982501331
0	10654	101.816513383733	0.026126025098
0	10659	101.842639408831	0.006569611713
0	10661	101.849209020544	0.036186792407
0	10669	101.885395812951	0.061730488596
0	10675	101.947126301547	0.013799893197
0	10680	101.960926194744	0.185313726342
0	10688	102.146239921086	0.046934307946
0	10694	102.193174229032	0.028446361617
0	10699	102.221620590649	0.02823906281
0	10704	102.249859653459	0.079851205358
0	10709	102.329710858817	0.097445562918
0	10716	102.427156421735	0.047150588411
0	10721	102.474307010146	0.052583920233
0	10727	102.526890930379	0.043021358989
0	10732	102.569912289368	0.002230129384
0	10734	102.572142418752	0.11340548877
0	10743	102.685547907522	0.030040928031
0	10749	102.715588835553	0.026531001337
0	10754	102.74211983689	0.011623666267
0	10759	102.753743503157	0.021515074143
0	10765	102.7752585773	0.108445552568
0	10772	102.883704129868	0.094210303487
0	10777	102.977914433355	0.00799812552
0	10782	102.985912558875	0.160141940409
0	10788	103.146054499284	0.178478368232
0	10793	103.324532867516	0.021067793447
0	10798	103.345600660963	0.039733001898
0	10803	103.385333662861	0.023256774211
0	10810	103.408590437072	0.007618755143
0	10812	103.416209192215	0.023404149946
0	10820	103.439613342161	0.127366503676
0	10826	103.566979845837	0.13640557476
0	10831	103.703385420597	0.009497376546
0	10836	103.712882797143	0.001626527287
0	10838	103.71450932443	0.054650685106
0	10846	103.769160009536	0.011498483894
0	10851	103.78065849343	0.014928578485
0	10856	103.795587071915	0.018209822255
0	10861	103.81379689417	0.001639415931
0	10863	103.815436310101	0.002565264215
0	10865	103.818001574316	0.033181912288
0	10876	103.851183486604	0.080777135689
0	10883	103.931960622293	0.063059716693
0	10888	103.995020338986	0.060917213417
0	10893	104.055937552403	0.040362402315
0	10898	104.096299954718	0.011813521571
0	10903	104.108113476289	0.059884893665
0	10910	104.167998369954	0.122005700763
0	10915	104.290004070717	0.107982551341
0	10921	104.397986622058	0.004433273846
0	10923	104.402419895904	0.045969143126
0	10931	104.44838903903	0.181501617805
0	10938	104.629890656835	0.012029650304
0	10943	104.641920307139	0.006661134677
0	10946	104.648581441816	0.107505287367
0	10954	104.756086729183	0.15237644945
0	10960	104.908463178633	0.066295485461
0	10966	104.974758664094	0.161205404228
0	10972	105.135964068322	0.021568894709
0	10978	105.157532963031	0.119686424691
0	10986	105.277219387722	0.037378607532
0	10991	105.314597995254	0.037875079995
0	10997	105.352473075249	0.04050345412
0	11002	105.392976529369	0.000443420872
0	11004	105.393419950241	0.090765624277
0	11012	105.484185574518	0.090162190531
0	11017	105.574347765049	0.018245595986
0	11022	105.592593361035	0.003178920556
0	11024	105.595772281591	0.010700538615
0	11029	105.606472820206	0.021394905879
0	11037	105.627867726085	0.069895073906
0	11042	105.697762799991	0.13612613077
0	11047	105.833888930761	0.03534349255
0	11052	105.869232423311	0.012928791317
0	11057	105.882161214628	0.146131659139
0	11065	106.028292873767	0.022267675856
0	11070	106.050560549623	0.069432328316
0	11077	106.119992877939	0.125392293533
0	11085	106.245385171472	0.073106685388
0	11091	106.31849185686	0.135953667043
0	11097	106.454445523903	0.018521681789
0	11102	106.472967205692	0.057272209933
0	11107	106.530239415625	0.022610104613
0	11112	106.552849520238	0.005121081215
0	11114	106.557970601453	0.041681887133
0	11123	106.599652488586	0.014051967144
0	11128	106.61370445573	0.031483710672
0	11133	106.645188166402	0.030730033643
0	11138	106.675918200045	0.009352129076
0	11143	106.685270329121	0.115985863299
0	11149	106.80125619242	0.029261629971
0	11154	106.830517822391	0.146339744932
0	11161	106.976857567323	0.037878364757
0	11166	107.01473593208	0.007723792356
0	11168	107.022459724436	0.011795572658
0	11176	107.034255297094	0.004737173066
0	11178	107.03899247016	0.026579961463
0	11186	107.065572431623	0.029317198557
0	11191	107.09488963018	0.022278408208
0	11196	107.117168038388	0.029426704034
0	11202	107.146594742422	0.019409049775
0	11207	107.166003792197	0.127152658946
0	11213	107.293156451143	0.047030818459
0	11219	107.340187269602	0.018477786326
0	11224	107.358665055928	0.033986812868
0	11229	107.392651868796	0.102734087246
0	11234	107.495385956042	0.11493446633
0	11241	107.610320422372	0.023679372677
0	11246	107.633999795049	0.002090010644
0	11248	107.636089805693	0.016818835853
0	11256	107.652908641546	0.133847515949
0	11262	107.786756157495	0.041295616543
0	11267	107.828051774038	0.047178226777
0	11273	107.875230000815	0.08338427282
0	11279	107.958614273635	0.066253005327
0	11284	108.024867278962	0.023798930484
0	11289	108.048666209446	0.038953551065
0	11294	108.087619760511	0.014563138773
0	11299	108.102182899284	0.183871309389
0	11305	108.286054208673	0.040168869563
0	11310	108.326223078236	0.051710178945
0	11316	108.377933257181	0.019048571028
0	11321	108.396981828209	0.017223311279
0	11326	108.414205139488	0.009406049325
0	11331	108.423611188813	0.019017959034
0	11336	108.442629147847	0.109435380732
0	11342	108.552064528579	0.090359667026
0	11348	108.642424195605	0.129811616796
0	11354	108.772235812401	0.102629272709
0	11360	108.87486508511	0.038550424161
0	11366	108.913415509271	0.029668684617
0	11371	108.943084193888	0.06755701448
0	11376	109.010641208368	0.00070225124
0	11378	109.011343459608	0.229474494849
0	11387	109.240817954457	0.058251542212
0	11392	109.299069496669	0.006275164033
0	11394	109.305344660702	0.030097305649
0	11403	109.335441966351	0.031854709499
0	11408	109.36729667585	0.025483327106
0	11414	109.392780002956	0.121972584407
0	11421	109.514752587363	0.053533114401
0	11426	109.568285701764	0.032359742545
0	11431	109.600645444309	0.157926973921
0	11436	109.75857241823	0.020274936698
0	11441	109.778847354928	0.064756077252
0	11447	109.84360343218	0.028667208461
0	11452	109.872270640641	0.00114735313
0	11454	109.873417993771	0.006895162484
0	11459	109.880313156255	0.041458745494
0	11467	109.921771901749	0.005438203306
0	11469	109.927210105055	0.098531379217
0	11477	110.025741484272	0.059464806024
0	11483	110.085206290296	0.114380640651
0	11488	110.199586930947	0.042350127579
0	11493	110.241937058526	0.014430246003
0	11498	110.256367304529	0.024861264305
0	11505	110.281228568834	0.047579339955
0	11510	110.328807908789	0.02981276279
0	11516	110.358620671579	0.070192455268
0	11521	110.428813126847	0.040236650842
0	11527	110.469049777689	0.152952964976
0	11532	110.622002742665	0.043354999214
0	11538	110.665357741879	0.001889069361
0	11540	110.66724681124	0.105873356437
0	11548	110.773120167677	0.076253087058
0	11553	110.849373254735	0.022481583931
0	11559	110.871854838666	0.002368061775
0	11561	110.874222900441	0.220371528295
0	11569	111.094594428736	0.012664101131
0	11574	111.107258529867	0.071264323047
0	11579	111.178522852914	0.006637559125
0	11581	111.185160412039	0.018260135724
0	11589	111.203420547763	0.11226960452
0	11594	111.315690152283	0.009218269035
0	11600	111.324908421318	0.017936511022
0	11605	111.34284493234	0.003289285309
0	11607	111.346134217649	0.09266702084
0	11615	111.438801238489	0.073503417376
0	11621	111.512304655865	0.005192186739
0	11623	111.517496842604	0.006401921576
0	11628	111.52389876418	0.062765481719
0	11636	111.586664245899	0.007933671088
0	11641	111.594597916987	0.018731882985
0	11647	111.613329799972	0.08374942225
0	11653	111.697079222222	0.018601524567
0	11660	111.715680746789	0.056192784595
0	11665	111.771873531384	0.04220673609
0	11670	111.814080267474	0.281795808649
0	11677	112.095876076123	0.010630735749
0	11682	112.106506811872	0.084954120817
0	11687	112.191460932689	0.085130043297
0	11693	112.276590975986	0.011706856972
0	11698	112.288297832958	0.009275694792
0	11703	112.29757352775	0.085415263767
0	11708	112.382988791517	0.108298983105
0	11714	112.491287774622	0.014458917636
0	11719	112.505746692258	0.197404244825
0	11727	112.703150937083	0.024569900698
0	11732	112.727720837781	0.023881592455
0	11737	112.751602430236	0.00774103871
0	11742	112.759343468946	0.067100655434
0	11747	112.82644412438	0.062402304683
0	11752	112.888846429063	0.030207962886
0	11758	112.919054391949	0.01441079177
0	11763	112.933465183719	0.017565167296
0	11768	112.951030351015	0.014045448129
0	11773	112.965075799144	0.055387974318
0	11778	113.020463773462	0.001084618077
0	11780	113.021548391539	0.034919637217
0	11788	113.056468028756	0.011130934978
0	11794	113.067598963734	0.023634555202
0	11799	113.091233518936	0.013384827772
0	11804	113.104618346708	0.092481568223
0	11809	113.197099914931	0.057102725255
0	11814	113.254202640186	0.023973142644
0	11819	113.27817578283	0.008773213684
0	11824	113.286948996514	0.004265036613
0	11826	113.291214033127	0.08773963091
0	11834	113.378953664037	0.026697826035
0	11839	113.405651490072	0.003314319381
0	11841	113.408965809453	0.059918270161
0	11851	113.468884079614	0.051461736666
0	11857	113.52034581628	0.035413125524
0	11862	113.555758941804	0.105014918531
0	11870	113.660773860335	0.034083215658
0	11875	113.694857075993	0.015415045572
0	11880	113.710272121565	0.000520281599
0	11882	113.710792403164	0.08222883027
0	11890	113.793021233434	0.05457681584
0	11895	113.847598049274	0.0283157063
0	11900	113.875913755574	0.007645220744
0	11905	113.883558976318	0.007791341334
0	11910	113.891350317652	0.121883213637
0	11915	114.013233531289	0.033477527981
0	11920	114.04671105927	0.00039842112
0	11922	114.04710948039	0.144738133843
0	11931	114.191847614233	0.030234645211
0	11936	114.222082259444	0.016417060034
0	11941	114.238499319478	0.031371319295
0	11946	114.269870638773	0.011490788168
0	11951	114.281361426941	0.25965007097
0	11958	114.541011497911	0.088929900386
0	11966	114.629941398297	0.005210562626
0	11968	114.635151960923	0.173484061262
0	11977	114.808636022185	0.031970116406
0	11982	114.840606138591	0.008921852921
[...]
19	23176	220.822263861522	1.2193714145739
19	23302	222.041635276096	0.23088221624924
19	23360	222.272517492345	0.43344324724958
19	23410	222.705960739595	1.5991769751782
19	23622	224.305137714773	0.026481192325625
19	23623	224.331618907099	1.9648738615765
19	23865	226.296492768676	1.2916060569421
19	23977	227.588098825618	3.3095634501839
19	24242	230.897662275802	0.88361689507746
19	24363	231.781279170879	2.6600689862898
19	24650	234.441348157169	2.3108350579856
19	24861	236.752183215155	4.2040172568966
19	25316	240.956200472052	3.3719865997413
19	25630	244.328187071793	0.0062180142484507
19	25631	244.334405086041	0.01425241948252
19	25632	244.348657505524	0.39826989855313
19	25686	244.746927404077	5.3532269524769
19	26274	250.100154356554	1.3590754748865
19	26446	251.459229831441	0.0033508052890267
19	26447	251.46258063673	0.034573553263026
19	26451	251.497154189993	2.7503900753233
19	26755	254.247544265316	4.7388002212974
19	27236	258.986344486613	2.0436871922903
19	27471	261.030031678903	1.0019974479365
19	27593	262.03202912684	2.0990758379719
19	27858	264.131104964812	0.16318400027253
19	27875	264.294288965085	1.1789793239793
19	27996	265.473268289064	0.76677316834505
19	28088	266.240041457409	0.013501875587749
19	28089	266.253543332997	1.37638053897
19	28209	267.629923871967	2.7449983318675
19	28503	270.374922203835	0.50384459004118
19	28561	270.878766793876	0.62719579600585
19	28661	271.505962589882	0.53645025959149
19	28721	272.042412849473	0.53815031015794
19	28794	272.580563159631	2.6473833314873
19	29077	275.227946491118	0.40057487469037
19	29109	275.628521365808	1.0353965240036
19	29222	276.663917889812	0.072974010705217
19	29236	276.736891900517	1.4686639976708
19	29396	278.205555898188	0.42194464890105
19	29473	278.627500547089	2.5729302746691
19	29749	281.200430821758	1.0714736603946
19	29855	282.271904482153	0.22410109873129
19	29887	282.496005580884	2.2700022257817
19	30134	284.766007806666	1.9125792643391
19	30376	286.678587071005	1.3782344938417
19	30544	288.056821564847	0.61235927951712
19	30609	288.669180844364	1.0868053472941
19	30733	289.755986191658	4.0982334284425
19	31136	293.854219620101	1.0164698313774
19	31249	294.870689451478	0.82210049245567
19	31325	295.692789943934	0.80221053524833
19	31401	296.495000479182	0.58287206437662
19	31481	297.077872543559	1.9173267332658
19	31755	298.995199276825	0.20046144471214
19	31772	299.195660721537	3.9102282761447
19	32233	303.105888997682	0.62061117934541
19	32311	303.726500177027	0.23053899852308
19	32328	303.95703917555	0.47018595508124
19	32385	304.427225130631	1.9496330424861
19	32607	306.376858173117	0.77438640666657
19	32679	307.151244579784	0.24010420881714
19	32731	307.391348788601	0.33117369346128
19	32775	307.722522482062	2.1718177216137
19	33030	309.894340203676	0.73954295178014
19	33089	310.633883155456	0.18645554366535
19	33111	310.820338699121	7.7208875337237
19	33862	318.541226232845	3.4029205317692
19	34227	321.944146764614	1.3894054281335
19	34351	323.333552192748	6.5187790863044
19	35037	329.852331279052	3.4720455795586
19	35410	333.324376858611	1.0268046387377
19	35550	334.351181497349	4.0042501832212
19	35971	338.35543168057	1.7030059760401
19	36124	340.05843765661	0.20617454766307
19	36143	340.264612204273	0.11247704408719
19	36154	340.37708924836	2.1724031508519
19	36426	342.549492399212	6.2661139968307
19	37090	348.815606396043	2.2585334764282
19	37334	351.074139872471	0.41922787800493
19	37376	351.493367750476	2.2827741119909
19	37649	353.776141862467	2.0515681160545
19	37914	355.827709978521	2.0011403256643
19	38115	357.828850304185	1.0626276785039
19	38240	358.891477982689	0.12054976261751
19	38256	359.012027745307	0.88113153676019
19	38371	359.893159282067	0.17014507036289
19	38408	360.06330435243	0.45944097200289
19	38466	360.522745324433	0.91646044037745
19	38555	361.43920576481	4.813278162634
19	39068	366.252483927444	3.3359859568746
19	39404	369.588469884319	0.34589806171171
19	39428	369.934367946031	4.3353891464842
19	39944	374.269757092515	3.828503494639
19	40345	378.098260587154	0.52438898604642
19	40392	378.6226495732	2.3280378620982
19	40701	380.950687435298	0.44389457701646
19	40761	381.394582012314	1.2687120142233
19	40904	382.663294026537	1.2426577226159
19	41062	383.905951749153	3.4277974226915
19	41413	387.333749171845	0.76074264537219
19	41505	388.094491817217	0.1099105624424
19	41515	388.204402379659	0.6658869812041
19	41588	388.870289360863	6.0799984228265
19	42264	394.95028778369	2.3153629325927
19	42550	397.265650716283	0.23619240208296
19	42554	397.501843118366	3.023823993909
20	1586	15.348818975301	0.22971117181844
20	1612	15.578530147119	5.9465971640637
20	2286	21.525127311183	0.81427246837465
20	2370	22.339399779558	0.97838838210662
20	2486	23.317788161665	2.9878365298137
20	2811	26.305624691479	5.7146236783127
20	3373	32.020248369792	0.27558754632389
20	3406	32.295835916116	1.8501410225345
20	3590	34.14597693865	5.4128687737747
20	4114	39.558845712425	0.78107470910681
20	4199	40.339920421532	0.019793876209697
20	4202	40.359714297742	0.083172390678698
20	4206	40.442886688421	1.8960797618979
20	4431	42.338966450319	1.0030742797543
20	4555	43.342040730073	1.8774308458027
20	4733	45.219471575876	1.8309054484283
20	4892	47.050377024304	0.92147242295874
20	5005	47.971849447263	3.3614167166801
20	5346	51.333266163943	0.0013326179243212
20	5348	51.334598781867	0.59731892634494
20	5423	51.931917708212	0.019980111419018
20	5426	51.951897819631	0.95844090779245
20	5521	52.910338727423	3.1978818306898
20	5867	56.108220558113	1.0869028976572
20	5994	57.19512345577	1.3529760964236
20	6097	58.548099552194	0.26223994903703
20	6135	58.810339501231	0.89848121451503
20	6189	59.708820715746	1.8198807251725
20	6388	61.528701440918	0.58129766314975
20	6458	62.109999104068	0.25497453533579
20	6483	62.364973639404	0.94926348683959
20	6594	63.314237126244	2.2762628054675
20	6857	65.590499931711	1.9322866472046
20	7062	67.522786578916	3.668970307417
20	7406	71.191756886333	0.46548298655914
20	7473	71.657239872892	0.14090874163152
20	7487	71.798148614524	1.0606461537368
20	7599	72.858794768261	1.9176206180211
20	7798	74.776415386282	4.1389754510203
20	8267	78.915390837302	0.97698600983427
20	8384	79.892376847136	9.9784876401823
20	9412	89.870864487318	0.044896734991508
20	9415	89.91576122231	3.0875697160854
20	9779	93.003330938395	1.2746251319817
20	9919	94.277956070377	1.800603621155
20	10083	96.078559691532	1.2550711455154
20	10181	97.333630837047	2.6405804707034
20	10420	99.97421130775	1.381977093245
20	10604	101.356188400995	2.0301580384973
20	10805	103.386346439492	5.5047233991551
20	11365	108.891069838647	3.624630969743
20	11724	112.51570080839	2.3402819002248
20	11991	114.855982708615	0.63787928673209
20	12048	115.493861995347	0.45475924477904
20	12056	115.948621240126	1.501301694671
20	12230	117.449922934797	1.465642775426
20	12440	118.915565710223	1.6423621826908
20	12611	120.557927892914	5.3909152616358
20	13159	125.94884315455	4.0601949746273
20	13646	130.009038129177	1.5461482681967
20	13813	131.555186397374	4.479976352341
20	14262	136.035162749715	0.62797652584288
20	14341	136.663139275558	1.1513802076048
20	14461	137.814519483163	1.6887334547473
20	14595	139.50325293791	3.4426067739327
20	14903	142.945859711843	2.6649397576673
20	15171	145.61079946951	3.2366112888551
20	15513	148.847410758365	0.31317692335719
20	15544	149.160587681722	3.9341009262885
20	15955	153.09468860801	1.5458596637346
20	16212	154.640548271745	0.086222037513332
20	16223	154.726770309258	7.0959155254691
20	16985	161.822685834727	4.9016357732898
20	17477	166.724321608017	1.3452384394997
20	17558	168.069560047517	7.5264978846227
20	18245	175.59605793214	0.97665479974221
20	18381	176.572712731882	0.98993893683011
20	18488	177.562651668712	0.61043536284021
20	18555	178.173087031552	1.114405242922
20	18673	179.287492274474	2.8233695254916
20	18982	182.110861799966	0.33926401388288
20	19028	182.450125813849	0.18782587260862
20	19055	182.637951686458	1.5676605180929
20	19219	184.205612204551	1.0030775361616
20	19335	185.208689740713	1.2420136002431
20	19472	186.450703340956	0.55741724648131
20	19533	187.008120587437	0.19542789663233
20	19555	187.203548484069	0.24133783620839
20	19576	187.444886320277	4.9646324632179
20	20082	192.409518783495	3.9128725963007
20	20563	196.322391379796	3.3556606809495
20	20847	199.678052060746	0.088052004515341
20	20848	199.766104065261	0.038554409727875
20	20854	199.804658474989	0.096270623935231
20	20875	199.900929098924	0.51239066078901
20	20922	200.413319759713	0.58864476568797
20	21011	201.001964525401	1.5825470741148
20	21175	202.584511599516	0.79471615551434
20	21264	203.37922775503	0.099458665373949
20	21271	203.478686420404	5.9654837390118
20	21959	209.444170159416	2.6515978884475
20	22248	212.095768047864	3.9152365400925
20	22695	216.011004587957	7.5674248285051
20	23529	223.578429416462	1.0034187270652
20	23659	224.581848143527	1.5864791570113
20	23852	226.168327300538	4.000866293048
20	24176	230.169193593586	0.32078303174314
20	24206	230.489976625329	10.483034379326
20	25319	240.973011004655	1.6696662649665
20	25498	242.642677269621	2.423284838414
20	25714	245.065962108035	5.7948838273965
20	26375	250.860845935431	0.36765399104214
20	26429	251.228499926473	1.2764043798013
20	26564	252.504904306274	0.3533882960039
20	26603	252.858292602278	0.080467879102095
20	26609	252.93876048138	2.0132881281674
20	26815	254.952048609547	5.6988191146034
20	27413	260.65086772415	1.0391179667183
20	27564	261.689985690868	2.7848375740185
20	27910	264.474823264886	0.74839529568327
20	27975	265.223218560569	0.27209124018372
20	28000	265.495309800753	1.0307529716622
20	28115	266.526062772415	2.4855396348425
20	28356	269.011602407258	2.7275636241882
20	28689	271.739166031446	1.0501558795549
20	28820	272.789321911001	0.44466458839873
20	28852	273.2339864994	0.78621361372745
20	28925	274.020200113127	3.0039181058257
20	29277	277.024118218953	1.3122664949479
20	29418	278.336384713901	0.42400830668728
20	29484	278.760393020588	1.4133723671261
20	29664	280.173765387714	1.2632310500123
20	29778	281.436996437726	1.3870255820644
20	29940	282.82402201979	0.40729362794837
20	29995	283.231315647738	1.8615136909646
20	30171	285.092829338703	2.7647312717726
20	30512	287.857560610476	0.036864470985079
20	30518	287.894425081461	3.8220269487442
20	30930	291.716452030205	0.1508198479877
20	30946	291.867271878193	0.22761720938011
20	30968	292.094889087573	5.2955438875662
20	31514	297.390432975139	1.2657480963589
20	31698	298.656181071498	2.6182228379809
20	32042	301.274403909479	1.335326564924
20	32173	302.609730474403	3.1574706614232
20	32537	305.767201135826	0.11479716287433
20	32553	305.8819982987	2.4793485696032
20	32839	308.361346868303	3.6463780606241
20	33239	312.007724928927	1.087644330389
20	33371	313.095369259316	2.9458476937302
20	33607	316.041216953046	11.335748659849
20	34772	327.376965612895	0.4136686751791
20	34830	327.790634288074	0.92098743282719
20	34927	328.711621720901	0.13976120369044
20	34928	328.851382924591	0.71633861673715
20	34990	329.567721541328	2.2994633915815
20	35240	331.86718493291	5.2627557865001
20	35848	337.12994071941	8.7807674461226
20	36764	345.910708165533	0.48282712705731
20	36833	346.39353529259	0.18125209117918
20	36847	346.574787383769	0.70803400470898
20	36914	347.282821388478	3.3933107390034
20	37286	350.676132127481	4.2579593720359
20	37806	354.934091499517	2.1812685146854
20	38070	357.115360014202	0.9317666261352
20	38123	358.047126640337	1.2358772123443
20	38310	359.283003852681	2.04061430728
20	38536	361.323618159961	0.11186334562625
20	38554	361.435481505587	0.85631838385734
20	38643	362.291799889444	0.2258804956239
20	38676	362.517680385068	5.5023237037743
20	39202	368.020004088842	0.25384292685644
20	39250	368.273847015698	1.615955050692
20	39427	369.88980206639	0.4291017989928
20	39459	370.318903865383	1.1525221308914
20	39626	371.471425996274	0.34408997513775
20	39681	371.815515971412	1.2360649733931
20	39814	373.051580944805	4.1678160171022
20	40229	377.219396961907	2.8271942682649
20	40562	380.046591230172	1.6952833291796
20	40793	381.741874559352	2.047666056867
20	41030	383.789540616219	4.4569310244093
20	41516	388.246471640628	1.6687024518094
20	41725	389.915174092437	3.3303559029192
20	42084	393.245529995356	1.2463663490544
20	42219	394.49189634441	0.66809406642876
20	42303	395.159990410839	0.26209200099245
20	42326	395.422082411831	1.2044865906017
20	42468	396.626569002433	0.59367616800137
20	42549	397.220245170434	5.4004135072354
21	1677	16.038553764487	2.7211295907312
21	1930	18.759683355218	3.5096943395852
21	2361	22.269377694803	0.16199423971155
21	2389	22.431371934515	1.7250458611734
21	2585	24.156417795688	0.30802959646103
21	2606	24.464447392149	3.9480665762502
21	3031	28.412513968399	1.8486655533124
21	3209	30.261179521711	1.7678972271909
21	3374	32.029076748902	2.6909265204869
21	3642	34.720003269389	1.5988282034449
21	3772	36.318831472834	1.1957716842256
21	3913	37.51460315706	0.98296812212413
21	4018	38.497571279184	3.7898888404465
21	4430	42.28746011963	1.121268492539
21	4562	43.408728612169	0.39335732223976
21	4591	43.802085934409	2.6826147511191
21	4816	46.484700685528	3.0254343887465
21	5146	49.510135074275	0.3595967341296
21	5193	49.869731808405	0.046683419283927
21	5199	49.916415227689	3.5822655010455
21	5600	53.498680728735	1.0021265299779
21	5677	54.500807258713	0.97794219940649
21	5800	55.478749458119	2.277250436578
21	6017	57.755999894697	1.1406357097782
21	6153	58.896635604475	5.7703859100629
21	6721	64.667021514538	2.0960760813239
21	6977	66.763097595862	0.87244466448278
21	7094	67.635542260345	5.527616870492
21	7635	73.163159130837	2.1761498629733
21	7834	75.33930899381	0.058274097882929
21	7842	75.397583091693	0.34873819150595
21	7885	75.746321283199	1.5123803455271
21	8036	77.258701628726	3.1517836116564
21	8439	80.410485240382	1.9071185770223
21	8594	82.317603817404	3.3445965360592
21	9003	85.662200353463	0.0093053576853287
21	9004	85.671505711148	3.8930327539398
21	9375	89.564538465088	3.946728601788
21	9844	93.511267066876	1.0323972257536
21	9940	94.54366429263	1.8928510043917
21	10103	96.436515297022	0.64234713871447
21	10152	97.078862435736	4.4964218545397
21	10616	101.575284290276	2.5731237696217
21	10908	104.148408059898	0.019207864384828
21	10909	104.167615924283	1.8306364408833
21	11064	105.998252365166	2.2424348676507
21	11304	108.240687232817	0.60489381859905
21	11359	108.845581051416	1.4197758061696
21	11503	110.265356857586	4.9275755113631
21	12010	115.192932368949	4.9403877845872
21	12584	120.133320153536	1.2083291606716
21	12711	121.341649314208	1.9006759170044
21	12907	123.242325231212	2.5338947036647
21	13138	125.776219934877	0.25317520142208
21	13177	126.029395136299	3.6057741823639
21	13578	129.635169318663	1.6097583360208
21	13778	131.244927654684	0.25854366666048
21	13812	131.503471321344	1.7971038618009
21	13993	133.300575183145	7.0008552730982
21	14689	140.301430456243	1.6647916308008
21	14827	141.966222087044	4.7742376952977
21	15288	146.740459782342	0.72065286653137
21	15374	147.461112648873	2.7639653144863
21	15665	150.225077963359	1.5778962559057
21	15843	151.802974219265	1.7537166642116
21	16034	153.556690883477	4.75181825051
21	16596	158.308509133987	3.5848543969457
21	16986	161.893363530933	1.42164120536
21	17105	163.315004736293	2.181906342926
21	17319	165.496911079219	0.8826551166072
21	17449	166.379566195826	0.20070057307972
21	17456	166.580266768906	0.065092445697531
21	17471	166.645359214604	1.5099853578539
21	17565	168.155344572458	4.6637039397518
21	17961	172.81904851221	1.9215294440457
21	18173	174.740577956256	1.2156851602174
21	18295	175.956263116473	3.4171631694744
21	18682	179.373426285947	2.4675682954668
21	18951	181.840994581414	0.075017736500829
21	18952	181.916012317915	2.4620221451948
21	19237	184.37803446311	1.1272501559914
21	19364	185.505284619101	3.0602770033861
21	19685	188.565561622487	2.108398436191
21	19912	190.673960058678	2.1050351532534
21	20126	192.778995211931	2.7339953891458
21	20463	195.512990601077	1.9265032912152
21	20674	197.439493892292	0.498867563286
21	20706	197.938361455578	1.2159190382782
21	20808	199.154280493856	6.9642623928239
21	21595	206.11854288668	0.84823657646324
21	21676	206.966779463143	0.37954707302912
21	21739	207.346326536172	6.2074557958359
21	22409	213.553782332008	3.6250686876326
21	22843	217.178851019641	0.47589259563716
21	22893	217.654743615278	0.15667314555026
21	22909	217.811416760828	2.368475019279
21	23121	220.179891780107	0.18376961909318
21	23137	220.3636613992	2.1238761167795
21	23384	222.487537515979	4.95477232167
21	23955	227.442309837649	0.64725103127178
21	24027	228.089560868921	1.5401199266159
21	24124	229.629680795537	2.4186368530858
21	24385	232.048317648623	0.064922894873844
21	24391	232.113240543497	9.4205165846744
21	25375	241.533757128171	0.28910631253199
21	25410	241.822863440703	0.69781181842317
21	25479	242.520675259126	1.1114949219995
21	25569	243.632170181126	6.2391164180902
21	26248	249.871286599216	2.0169561344333
21	26487	251.888242733649	0.26797191105612
21	26524	252.156214644705	2.4758107243396
21	26789	254.632025369045	7.346495810296
21	27592	261.978521179341	9.4481387980992
21	28642	271.42665997744	0.92081672746873
21	28759	272.347476704909	1.0623901652627
21	28864	273.409866870172	3.3209794053444
21	29233	276.730846275516	1.62379957916
21	29424	278.354645854676	0.67683821816661
21	29517	279.031484072843	10.900409974857
21	30747	289.9318940477	1.7582461077087
21	30929	291.690140155409	0.32199162030602
21	30957	292.012131775715	2.1251368396216
21	31147	294.137268615337	4.2007144610277
21	31654	298.337983076365	3.9882730469556
21	32147	302.326256123321	0.33835595483017
21	32179	302.664612078151	1.1123471563219
21	32318	303.776959234473	0.26926884274316
21	32350	304.046228077216	1.8506282062994
21	32554	305.896856283515	2.0640100914128
21	32798	307.960866374928	1.0100274916305
21	32961	308.970893866558	2.0800495101547
21	33138	311.050943376713	1.4548927759033
21	33294	312.505836152616	0.75239054850619
21	33377	313.258226701122	2.6502704482716
21	33595	315.908497149394	0.39512208062696
21	33620	316.303619230021	0.30717073439911
21	33651	316.61078996442	3.2470627092967
21	34008	319.857852673717	2.688331833539
21	34279	322.546184507256	2.2187485830048
21	34519	324.764933090261	0.21442597365234
21	34542	324.979359063913	0.955647636327
21	34636	325.93500670024	0.56665885129226
21	34677	326.501665551532	0.21815774901036
21	34706	326.719823300542	1.8484090345684
21	34913	328.56823233511	0.013478374938781
21	34916	328.581710710049	0.29186801603938
21	34929	328.873578726088	7.0076092056701
21	35724	335.881187931758	1.1319709099727
21	35837	337.013158841731	2.3123297392061
21	36067	339.325488580937	3.0658815376632
21	36412	342.3913701186	0.67929178928854
21	36494	343.070661907889	0.44660287198451
21	36539	343.517264779874	3.2280242976665
21	36863	346.74528907754	0.67430857208742
21	36934	347.419597649627	6.3854849690966
21	37651	353.805082618724	0.49446469982111
21	37717	354.299547318545	0.8549504703124
21	37841	355.154497788857	0.013923880375914
21	37845	355.168421669233	0.66770309411918
21	37915	355.836124763352	0.74356579625631
21	38003	356.579690559608	0.28078832228031
21	38030	356.860478881888	3.7854496107528
21	38479	360.645928492641	0.087558352468261
21	38485	360.733486845109	2.0314798563873
21	38705	362.764966701496	0.36687998206425
21	38744	363.13184668356	0.70265356550495
21	38827	363.834500249065	2.0915708102542
21	39031	365.926071059319	0.21333009327309
21	39058	366.139401152592	2.819679809472
21	39343	368.959080962064	4.3311229118094
21	39836	373.290203873873	0.62877511279993
21	39902	373.918978986673	5.8152460931757
21	40532	379.734225079849	0.86609822428663
21	40636	380.600323304136	0.074842552015611
21	40641	380.675165856152	2.3147254190702
21	40958	382.989891275222	2.8738260617975
21	41252	385.863717337019	5.9659757918796
21	41952	391.829693128899	3.4612448259371
21	42310	395.290937954836	7.4791597216471

