file 4241538 1614185370                                         
version 2
run Nonmonitoring-exponential-463-20210224-17:49:29-27012
attr configname Nonmonitoring-exponential
attr datetime 20210224-17:49:29
attr experiment Nonmonitoring-exponential
attr inifile aerocom.ini
attr iterationvars $0=20
attr iterationvarsf 20-
attr measurement $0=20
attr network Aerocom
attr processid 27012
attr repetition 63
attr replication #63
attr resultdir results
attr runnumber 463
attr seedset 63
param **.t 2s
param **.k 20ms
param **.X 0.05s
param **.m 1s
param **.tDistribution "\"exponential\""
param **.operationMode 1
param **.s "70 byte"
param **.dimPoolMax 10000
param **.dimPoolMin 8000
param **.nDL 16
param **.nA 1
param **.DLMaxCapacity 0
param **.trasmitting false

vector 0 Aerocom.aircraft[0].packetGenerator arrivalTime:vector ETV
attr "" ""
attr source computeArrivalTime
vector 1 Aerocom.aircraft[0].linkSelector waitingTime:vector ETV
attr "" ""
attr source computeWaitingTime
vector 2 Aerocom.aircraft[0].linkSelector queueLength:vector ETV
attr "" ""
attr source computeQueueLength
vector 3 Aerocom.aircraft[0].dataLink[6] actualCapacity:vector ETV
attr "" ""
attr source computeActualCapacity
vector 4 Aerocom.aircraft[0].linkSelector serviceTime:vector ETV
attr "" ""
attr source computeServiceTime
vector 5 Aerocom.aircraft[0].linkSelector responseTime:vector ETV
attr "" ""
attr source computeResponseTime
vector 6 Aerocom.aircraft[0].dataLink[13] tDistribution:vector ETV
attr "" ""
attr source computeTDistribution
vector 7 Aerocom.aircraft[0].dataLink[6] tDistribution:vector ETV
attr "" ""
attr source computeTDistribution
vector 8 Aerocom.aircraft[0].dataLink[4] tDistribution:vector ETV
attr "" ""
attr source computeTDistribution
vector 9 Aerocom.aircraft[0].dataLink[12] tDistribution:vector ETV
attr "" ""
attr source computeTDistribution
vector 10 Aerocom.aircraft[0].dataLink[15] tDistribution:vector ETV
attr "" ""
attr source computeTDistribution
vector 11 Aerocom.aircraft[0].dataLink[11] tDistribution:vector ETV
attr "" ""
attr source computeTDistribution
vector 12 Aerocom.aircraft[0].dataLink[0] tDistribution:vector ETV
attr "" ""
attr source computeTDistribution
vector 13 Aerocom.aircraft[0].dataLink[3] tDistribution:vector ETV
attr "" ""
attr source computeTDistribution
vector 14 Aerocom.aircraft[0].dataLink[14] tDistribution:vector ETV
attr "" ""
attr source computeTDistribution
vector 15 Aerocom.aircraft[0].dataLink[7] tDistribution:vector ETV
attr "" ""
attr source computeTDistribution
vector 16 Aerocom.aircraft[0].dataLink[5] tDistribution:vector ETV
attr "" ""
attr source computeTDistribution
vector 17 Aerocom.aircraft[0].dataLink[9] tDistribution:vector ETV
attr "" ""
attr source computeTDistribution
vector 18 Aerocom.aircraft[0].dataLink[8] tDistribution:vector ETV
attr "" ""
attr source computeTDistribution
vector 19 Aerocom.aircraft[0].dataLink[10] tDistribution:vector ETV
attr "" ""
attr source computeTDistribution
vector 20 Aerocom.aircraft[0].dataLink[1] tDistribution:vector ETV
attr "" ""
attr source computeTDistribution
vector 21 Aerocom.aircraft[0].dataLink[2] tDistribution:vector ETV
attr "" ""
attr source computeTDistribution
0	3133 770975 2696 103462 10.005675157928 399.981023933677 19518 1.278789e-06 0.215358944967 390.02564160633 15.432472118827
1	774108 617397 2697 103463 10.005675157928 399.981023933677 19518 0 0.039080835102 48.794916337657 0.50098571555424
2	1391505 519482 2697 103463 10.005675157928 399.981023933677 19518 0 4 2474 3698
3	1910987 578036 2697 103463 10.005675157928 399.981023933677 19518 8009 9992 175464777 1581486303309
4	2489023 848701 2697 103463 10.005675157928 399.981023933677 19518 0.0070056044835869 0.0087401673117743 152.36969621401 1.19255471592
5	3337724 771188 2698 103464 10.012923785866 399.988727246101 19518 0.007005604484 0.047422112509 201.16461255156 2.4593441606227
6	4108912 8563 2773 101411 10.339971554164 391.847799820197 209 0.00010127690927993 11.481091545666 391.04233173904 1520.3046598461
7	4117475 7845 2849 103158 10.589831853725 398.767292025232 192 0.031096065628644 10.653116660779 390.24816037634 1448.6276811047
8	4125320 7660 2853 101845 10.604611299996 393.210034062449 187 0.00069595687392717 13.475638859906 391.2712510398 1848.426625183
9	4132980 8212 2858 102981 10.635990970319 398.146705090521 201 0.0041732320430448 10.173854471512 391.05476190893 1418.6845731049
10	4141192 7908 2865 103461 10.668469951819 399.972445574449 189 0.014054635832688 9.2022343360153 390.49511993946 1447.0105274583
11	4149100 8948 2877 103132 10.688973967586 398.68710472821 213 0.043494465733129 11.27723570623 390.49875162535 1454.5276455392
12	4158048 8766 2878 102962 10.693580907242 398.015756219516 209 0.0025176217246072 13.054060391474 389.81843996864 1539.1271475207
13	4166814 9020 2879 103187 10.723612128201 398.889286699233 215 0.013203612514362 11.235586373245 394.34531122037 1429.9530294608
14	4175834 7976 2880 103089 10.733866603468 398.502252438921 190 0.0012343320041519 11.831175875159 390.19922565654 1509.6808573724
15	4183810 8316 2932 103141 10.914740411058 398.705585085719 198 0.0058973811335809 10.153957608252 393.23294488973 1465.9664216283
16	4192126 8257 2969 102952 11.061130974694 397.976089294501 197 0.034554260517941 12.859906318547 391.1477085728 1558.1921768369
17	4200383 7814 3201 102763 12.177623516273 397.263911666174 186 0.037008938234949 9.7217447992728 388.10064333438 1529.0095220337
18	4208197 8629 3741 103154 13.973669913191 398.738347433798 206 0.0077329350744327 12.65603302369 391.67174175267 1440.1616184212
19	4216826 8109 3945 103179 14.834457143708 398.849211384545 193 0.0045043073061732 9.1567750079444 386.29734031002 1474.4406512573
20	4224935 8889 3976 103000 15.046965259633 398.188151234151 212 0.0027241433447569 7.7363554659939 388.74904586702 1258.8200071497
21	4233824 7713 4774 102388 18.207382830052 395.825986857737 184 0.015236337921894 9.0652513897203 386.6838554174 1504.6207322725

