version 2
run Nonmonitoring-exponential-515-20210224-17:49:30-27052
attr configname Nonmonitoring-exponential
attr datetime 20210224-17:49:30
attr experiment Nonmonitoring-exponential
attr inifile aerocom.ini
attr iterationvars $0=50
attr iterationvarsf 50-
attr measurement $0=50
attr network Aerocom
attr processid 27052
attr repetition 15
attr replication #15
attr resultdir results
attr runnumber 515
attr seedset 15
param **.t 2s
param **.k 50ms
param **.X 0.05s
param **.m 1s
param **.tDistribution "\"exponential\""
param **.operationMode 1
param **.s "70 byte"
param **.dimPoolMax 10000
param **.dimPoolMin 8000
param **.nDL 16
param **.nA 1
param **.DLMaxCapacity 0
param **.trasmitting false

vector 0 Aerocom.aircraft[0].dataLink[11] tDistribution:vector ETV
attr "" ""
attr source computeTDistribution
vector 1 Aerocom.aircraft[0].packetGenerator arrivalTime:vector ETV
attr "" ""
attr source computeArrivalTime
vector 2 Aerocom.aircraft[0].linkSelector waitingTime:vector ETV
attr "" ""
attr source computeWaitingTime
vector 3 Aerocom.aircraft[0].linkSelector queueLength:vector ETV
attr "" ""
attr source computeQueueLength
vector 4 Aerocom.aircraft[0].dataLink[3] actualCapacity:vector ETV
attr "" ""
attr source computeActualCapacity
vector 5 Aerocom.aircraft[0].linkSelector serviceTime:vector ETV
attr "" ""
attr source computeServiceTime
vector 6 Aerocom.aircraft[0].dataLink[1] tDistribution:vector ETV
attr "" ""
attr source computeTDistribution
vector 7 Aerocom.aircraft[0].linkSelector responseTime:vector ETV
attr "" ""
attr source computeResponseTime
vector 8 Aerocom.aircraft[0].dataLink[0] tDistribution:vector ETV
attr "" ""
attr source computeTDistribution
vector 9 Aerocom.aircraft[0].dataLink[2] tDistribution:vector ETV
attr "" ""
attr source computeTDistribution
vector 10 Aerocom.aircraft[0].dataLink[9] tDistribution:vector ETV
attr "" ""
attr source computeTDistribution
vector 11 Aerocom.aircraft[0].dataLink[3] tDistribution:vector ETV
attr "" ""
attr source computeTDistribution
vector 12 Aerocom.aircraft[0].dataLink[13] tDistribution:vector ETV
attr "" ""
attr source computeTDistribution
vector 13 Aerocom.aircraft[0].dataLink[7] tDistribution:vector ETV
attr "" ""
attr source computeTDistribution
vector 14 Aerocom.aircraft[0].dataLink[8] tDistribution:vector ETV
attr "" ""
attr source computeTDistribution
vector 15 Aerocom.aircraft[0].dataLink[14] tDistribution:vector ETV
attr "" ""
attr source computeTDistribution
vector 16 Aerocom.aircraft[0].dataLink[10] tDistribution:vector ETV
attr "" ""
attr source computeTDistribution
vector 17 Aerocom.aircraft[0].dataLink[15] tDistribution:vector ETV
attr "" ""
attr source computeTDistribution
vector 18 Aerocom.aircraft[0].dataLink[6] tDistribution:vector ETV
attr "" ""
attr source computeTDistribution
vector 19 Aerocom.aircraft[0].dataLink[12] tDistribution:vector ETV
attr "" ""
attr source computeTDistribution
vector 20 Aerocom.aircraft[0].dataLink[4] tDistribution:vector ETV
attr "" ""
attr source computeTDistribution
vector 21 Aerocom.aircraft[0].dataLink[5] tDistribution:vector ETV
attr "" ""
attr source computeTDistribution
0	1027	10.001654969944	2.8092086367325
0	1352	12.810863606677	2.0886555314697
0	1596	14.899519138147	0.58198151875651
0	1672	15.481500656904	0.94690341542058
0	1778	16.428404072325	2.0656389123994
0	1983	18.494042984724	0.27857464912808
0	1992	18.772617633852	3.366706895533
0	2346	22.139324529385	0.47110023752212
0	2398	22.610424766907	5.3248357858911
0	2919	27.935260552798	1.3489562650483
0	3040	29.284216817846	0.84740620562338
0	3123	30.131623023469	0.78389932274787
0	3210	30.915522346217	2.1063763583231
0	3430	33.02189870454	0.95413420331752
0	3516	33.976032907858	0.73458640156045
0	3558	34.710619309418	1.3537205594166
0	3733	36.064339868835	4.544608768344
0	4213	40.608948637179	1.559439632275
0	4348	42.168388269454	2.0076521283371
0	4666	44.176040397791	3.5852198178671
0	5079	47.761260215658	0.017445953864111
0	5080	47.778706169522	3.1474785780688
0	5415	50.926184747591	1.9514261284753
0	5643	52.877610876066	3.1212169258463
0	5985	55.998827801912	5.5013127405235
0	6617	61.500140542436	0.38105582413499
0	6661	61.881196366571	0.46645830881931
0	6720	62.34765467539	0.26379002955699
0	6752	62.611444704947	2.4035051184184
0	6962	65.014949823365	0.54227219394608
0	7017	65.557222017311	6.4274148697868
0	7662	71.984636887098	1.426052987529
0	7858	73.410689874627	0.87799943433497
0	7973	74.288689308962	1.5279178349745
0	8122	75.816607143936	0.61659641325621
0	8203	76.433203557192	4.7984103542063
0	8787	81.231613911398	2.2058374797507
0	9063	83.437451391149	3.5221563180565
0	9465	86.959607709206	1.714765161977
0	9617	88.674372871183	0.51786228718432
0	9701	89.192235158367	2.9606569374165
0	9993	92.152892095783	0.70003416536978
0	10084	92.852926261153	1.068206363688
0	10186	93.921132624841	1.3523714209019
0	10335	95.273504045743	6.8095806177918
0	11087	102.083084663535	0.51636212792066
0	11130	102.599446791456	1.2086582217257
0	11263	103.808105013182	1.3558882690356
0	11385	105.163993282218	2.2271076655427
0	11665	107.391100947761	2.6367697659067
0	11943	110.027870713668	1.9724522570399
0	12133	112.000322970708	2.5223787814083
0	12415	114.522701752116	1.6014737647888
0	12626	116.124175516905	4.025809166986
0	13050	120.149984683891	0.095113777565593
0	13067	120.245098461457	6.3411069365643
0	13773	126.586205398021	2.0176992370066
0	13966	128.603904635028	0.015470924832467
0	13967	128.61937555986	1.5023043485046
0	14156	130.121679908365	1.6584156031862
0	14301	131.780095511551	3.8601109148024
0	14777	135.640206426353	0.78425044112586
0	14865	136.424456867479	0.82977090373298
0	14964	137.254227771212	0.40228224799297
0	15047	137.656510019205	2.1292209814601
0	15259	139.785731000665	7.2954899310194
0	16081	147.081220931684	0.83838889692399
0	16126	147.919609828608	1.0337293718907
0	16245	148.953339200499	2.7666047769067
0	16570	151.719943977406	3.7783295504672
0	16962	155.498273527873	0.18053498012077
0	16983	155.678808507994	1.3208758593373
0	17149	156.999684367331	0.7026041669109
0	17245	157.702288534242	2.3482237326131
0	17506	160.050512266855	0.11850346654578
0	17516	160.169015733401	2.78448615159
0	17767	162.953501884991	5.5465627262829
0	18419	168.500064611274	0.41653138783969
0	18426	168.916595999114	3.7174308273476
0	18882	172.634026826462	0.52479371992339
0	18915	173.158820546385	3.967485800114
0	19416	177.126306346499	1.7152509981359
0	19674	178.841557344635	1.005153488394
0	19740	179.846710833029	1.5758604431025
0	19891	181.422571276131	0.883344735394
0	19997	182.305916011525	1.6547180246093
0	20201	183.960634036134	0.31318513917187
0	20237	184.273819175306	5.2021578319499
0	20779	189.475977007256	6.093490749963
0	21464	195.569467757219	1.5021611967869
0	21607	197.071628954006	0.56399898956276
0	21695	197.635627943569	1.921773552479
0	21888	199.557401496048	2.7744226160803
0	22157	202.331824112128	3.083038248147
0	22460	205.414862360275	0.38258719267534
0	22502	205.79744955295	0.68766259259964
0	22565	206.48511214555	1.8389602468792
0	22720	208.324072392429	0.60590358886238
0	22769	208.929975981291	0.65072537771725
0	22874	209.580701359008	0.51553201824207
0	22921	210.09623337725	0.59649907674227
0	22965	210.692732453992	12.500174983112
0	24433	223.192907437104	0.61643878023194
0	24506	223.809346217336	0.67367854135148
0	24572	224.483024758687	2.0040704575302
0	24777	226.487095216217	3.8579862190968
0	25158	230.345081435314	2.5138414955025
0	25491	232.858922930816	2.3821243197007
0	25769	235.241047250517	2.6057530074286
0	26023	237.846800257946	1.2840067248326
0	26155	239.130806982779	3.3662842426479
0	26577	242.497091225427	0.51983044024774
0	26643	243.016921665675	1.2632413540451
0	26777	244.28016301972	1.047622005253
0	26895	245.327785024973	1.7997542454838
0	27110	247.127539270457	0.81716897078046
0	27156	247.944708241237	1.6902542281442
0	27326	249.634962469381	0.60897754732403
0	27408	250.243940016705	0.29162150221493
0	27444	250.53556151892	0.46461727525966
0	27477	251.00017879418	0.53149517570105
0	27535	251.531673969881	1.2313114422056
0	27667	252.762985412087	0.075620267972949
0	27681	252.83860568006	1.3908459169602
0	27890	254.22945159702	1.8919872315449
0	28108	256.121438828565	0.20302224606761
0	28143	256.324461074633	3.0114605888504
0	28500	259.335921663483	0.043303235794288
0	28507	259.379224899277	0.77787953357925
0	28575	260.157104432856	0.24545158798872
0	28601	260.402556020845	0.011670933814453
0	28602	260.414226954659	0.44347420969025
0	28652	260.857701164349	0.013157877991691
0	28656	260.870859042341	0.097039092172637
0	28662	260.967898134514	3.7480557262577
0	29026	264.715953860772	1.4370672738407
0	29208	266.153021134613	2.9661530554491
0	29584	269.119174190062	1.3799167293297
0	29753	270.499090919392	0.083973090472937
0	29771	270.583064009865	1.9499091763388
0	30000	272.532973186204	1.257061765095
0	30129	273.790034951299	1.0168757626149
0	30226	274.806910713914	0.22981667739251
0	30257	275.036727391307	0.092351239540647
0	30272	275.129078630848	0.77655839973528
0	30374	275.905637030583	4.2067717243691
0	30834	280.112408754952	2.7016116647671
0	31136	282.814020419719	0.0026480103171274
0	31137	282.816668430036	1.7349721031024
0	31324	284.551640533138	4.2733610205562
0	31725	288.825001553694	4.1575628516436
0	32208	292.982564405338	3.443424080767
0	32617	296.425988486105	0.30163142175374
0	32642	296.727619907859	1.2898486410557
0	32803	298.017468548915	1.1511696322489
0	32944	299.168638181164	0.28309644186883
0	32985	299.451734623033	1.0590973435065
0	33085	300.51083196654	0.70899074845662
0	33160	301.219822714997	1.1275350251787
0	33304	302.347357740176	0.97557790279156
0	33406	303.322935642968	5.9483750566639
0	34088	309.271310699632	1.851214904951
0	34258	311.122525604583	0.12573714496969
0	34293	311.248262749553	2.4130113568648
0	34549	313.661274106418	4.6614397126365
0	35030	318.322713819054	0.82171672378052
0	35116	319.144430542835	3.7009615204184
0	35512	322.845392063253	1.7845429213164
0	35709	324.629934984569	0.04670886967128
0	35716	324.67664385424	0.74612340991125
0	35812	325.422767264151	2.2431695087405
0	36035	327.665936772892	0.045417815400236
0	36051	327.711354588292	0.82070880357203
0	36119	328.532063391864	0.12991600010635
0	36130	328.66197939197	0.64783754629536
0	36215	329.309816938265	7.9100369655193
0	36984	337.219853903784	1.7342052251173
0	37180	338.954059128901	3.0134550029825
0	37489	341.967514131883	1.9135037991091
0	37682	343.881017930992	4.7194252507329
0	38175	348.600443181725	0.85801560932575
0	38221	349.458458791051	0.17113607353481
0	38259	349.629594864586	0.89695755456363
0	38357	350.52655241915	0.38392552967958
0	38401	350.91047794883	0.79629402237822
0	38472	351.706771971208	2.948641383086
0	38821	354.655413354294	0.49332716144908
0	38865	355.148740515743	1.1279950390427
0	39011	356.276735554786	0.69179945517638
0	39062	356.968535009962	0.19987733099766
0	39076	357.16841234096	1.7938791929823
0	39277	358.962291533942	0.72737736386363
0	39361	359.689668897806	0.75263616056346
0	39422	360.442305058369	1.0870689777905
0	39565	361.52937403616	0.91910222276393
0	39650	362.448476258924	3.7155865091994
0	40053	366.164062768123	3.158620377458
0	40482	369.322683145581	0.61866590824889
0	40531	369.94134905383	0.78813755022557
0	40604	370.729486604056	0.45505882854836
0	40670	371.184545432604	7.4476479574523
0	41457	378.632193390056	1.1192234034155
0	41596	379.751416793472	1.0434343152193
0	41690	380.794851108691	0.03538410623629
0	41696	380.830235214927	1.9578510586882
0	41913	382.788086273615	0.99574952553426
0	41996	383.783835799149	0.3664160052083
0	42024	384.150251804357	4.4896053085397
0	42526	388.639857112897	6.6788499340698
0	43239	395.318707046967	2.3311944802721
0	43540	397.649901527239	2.3071473248807
0	43756	399.95704885212	1.0995212545317
1	1028	10.010574276402	0.091877313933
1	1034	10.102451590335	0.053617766233
1	1040	10.156069356568	0.028378638995
1	1046	10.184447995563	0.00766668001
1	1048	10.192114675573	0.064142720722
1	1056	10.256257396295	0.084621135335
1	1061	10.34087853163	0.055226888005
1	1067	10.396105419635	0.088983540528
1	1075	10.485088960163	0.037090564454
1	1080	10.522179524617	0.033248399367
1	1085	10.555427923984	0.017682865997
1	1090	10.573110789981	0.061042144548
1	1095	10.634152934529	0.042313252423
1	1102	10.676466186952	0.017638663918
1	1107	10.69410485087	0.042664374588
1	1113	10.736769225458	0.070896638837
1	1119	10.807665864295	0.002271922392
1	1121	10.809937786687	0.048366334648
1	1130	10.858304121335	0.030189575336
1	1135	10.888493696671	0.013506164925
1	1140	10.901999861596	0.230294004075
1	1149	11.132293865671	0.002279328053
1	1151	11.134573193724	0.012855441994
1	1159	11.147428635718	0.082022005743
1	1164	11.229450641461	0.032051209305
1	1169	11.261501850766	0.15722781883
1	1176	11.418729669596	0.004106833777
1	1178	11.422836503373	0.022988095341
1	1187	11.445824598714	0.171155089687
1	1194	11.616979688401	0.090066065854
1	1200	11.707045754255	0.026176748095
1	1205	11.73322250235	0.155671619309
1	1213	11.888894121659	0.001547365326
1	1215	11.890441486985	0.054427468397
1	1223	11.944868955382	0.003884926625
1	1225	11.948753882007	0.034382226287
1	1235	11.983136108294	0.003868518558
1	1237	11.987004626852	0.02628995513
1	1245	12.013294581982	0.023364430888
1	1250	12.03665901287	0.128512779251
1	1256	12.165171792121	0.010199005064
1	1261	12.175370797185	0.036607458923
1	1266	12.211978256108	0.006899080948
1	1268	12.218877337056	0.05386301481
1	1276	12.272740351866	0.013479673308
1	1281	12.286220025174	0.02581482486
1	1286	12.312034850034	0.0261461602
1	1291	12.338181010234	0.086316063604
1	1297	12.424497073838	0.0036484229
1	1299	12.428145496738	0.105777442546
1	1308	12.533922939284	0.021196788223
1	1314	12.555119727507	0.01883096824
1	1319	12.573950695747	0.007988069734
1	1324	12.581938765481	0.089851237921
1	1330	12.671790003402	0.02395907257
1	1335	12.695749075972	0.037300639162
1	1340	12.733049715134	0.066884501194
1	1345	12.799934216328	0.004321979529
1	1347	12.804256195857	0.103683429057
1	1356	12.907939624914	0.079664903568
1	1362	12.987604528482	0.1325531794
1	1367	13.120157707882	0.021908818162
1	1372	13.142066526044	0.006024404724
1	1374	13.148090930768	0.049880843857
1	1382	13.197971774625	0.038244228857
1	1387	13.236216003482	0.015049197917
1	1392	13.251265201399	0.026685107466
1	1397	13.277950308865	0.019161853798
1	1403	13.297112162663	0.167338168473
1	1409	13.464450331136	0.003464960018
1	1411	13.467915291154	0.046394744425
1	1419	13.514310035579	0.01264685134
1	1424	13.526956886919	0.082983202669
1	1432	13.609940089588	0.000466428617
1	1434	13.610406518205	0.070012817514
1	1442	13.680419335719	0.023283777196
1	1447	13.703703112915	0.053254361216
1	1452	13.756957474131	0.130051793385
1	1458	13.887009267516	0.023727065245
1	1463	13.910736332761	0.021448272577
1	1468	13.932184605338	0.019091457049
1	1473	13.951276062387	0.027322106219
1	1479	13.978598168606	0.005798346543
1	1481	13.984396515149	0.010033086039
1	1489	13.994429601188	0.01848312428
1	1494	14.012912725468	0.012862157548
1	1499	14.025774883016	0.044415212203
1	1504	14.070190095219	0.092216824709
1	1510	14.162406919928	0.024605417183
1	1516	14.187012337111	0.018937017234
1	1521	14.205949354345	0.069444910612
1	1526	14.275394264957	0.000105319305
1	1528	14.275499584262	0.102110060776
1	1537	14.377609645038	0.035219881615
1	1542	14.412829526653	0.134500137821
1	1547	14.547329664474	0.141640742442
1	1553	14.688970406916	0.046126723752
1	1558	14.735097130668	0.038839196758
1	1564	14.773936327426	0.032540425307
1	1569	14.806476752733	0.006110050043
1	1571	14.812586802776	0.026465121174
1	1579	14.83905192395	0.023221366373
1	1584	14.862273290323	0.027409016882
1	1589	14.889682307205	0.005083491522
1	1591	14.894765798727	0.008226674349
1	1597	14.902992473076	0.081120631021
1	1606	14.984113104097	0.049526405077
1	1611	15.033639509174	0.030264374043
1	1616	15.063903883217	0.027164856643
1	1621	15.09106873986	0.044508304006
1	1626	15.135577043866	0.006102465887
1	1628	15.141679509753	0.047831590232
1	1637	15.189511099985	0.011318844003
1	1643	15.200829943988	0.107265403274
1	1649	15.308095347262	0.105555071651
1	1654	15.413650418913	0.032699717595
1	1659	15.446350136508	0.013307394441
1	1664	15.459657530949	0.020116240299
1	1670	15.479773771248	0.046837470909
1	1676	15.526611242157	0.06820337776
1	1682	15.594814619917	0.024733971369
1	1687	15.619548591286	0.109706725994
1	1692	15.72925531728	0.04372858932
1	1697	15.7729839066	0.040665150761
1	1702	15.813649057361	0.065247240324
1	1708	15.878896297685	0.045747882175
1	1713	15.92464417986	0.036399042408
1	1718	15.961043222268	0.010089339932
1	1723	15.9711325622	0.086531438539
1	1728	16.057664000739	0.041286539514
1	1733	16.098950540253	0.019680103291
1	1738	16.118630643544	0.018641178749
1	1743	16.137271822293	0.01878685501
1	1748	16.156058677303	0.001142178262
1	1750	16.157200855565	0.021932888316
1	1758	16.179133743881	0.034015696584
1	1763	16.213149440465	0.004997637798
1	1765	16.218147078263	0.016154196194
1	1773	16.234301274457	0.204723553542
1	1779	16.439024827999	0.126805437112
1	1785	16.565830265111	0.008942244827
1	1790	16.574772509938	0.03612224072
1	1795	16.610894750658	0.138122856605
1	1800	16.749017607263	0.025580459669
1	1805	16.774598066932	0.029516433363
1	1811	16.804114500295	0.007635673207
1	1816	16.811750173502	0.018363894192
1	1821	16.830114067694	0.057006820488
1	1826	16.887120888182	0.039796990661
1	1831	16.926917878843	0.084573099166
1	1837	17.011490978009	0.068613033418
1	1842	17.080104011427	0.003878948307
1	1844	17.083982959734	0.039467776046
1	1852	17.12345073578	0.04102225087
1	1857	17.16447298665	0.035739137605
1	1863	17.200212124255	0.047565339889
1	1868	17.247777464144	0.179198423484
1	1873	17.426975887628	0.001275314142
1	1875	17.42825120177	0.018992603962
1	1883	17.447243805732	0.000230196382
1	1885	17.447474002114	0.006701384372
1	1887	17.454175386486	0.057173994506
1	1898	17.511349380992	0.08212924599
1	1903	17.593478626982	0.09492640955
1	1909	17.688405036532	0.10486038214
1	1915	17.793265418672	0.006471147339
1	1917	17.799736566011	0.044479314563
1	1925	17.844215880574	0.150623620114
1	1930	17.994839500688	0.21196971979
1	1936	18.206809220478	0.0050531123
1	1938	18.211862332778	0.038242300011
1	1947	18.250104632789	0.025100499332
1	1952	18.275205132121	0.0217813411
1	1957	18.296986473221	0.000268022315
1	1959	18.297254495536	0.001682372371
1	1961	18.298936867907	0.015521087704
1	1969	18.314457955611	0.118703805056
1	1978	18.433161760667	0.139413151419
1	1984	18.572574912086	0.193007965891
1	1989	18.765582877977	0.01663809654
1	1996	18.782220974517	0.026886889754
1	2001	18.809107864271	0.010697291422
1	2006	18.819805155693	0.071806966621
1	2011	18.891612122314	0.032154804864
1	2016	18.923766927178	0.016231196984
1	2021	18.939998124162	0.071909711413
1	2026	19.011907835575	0.133550638006
1	2031	19.145458473581	0.002231115381
1	2033	19.147689588962	0.002830834955
1	2035	19.150520423917	0.01389317571
1	2044	19.164413599627	0.001933297481
1	2046	19.166346897108	0.123303225527
1	2058	19.289650122635	0.005508478633
1	2060	19.295158601268	0.014773936842
1	2068	19.30993253811	0.044462329751
1	2073	19.354394867861	0.045634225962
1	2078	19.400029093823	0.109130319323
1	2084	19.509159413146	0.209938038302
1	2089	19.719097451448	0.008439867683
1	2094	19.727537319131	0.143801489875
1	2100	19.871338809006	0.028591831137
1	2105	19.899930640143	0.063052942421
1	2112	19.962983582564	0.235124308227
1	2118	20.198107890791	0.011155092724
1	2123	20.209262983515	0.023987134409
1	2128	20.233250117924	0.134953324427
1	2134	20.368203442351	0.104561055426
1	2140	20.472764497777	0.026113669196
1	2145	20.498878166973	0.057941712637
1	2151	20.55681987961	0.010296756444
1	2156	20.567116636054	0.050516963656
1	2161	20.61763359971	0.011539740135
1	2167	20.629173339845	0.053912954748
1	2174	20.683086294593	0.059018728275
1	2179	20.742105022868	0.150851567342
1	2185	20.89295659021	0.021129161438
1	2190	20.914085751648	0.110813100524
1	2196	21.024898852172	0.032150703053
1	2201	21.057049555225	0.048603643927
1	2206	21.105653199152	0.009809811312
1	2211	21.115463010464	0.092779861063
1	2216	21.208242871527	0.0208158595
1	2221	21.229058731027	0.031864250367
1	2226	21.260922981394	0.025896500109
1	2232	21.286819481503	0.039266009763
1	2237	21.326085491266	0.01834433293
1	2242	21.344429824196	0.100586847553
1	2249	21.445016671749	0.029805208789
1	2254	21.474821880538	0.08029243754
1	2259	21.555114318078	0.05766267863
1	2264	21.612776996708	0.026226989764
1	2269	21.639003986472	0.000902874624
1	2271	21.639906861096	0.018121594486
1	2279	21.658028455582	0.001212487491
1	2281	21.659240943073	0.010310747621
1	2286	21.669551690694	0.022404921722
1	2294	21.691956612416	0.022228607006
1	2299	21.714185219422	0.067997702696
1	2304	21.782182922118	0.010745098583
1	2309	21.792928020701	0.01151990465
1	2314	21.804447925351	0.051901965748
1	2320	21.856349891099	0.023207740729
1	2325	21.879557631828	0.082145513028
1	2332	21.961703144856	0.040156230275
1	2337	22.001859375131	0.133883435463
1	2342	22.135742810594	0.002379283127
1	2344	22.138122093721	0.056956166063
1	2353	22.195078259784	0.029618683644
1	2359	22.224696943428	0.0258388713
1	2365	22.250535814728	0.018539212206
1	2370	22.269075026934	0.079886461581
1	2377	22.348961488515	0.013326943787
1	2382	22.362288432302	0.086883738947
1	2388	22.449172171249	0.109713465701
1	2393	22.55888563695	0.080723917956
1	2399	22.639609554906	0.015576328707
1	2404	22.655185883613	0.021347116009
1	2409	22.676532999622	0.015098373687
1	2414	22.691631373309	0.299511882649
1	2422	22.991143255958	0.016362936674
1	2427	23.007506192632	0.004586414538
1	2429	23.01209260717	0.037697343663
1	2437	23.049789950833	0.025994509787
1	2443	23.07578446062	0.056562297455
1	2448	23.132346758075	0.023142433561
1	2453	23.155489191636	0.015412687941
1	2458	23.170901879577	0.022696642812
1	2463	23.193598522389	0.045618294326
1	2468	23.239216816715	0.154939317612
1	2474	23.394156134327	0.053192796255
1	2479	23.447348930582	0.066215695582
1	2485	23.513564626164	0.099364469006
1	2490	23.61292909517	0.090733480255
1	2495	23.703662575425	0.01758766305
1	2500	23.721250238475	0.014801196814
1	2505	23.736051435289	0.083266378902
1	2510	23.819317814191	0.128292642611
1	2518	23.947610456802	0.062076224437
1	2525	24.009686681239	0.001153664176
1	2527	24.010840345415	0.023131403165
1	2535	24.03397174858	0.064963893994
1	2540	24.098935642574	0.075242548571
1	2545	24.174178191145	0.041092691965
1	2550	24.21527088311	0.032948716656
1	2556	24.248219599766	0.105085538738
1	2562	24.353305138504	0.019230692918
1	2567	24.372535831422	0.022556075655
1	2572	24.395091907077	0.08228524373
1	2577	24.477377150807	0.064866847491
1	2583	24.542243998298	0.066659226563
1	2588	24.608903224861	0.01524970745
1	2593	24.624152932311	0.027417043528
1	2600	24.651569975839	0.187393859876
1	2606	24.838963835715	0.06957160491
1	2611	24.908535440625	0.05556765753
1	2616	24.964103098155	0.008914323213
1	2621	24.973017421368	0.094937225011
1	2627	25.067954646379	0.1660547786
1	2632	25.234009424979	0.037322845012
1	2638	25.271332269991	0.117627278789
1	2644	25.38895954878	0.024344792769
1	2649	25.413304341549	0.001348784644
1	2651	25.414653126193	0.034932945212
1	2659	25.449586071405	0.007094683334
1	2661	25.456680754739	0.066668933464
1	2669	25.523349688203	0.043906710168
1	2674	25.567256398371	0.071742165949
1	2681	25.63899856432	0.07302377006
1	2686	25.71202233438	0.025667591239
1	2691	25.737689925619	0.124191501649
1	2696	25.861881427268	0.020175239802
1	2701	25.88205666707	0.055275058451
1	2706	25.937331725521	0.073740407858
1	2713	26.011072133379	0.138299578115
1	2718	26.149371711494	0.085296505862
1	2723	26.234668217356	0.055866414091
1	2728	26.290534631447	0.001597031644
1	2730	26.292131663091	0.036779528067
1	2738	26.328911191158	0.015000131092
1	2743	26.34391132225	0.023237764324
1	2748	26.367149086574	0.045141440289
1	2754	26.412290526863	0.033097816225
1	2759	26.445388343088	0.049114074941
1	2766	26.494502418029	0.019311767267
1	2771	26.513814185296	0.013449104913
1	2776	26.527263290209	0.044752031461
1	2781	26.57201532167	0.034702222564
1	2786	26.606717544234	0.037915258619
1	2791	26.644632802853	0.016786808454
1	2796	26.661419611307	0.005509315282
1	2798	26.666928926589	0.002855372471
1	2803	26.66978429906	0.021746794594
1	2811	26.691531093654	0.075459605888
1	2817	26.766990699542	0.176058490367
1	2826	26.943049189909	0.035564300701
1	2831	26.97861349061	0.002356574247
1	2833	26.980970064857	0.010856107687
1	2838	26.991826172544	0.025429448173
1	2846	27.017255620717	0.153580036742
1	2851	27.170835657459	0.00718034495
1	2853	27.178016002409	0.065428991638
1	2861	27.243444994047	0.018168530273
1	2866	27.26161352432	0.015692818858
1	2871	27.277306343178	0.072711191555
1	2876	27.350017534733	0.030513466716
1	2881	27.380531001449	0.090419275963
1	2886	27.470950277412	0.051312879004
1	2892	27.522263156416	0.169426312935
1	2898	27.691689469351	0.08414891941
1	2903	27.775838388761	0.073058525752
1	2908	27.848896914513	0.016801394538
1	2913	27.865698309051	0.07036817719
1	2920	27.936066486241	0.027944381644
1	2925	27.964010867885	0.166194848704
1	2931	28.130205716589	0.091864087818
1	2937	28.222069804407	0.017784170362
1	2942	28.239853974769	0.009444033985
1	2947	28.249298008754	0.085946723378
1	2952	28.335244732132	0.038184664227
1	2957	28.373429396359	0.146384732504
1	2962	28.519814128863	0.014750594971
1	2967	28.534564723834	0.093468814534
1	2973	28.628033538368	0.083494167578
1	2978	28.711527705946	0.091330967343
1	2985	28.802858673289	0.001076186915
1	2987	28.803934860204	0.164314283127
1	2999	28.968249143331	0.046719246784
1	3004	29.014968390115	0.026842437091
1	3009	29.041810827206	0.018347915634
1	3014	29.06015874284	0.065201172569
1	3019	29.125359915409	0.09239585217
1	3024	29.217755767579	0.018592833116
1	3030	29.236348600695	0.032675150651
1	3035	29.269023751346	0.101533186266
1	3041	29.370556937612	0.005107061401
1	3043	29.375663999013	0.038180682689
1	3052	29.413844681702	0.029070546101
1	3057	29.442915227803	0.004347414708
1	3059	29.447262642511	0.099345237563
1	3068	29.546607880074	0.039254551521
1	3073	29.585862431595	0.041846444477
1	3078	29.627708876072	0.220669840566
1	3087	29.848378716638	0.057597770767
1	3092	29.905976487405	0.051121940925
1	3097	29.95709842833	0.004512449954
1	3100	29.961610878284	0.024595319042
1	3108	29.986206197326	0.009250236202
1	3113	29.995456433528	0.044635412024
1	3118	30.040091845552	0.153701110258
1	3126	30.19379295581	0.023325693644
1	3131	30.217118649454	0.099399430251
1	3137	30.316518079705	0.012019748834
1	3142	30.328537828539	0.02531820818
1	3147	30.353856036719	0.034850881978
1	3152	30.388706918697	0.001094533147
1	3154	30.389801451844	0.059602657208
1	3162	30.449404109052	0.080515359786
1	3167	30.529919468838	0.065102010156
1	3172	30.595021478994	0.048387431649
1	3177	30.643408910643	0.048696244027
1	3182	30.69210515467	0.040111134816
1	3187	30.732216289486	0.011263310053
1	3192	30.743479599539	0.045245610002
1	3198	30.788725209541	0.075099308129
1	3205	30.86382451767	0.065602346534
1	3211	30.929426864204	0.023502405622
1	3216	30.952929269826	0.071662633287
1	3221	31.024591903113	0.045856769397
1	3227	31.07044867251	0.020007468987
1	3232	31.090456141497	0.175540648786
1	3241	31.265996790283	0.053389130227
1	3247	31.31938592051	0.003623013371
1	3249	31.323008933881	0.032925058778
1	3257	31.355933992659	0.226157292073
1	3262	31.582091284732	0.110933467643
1	3270	31.693024752375	0.021911484567
1	3275	31.714936236942	0.004649987085
1	3277	31.719586224027	0.010547087616
1	3285	31.730133311643	0.089625517502
1	3291	31.819758829145	0.060177490621
1	3297	31.879936319766	0.002270634964
1	3299	31.88220695473	0.011322191121
1	3304	31.893529145851	0.010284935724
1	3312	31.903814081575	0.181461636853
1	3318	32.085275718428	0.053110071568
1	3324	32.138385789996	0.0527229243
1	3329	32.191108714296	0.048149639477
1	3334	32.239258353773	0.127192332245
1	3339	32.366450686018	0.010327555276
1	3344	32.376778241294	0.040485046725
1	3349	32.417263288019	0.046386369239
1	3354	32.463649657258	0.122749914359
1	3360	32.586399571617	0.015128876487
1	3365	32.601528448104	0.032400597126
1	3370	32.63392904523	0.020909379004
1	3376	32.654838424234	0.004448701778
1	3378	32.659287126012	0.035378543002
1	3386	32.694665669014	0.024102770909
1	3391	32.718768439923	0.089488017451
1	3397	32.808256457374	0.017363433895
1	3402	32.825619891269	0.029395535656
1	3407	32.855015426925	0.029317793173
1	3412	32.884333220098	0.018439714179
1	3417	32.902772934277	0.080206803065
1	3423	32.982979737342	0.038135274358
1	3428	33.0211150117	0.118939874239
1	3434	33.140054885939	0.013791113601
1	3439	33.15384599954	0.05744940403
1	3444	33.21129540357	0.14912423983
1	3450	33.3604196434	0.003778780778
1	3452	33.364198424178	0.001425005992
1	3454	33.36562343017	0.049463467388
1	3465	33.415086897558	0.037023341918
1	3470	33.452110239476	0.07793341744
1	3476	33.530043656916	0.035788509906
1	3482	33.565832166822	0.205068103458
1	3489	33.77090027028	0.012402428712
1	3494	33.783302698992	0.008190500098
1	3499	33.79149319909	0.073192962255
1	3505	33.864686161345	0.056737556772
1	3511	33.921423718117	0.222511390268
1	3518	34.143935108385	0.05244560125
1	3524	34.196380709635	0.16777837146
1	3530	34.364159081095	0.085838256355
1	3536	34.44999733745	0.017788415291
1	3541	34.467785752741	0.011221385835
1	3547	34.479007138576	0.019795192898
1	3552	34.498802331474	0.222041312512
1	3559	34.720843643986	0.041589147563
1	3564	34.762432791549	0.036026937674
1	3569	34.798459729223	0.104708644261
1	3575	34.903168373484	0.006173062064
1	3577	34.909341435548	0.003451484159
1	3582	34.912792919707	0.039815017941
1	3590	34.952607937648	0.09190571311
1	3596	35.044513650758	0.004322916429
1	3598	35.048836567187	0.083618192776
1	3606	35.132454759963	0.004881679623
1	3608	35.137336439586	0.126958584851
1	3616	35.264295024437	0.007018421098
1	3618	35.271313445535	0.006994712844
1	3623	35.278308158379	0.030920153199
1	3631	35.309228311578	0.011883200257
1	3636	35.321111511835	0.039815044838
1	3641	35.360926556673	0.016539068297
1	3646	35.37746562497	0.040913162573
1	3651	35.418378787543	0.020781548837
1	3656	35.43916033638	0.071066614528
1	3661	35.510226950908	0.116337037476
1	3666	35.626563988384	0.008030868536
1	3671	35.63459485692	0.01339703224
1	3676	35.64799188916	0.058554601302
1	3681	35.706546490462	0.006627901904
1	3683	35.713174392366	0.003065179442
1	3688	35.716239571808	0.005616839527
1	3693	35.721856411335	0.040642590414
1	3701	35.762499001749	0.018725038479
1	3706	35.781224040228	0.184497635614
1	3713	35.965721675842	0.010346478405
1	3718	35.976068154247	0.054794606729
1	3723	36.030862760976	0.018116630944
1	3728	36.04897939192	0.031242116896
1	3734	36.080221508816	0.084311989448
1	3739	36.164533498264	0.040914254526
1	3744	36.20544775279	0.023985212099
1	3749	36.229432964889	0.182847683163
1	3756	36.412280648052	0.037090795061
1	3761	36.449371443113	0.015840180404
1	3766	36.465211623517	0.008286531401
1	3771	36.473498154918	0.036093197382
1	3777	36.5095913523	0.002150273818
1	3779	36.511741626118	0.025888744132
1	3787	36.53763037025	0.029549236788
1	3792	36.567179607038	0.00038331239
1	3794	36.567562919428	0.017877876118
1	3802	36.585440795546	0.173681175298
1	3807	36.759121970844	0.026345289643
1	3812	36.785467260487	0.024297128049
1	3817	36.809764388536	0.096440311279
1	3822	36.906204699815	0.017046248068
1	3827	36.923250947883	0.000536659021
1	3829	36.923787606904	0.027210101401
1	3838	36.950997708305	0.022568162083
1	3843	36.973565870388	0.004200985174
1	3845	36.977766855562	0.054649789715
1	3853	37.032416645277	0.004307769016
1	3855	37.036724414293	0.074994118415
1	3863	37.111718532708	0.007659113889
1	3868	37.119377646597	0.043748734145
1	3873	37.163126380742	0.019137810728
1	3879	37.18226419147	0.038708203934
1	3884	37.220972395404	0.011967092855
1	3889	37.232939488259	0.021433430407
1	3894	37.254372918666	0.039427906741
1	3899	37.293800825407	0.105253593143
1	3904	37.39905441855	0.013988883216
1	3909	37.413043301766	0.135540265198
1	3915	37.548583566964	0.148410307847
1	3922	37.696993874811	0.059529862496
1	3927	37.756523737307	0.027832089047
1	3932	37.784355826354	0.108521026457
1	3937	37.892876852811	0.00452039652
1	3940	37.897397249331	0.044602887494
1	3949	37.942000136825	0.025633513658
1	3954	37.967633650483	0.113320257485
1	3959	38.080953907968	0.031230570288
1	3964	38.112184478256	0.049059685186
1	3969	38.161244163442	0.013484472483
1	3975	38.174728635925	0.127467074105
1	3980	38.30219571003	0.040772992269
1	3985	38.342968702299	0.02411744878
1	3990	38.367086151079	0.012678154699
1	3995	38.379764305778	0.001064241484
1	3997	38.380828547262	0.15439866972
1	4006	38.535227216982	0.085973899438
1	4011	38.62120111642	0.018021687733
1	4016	38.639222804153	0.042545178399
1	4022	38.681767982552	0.015933037453
1	4027	38.697701020005	0.002247932783
1	4029	38.699948952788	0.115375779755
1	4037	38.815324732543	0.130796998774
1	4042	38.946121731317	0.012277070783
1	4047	38.9583988021	0.028817667752
1	4052	38.987216469852	0.233905381907
1	4059	39.221121851759	0.028929201923
1	4064	39.250051053682	0.025162455249
1	4069	39.275213508931	0.199861136394
1	4074	39.475074645325	0.003737982918
1	4076	39.478812628243	0.059027200081
1	4084	39.537839828324	0.028504190347
1	4089	39.566344018671	0.073128334644
1	4094	39.639472353315	0.091475941528
1	4099	39.730948294843	0.025912861792
1	4104	39.756861156635	0.000527820762
1	4106	39.757388977397	0.004906276153
1	4109	39.76229525355	0.038860335898
1	4121	39.801155589448	0.05480368303
1	4126	39.855959272478	0.002634519039
1	4128	39.858593791517	0.037498468742
1	4136	39.896092260259	0.026752622511
1	4141	39.92284488277	0.004024878941
1	4143	39.926869761711	7.4831195e-05
1	4145	39.926944592906	0.12555831192
1	4157	40.052502904826	0.002660385421
1	4159	40.055163290247	0.079474768778
1	4169	40.134638059025	0.080063150797
1	4174	40.214701209822	0.142095320252
1	4179	40.356796530074	0.006709311628
1	4181	40.363505841702	0.025671912527
1	4190	40.389177754229	0.041438816218
1	4197	40.430616570447	0.081755776363
1	4203	40.51237234681	0.070678613879
1	4208	40.583050960689	0.061172241452
1	4214	40.644223202141	0.006302125086
1	4216	40.650525327227	0.0221996405
1	4224	40.672724967727	0.01037919104
1	4229	40.683104158767	0.006883884465
1	4232	40.689988043232	0.002238801274
1	4237	40.692226844506	0.03866419924
1	4245	40.730891043746	0.193848648963
1	4252	40.924739692709	0.131048484573
1	4258	41.055788177282	0.064090559934
1	4263	41.119878737216	0.138371813162
1	4269	41.258250550378	0.007832373133
1	4274	41.266082923511	0.160818241364
1	4280	41.426901164875	0.041185516947
1	4285	41.468086681822	0.078015406918
1	4291	41.54610208874	0.012025341209
1	4296	41.558127429949	0.075285384034
1	4302	41.633412813983	0.09474668628
1	4307	41.728159500263	0.016716799264
1	4312	41.744876299527	0.141007282907
1	4318	41.885883582434	0.028587953759
1	4323	41.914471536193	0.076812487937
1	4328	41.99128402413	0.122289141106
1	4335	42.113573165236	0.042333682707
1	4342	42.155906847943	0.017061871224
1	4349	42.172968719167	0.05185376173
1	4356	42.224822480897	0.011725173966
1	4361	42.236547654863	0.043103697697
1	4366	42.27965135256	0.011734452364
1	4371	42.291385804924	0.043066427322
1	4376	42.334452232246	0.026539237947
1	4381	42.360991470193	0.027252206566
1	4386	42.388243676759	0.00555446303
1	4388	42.393798139789	0.011969468424
1	4396	42.405767608213	0.025461830248
1	4401	42.431229438461	0.062668747617
1	4406	42.493898186078	0.008421223388
1	4412	42.502319409466	0.006896377949
1	4414	42.509215787415	0.029786110401
1	4422	42.539001897816	0.041955552929
1	4429	42.580957450745	0.015648391316
1	4434	42.596605842061	0.007081066928
1	4436	42.603686908989	0.108283334349
1	4444	42.711970243338	0.008701218416
1	4449	42.720671461754	0.005667397385
1	4451	42.726338859139	0.007802541001
1	4456	42.73414140014	0.125615613523
1	4466	42.859757013663	0.061643796474
1	4471	42.921400810137	0.001917415149
1	4473	42.923318225286	0.004037978172
1	4475	42.927356203458	0.074319816122
1	4486	43.00167601958	0.070453036551
1	4492	43.072129056131	0.000743481488
1	4494	43.072872537619	0.003137281967
1	4497	43.076009819586	0.01562007153
1	4505	43.091629891116	0.008501995121
1	4510	43.100131886237	0.054955964532
1	4520	43.155087850769	0.052449641238
1	4525	43.207537492007	0.100335333896
1	4531	43.307872825903	0.035149971916
1	4537	43.343022797819	0.00594401671
1	4539	43.348966814529	0.000109631881
1	4541	43.34907644641	0.033547767641
1	4552	43.382624214051	0.068092734324
1	4557	43.450716948375	0.009289889381
1	4562	43.460006837756	0.01475628274
1	4567	43.474763120496	0.044098500211
1	4572	43.518861620707	0.069888682555
1	4578	43.588750303262	0.026334420941
1	4583	43.615084724203	0.012654831734
1	4589	43.627739555937	0.006906492675
1	4591	43.634646048612	0.00892132705
1	4599	43.643567375662	0.038538617015
1	4605	43.682105992677	0.019488407068
1	4610	43.701594399745	0.032310051349
1	4615	43.733904451094	0.032417569033
1	4620	43.766322020127	0.020016685307
1	4626	43.786338705434	0.092543222913
1	4632	43.878881928347	0.032721973063
1	4637	43.91160390141	0.012734059673
1	4642	43.924337961083	0.047399621874
1	4648	43.971737582957	0.098603555239
1	4653	44.070341138196	0.073529920139
1	4660	44.143871058335	0.052086093326
1	4667	44.195957151661	0.064478396271
1	4673	44.260435547932	0.052996942563
1	4679	44.313432490495	0.115823089445
1	4686	44.42925557994	0.100101411417
1	4691	44.529356991357	0.049367239877
1	4696	44.578724231234	0.077251466279
1	4701	44.655975697513	0.014707621428
1	4706	44.670683318941	0.052262783006
1	4713	44.722946101947	0.010425742463
1	4718	44.73337184441	0.013364686487
1	4723	44.746736530897	0.019828979645
1	4728	44.766565510542	0.009458901272
1	4733	44.776024411814	0.01226568975
1	4738	44.788290101564	0.063169702949
1	4743	44.851459804513	0.007270882799
1	4746	44.858730687312	0.012225467177
1	4754	44.870956154489	0.06666181223
1	4760	44.937617966719	0.025289385522
1	4765	44.962907352241	0.041987368979
1	4771	45.00489472122	0.04241888716
1	4777	45.04731360838	0.017251596614
1	4782	45.064565204994	0.009821835953
1	4787	45.074387040947	0.068705232496
1	4792	45.143092273443	0.024702130197
1	4797	45.16779440364	0.143653305019
1	4804	45.311447708659	0.106888728181
1	4810	45.41833643684	0.047495928282
1	4816	45.465832365122	0.015103161407
1	4821	45.480935526529	0.032182407876
1	4826	45.513117934405	0.014350809032
1	4831	45.527468743437	0.032865086238
1	4836	45.560333829675	0.170848419575
1	4841	45.73118224925	0.145764887578
1	4846	45.876947136828	0.044246185054
1	4852	45.921193321882	0.003983777367
1	4854	45.925177099249	0.005008548472
1	4859	45.930185647721	0.033404950027
1	4867	45.963590597748	0.103438665514
1	4873	46.067029263262	0.021439684879
1	4878	46.088468948141	0.011702736181
1	4883	46.100171684322	0.025689988057
1	4889	46.125861672379	0.096374169903
1	4894	46.222235842282	0.001169231266
1	4896	46.223405073548	0.006905234663
1	4901	46.230310308211	0.104574941586
1	4910	46.334885249797	0.064219781447
1	4916	46.399105031244	0.126728818132
1	4922	46.525833849376	0.095945935429
1	4929	46.621779784805	0.010358814159
1	4934	46.632138598964	0.053758465842
1	4940	46.685897064806	0.068823830076
1	4945	46.754720894882	0.018628753968
1	4950	46.77334964885	0.008422341641
1	4955	46.781771990491	0.040689880136
1	4960	46.822461870627	0.100685122195
1	4966	46.923146992822	0.015831709984
1	4971	46.938978702806	0.009124270066
1	4976	46.948102972872	0.037132994177
1	4981	46.985235967049	0.027476657728
1	4986	47.012712624777	0.042811641043
1	4991	47.05552426582	0.036315640852
1	4996	47.091839906672	0.068250773237
1	5002	47.160090679909	0.006266539341
1	5004	47.16635721925	0.011615245826
1	5012	47.177972465076	0.157012033428
1	5019	47.334984498504	0.02564585999
1	5024	47.360630358494	0.028897670594
1	5029	47.389528029088	0.015639504835
1	5034	47.405167533923	0.027320616584
1	5039	47.432488150507	0.026772913345
1	5044	47.459261063852	0.092272517818
1	5049	47.55153358167	0.011532071588
1	5054	47.563065653258	0.004537984772
1	5056	47.56760363803	0.04584513313
1	5064	47.61344877116	0.050691053292
1	5069	47.664139824452	0.086235981101
1	5074	47.750375805553	0.112803532991
1	5081	47.863179338544	0.026127131169
1	5086	47.889306469713	0.169171279954
1	5092	48.058477749667	0.121281589185
1	5098	48.179759338852	0.017002561171
1	5103	48.196761900023	0.081687473282
1	5108	48.278449373305	0.007464029798
1	5110	48.285913403103	0.00461738384
1	5115	48.290530786943	0.022977997958
1	5123	48.313508784901	0.01426199918
1	5128	48.327770784081	0.023789801657
1	5133	48.351560585738	0.023412493949
1	5138	48.374973079687	0.01418825894
1	5143	48.389161338627	0.034908000247
1	5148	48.424069338874	0.015399708092
1	5153	48.439469046966	0.072509307479
1	5158	48.511978354445	0.021893202509
1	5163	48.533871556954	0.000198561132
1	5165	48.534070118086	0.007863644855
1	5170	48.541933762941	0.011868227993
1	5175	48.553801990934	0.001966124511
1	5177	48.555768115445	0.015475467011
1	5185	48.571243582456	0.01867643333
1	5193	48.589920015786	0.003935754338
1	5195	48.593855770124	0.01871411936
1	5203	48.612569889484	0.029581172914
1	5208	48.642151062398	0.109469703514
1	5213	48.751620765912	0.012519589386
1	5218	48.764140355298	0.129535635534
1	5224	48.893675990832	0.036035271363
1	5229	48.929711262195	0.012046179431
1	5235	48.941757441626	0.051592630576
1	5240	48.993350072202	0.047067542296
1	5247	49.040417614498	0.105048846277
1	5254	49.145466460775	0.002185653248
1	5256	49.147652114023	0.024863953497
1	5264	49.17251606752	0.04274419755
1	5269	49.21526026507	0.06840090445
1	5275	49.28366116952	0.051094435807
1	5281	49.334755605327	0.017986424884
1	5286	49.352742030211	0.003867672104
1	5288	49.356609702315	0.122790885884
1	5297	49.479400588199	0.049893615976
1	5302	49.529294204175	0.058520063144
1	5308	49.587814267319	0.001570948586
1	5310	49.589385215905	0.134092907899
1	5318	49.723478123804	0.043968996721
1	5323	49.767447120525	0.081565914822
1	5329	49.849013035347	0.010856961624
1	5334	49.859869996971	0.028970814896
1	5339	49.888840811867	0.016870452188
1	5344	49.905711264055	0.092568369624
1	5349	49.998279633679	0.197921086524
1	5355	50.196200720203	0.195108365705
1	5360	50.391309085908	0.079876014056
1	5365	50.471185099964	0.016141074839
1	5370	50.487326174803	0.055836431696
1	5377	50.543162606499	0.112138284535
1	5383	50.655300891034	0.040388661142
1	5388	50.695689552176	0.094147354901
1	5393	50.789836907077	0.010707224676
1	5399	50.800544131753	0.065755401618
1	5405	50.866299533371	0.032338552271
1	5410	50.898638085642	0.038295736756
1	5416	50.936933822398	0.062167848245
1	5421	50.999101670643	0.020734271389
1	5427	51.019835942032	0.079795000741
1	5432	51.099630942773	0.036500954
1	5437	51.136131896773	0.011233654297
1	5442	51.14736555107	0.052167200887
1	5447	51.199532751957	0.021889953533
1	5453	51.22142270549	0.099914808754
1	5460	51.321337514244	0.045158984608
1	5466	51.366496498852	0.00674807749
1	5468	51.373244576342	0.002088692716
1	5473	51.375333269058	0.002030910763
1	5475	51.377364179821	0.003278626378
1	5477	51.380642806199	0.07879251862
1	5491	51.459435324819	0.011038219922
1	5496	51.470473544741	0.016892097669
1	5501	51.48736564241	0.079692727614
1	5506	51.567058370024	0.053446306423
1	5511	51.620504676447	0.005629549832
1	5513	51.626134226279	0.040673912364
1	5522	51.666808138643	0.06930580181
1	5527	51.736113940453	0.031903935564
1	5534	51.768017876017	0.124171477582
1	5540	51.892189353599	0.068119857975
1	5545	51.960309211574	0.008260583179
1	5550	51.968569794753	0.072071482499
1	5556	52.040641277252	0.013594668401
1	5561	52.054235945653	0.052391818835
1	5567	52.106627764488	0.007220653319
1	5569	52.113848417807	0.047270394164
1	5577	52.161118811971	0.115144396243
1	5583	52.276263208214	0.036797162756
1	5588	52.31306037097	0.081214239355
1	5593	52.394274610325	0.058179566836
1	5598	52.452454177161	0.006870610881
1	5600	52.459324788042	0.025317976947
1	5610	52.484642764989	0.144994981201
1	5615	52.62963774619	0.031056831508
1	5621	52.660694577698	0.031591127983
1	5627	52.692285705681	0.016478079636
1	5632	52.708763785317	0.041938837261
1	5637	52.750702622578	0.139774916367
1	5644	52.890477538945	0.068654244231
1	5649	52.959131783176	0.037915933866
1	5654	52.997047717042	0.063989658098
1	5659	53.06103737514	0.019610350881
1	5664	53.080647726021	0.056367676821
1	5669	53.137015402842	0.000142147103
1	5671	53.137157549945	0.025460645893
1	5679	53.162618195838	0.073114397111
1	5684	53.235732592949	0.020131457107
1	5689	53.255864050056	0.086846905631
1	5694	53.342710955687	0.003964753713
1	5696	53.3466757094	0.008693990124
1	5701	53.355369699524	0.005727371901
1	5706	53.361097071425	0.241491133401
1	5715	53.602588204826	0.05849659001
1	5720	53.661084794836	0.019359260458
1	5725	53.680444055294	0.023693576238
1	5730	53.704137631532	0.074795529481
1	5735	53.778933161013	0.054465321682
1	5740	53.833398482695	0.001830920082
1	5742	53.835229402777	0.000502382986
1	5744	53.835731785763	0.033806209414
1	5756	53.869537995177	0.012759007729
1	5761	53.882297002906	0.009623163842
1	5766	53.891920166748	0.05329631876
1	5772	53.945216485508	0.039356504274
1	5777	53.984572989782	0.024459202897
1	5782	54.009032192679	0.022370630222
1	5788	54.031402822901	0.028327967972
1	5793	54.059730790873	0.037406078549
1	5798	54.097136869422	0.041368198649
1	5803	54.138505068071	0.022312616907
1	5808	54.160817684978	0.029650552846
1	5814	54.190468237824	0.143854913884
1	5820	54.334323151708	0.075953808234
1	5825	54.410276959942	0.003069775207
1	5827	54.413346735149	0.043869961697
1	5835	54.457216696846	0.092009320928
1	5840	54.549226017774	0.046993503258
1	5845	54.596219521032	0.080835435374
1	5850	54.677054956406	0.006833500572
1	5852	54.683888456978	0.038919448947
1	5860	54.722807905925	0.021743125999
1	5865	54.744551031924	0.022274932812
1	5870	54.766825964736	0.002381052166
1	5872	54.769207016902	0.020758002747
1	5880	54.789965019649	0.101968877414
1	5887	54.891933897063	0.265562460942
1	5892	55.157496358005	0.143462336258
1	5899	55.300958694263	0.241633207504
1	5906	55.542591901767	0.031414284886
1	5911	55.574006186653	0.025299228746
1	5916	55.599305415399	0.033574816985
1	5922	55.632880232384	0.043176787213
1	5927	55.676057019597	0.094278303083
1	5932	55.77033532268	0.002761066876
1	5934	55.773096389556	0.0075944907
1	5939	55.780690880256	0.007485433248
1	5944	55.788176313504	0.009431238414
1	5949	55.797607551918	0.033496173149
1	5958	55.831103725067	0.041674324296
1	5963	55.872778049363	0.071122409714
1	5969	55.943900459077	0.028029119681
1	5974	55.971929578758	0.013831948612
1	5979	55.98576152737	0.100392057345
1	5986	56.086153584715	0.00460180103
1	5988	56.090755385745	0.020811096745
1	5996	56.11156648249	0.050273663026
1	6001	56.161840145516	0.011204886885
1	6006	56.173045032401	0.181317789945
1	6012	56.354362822346	0.053166615586
1	6018	56.407529437932	0.027607071979
1	6023	56.435136509911	0.096123604902
1	6028	56.531260114813	0.091096375796
1	6033	56.622356490609	0.041763121105
1	6039	56.664119611714	0.102851368474
1	6044	56.766970980188	0.02376631489
1	6049	56.790737295078	0.091830803254
1	6056	56.882568098332	0.04332221109
1	6061	56.925890309422	0.0626906623
1	6066	56.988580971722	0.034736585043
1	6071	57.023317556765	0.027513621414
1	6076	57.050831178179	0.072351047379
1	6081	57.123182225558	0.0341601671
1	6087	57.157342392658	0.018182527595
1	6092	57.175524920253	0.023679594175
1	6097	57.199204514428	0.007631939582
1	6103	57.20683645401	0.00478581259
1	6105	57.2116222666	0.033433422084
1	6113	57.245055688684	0.035875122665
1	6120	57.280930811349	3.0863274e-05
1	6122	57.280961674623	0.125474296663
1	6132	57.406435971286	0.026198447828
1	6137	57.432634419114	0.016225730507
1	6142	57.448860149621	0.004899269497
1	6146	57.453759419118	0.036531108705
1	6154	57.490290527823	0.014808788173
1	6160	57.505099315996	0.128924203342
1	6165	57.634023519338	0.014165222054
1	6170	57.648188741392	0.018854007208
1	6175	57.6670427486	0.036922236181
1	6180	57.703964984781	0.050290772927
1	6187	57.754255757708	0.019771511591
1	6192	57.774027269299	0.000717738096
1	6194	57.774745007395	0.082447554018
1	6204	57.857192561413	0.083799592298
1	6209	57.940992153711	0.017142790289
1	6214	57.958134944	0.02210898934
1	6219	57.98024393334	0.067910360916
1	6224	58.048154294256	0.033751789146
1	6229	58.081906083402	0.029455610915
1	6234	58.111361694317	0.017405315746
1	6239	58.128767010063	0.050220763668
1	6245	58.178987773731	0.076061740977
1	6251	58.255049514708	0.012843761435
1	6256	58.267893276143	0.027959019902
1	6261	58.295852296045	0.034134917689
1	6267	58.329987213734	0.0591299253
1	6272	58.389117139034	0.143019994736
1	6280	58.53213713377	0.014946946325
1	6285	58.547084080095	0.001908306051
1	6287	58.548992386146	0.053240535452
1	6296	58.602232921598	0.052954619483
1	6301	58.655187541081	0.008276677537
1	6306	58.663464218618	0.003268544373
1	6308	58.666732762991	0.015926221129
1	6316	58.68265898412	0.076870216535
1	6323	58.759529200655	0.052560112724
1	6329	58.812089313379	0.061039234856
1	6335	58.873128548235	0.023326026009
1	6340	58.896454574244	0.037174783719
1	6346	58.933629357963	0.021270513326
1	6351	58.954899871289	0.00537183805
1	6353	58.960271709339	0.027322130628
1	6361	58.987593839967	0.047600584798
1	6366	59.035194424765	0.015360282393
1	6372	59.050554707158	0.252391581368
1	6379	59.302946288526	0.021886577713
1	6384	59.324832866239	0.078092599963
1	6389	59.402925466202	0.010221084233
1	6394	59.413146550435	0.01035565477
1	6400	59.423502205205	0.049630901463
1	6405	59.473133106668	0.009706763901
1	6410	59.482839870569	0.030172156617
1	6415	59.513012027186	0.101900471919
1	6420	59.614912499105	0.017314501826
1	6425	59.632227000931	0.045858367874
1	6430	59.678085368805	0.00616061543
1	6432	59.684245984235	0.058677746931
1	6440	59.742923731166	0.014106878574
1	6446	59.75703060974	0.006618012169
1	6448	59.763648621909	0.014648126403
1	6456	59.778296748312	0.076593506634
1	6461	59.854890254946	0.07377016404
1	6466	59.928660418986	0.053133034229
1	6472	59.981793453215	0.073132482661
1	6477	60.054925935876	0.009677314249
1	6483	60.064603250125	0.001106822706
1	6485	60.065710072831	0.270693595731
1	6495	60.336403668562	0.075467296081
1	6500	60.411870964643	0.054215054304
1	6505	60.466086018947	0.017674266204
1	6510	60.483760285151	0.010371376068
1	6515	60.494131661219	0.045730801117
1	6520	60.539862462336	0.158353771757
1	6527	60.698216234093	0.003895081146
1	6529	60.702111315239	0.041657876638
1	6537	60.743769191877	0.126653464764
1	6544	60.870422656641	0.013670178652
1	6549	60.884092835293	0.101116469297
1	6555	60.98520930459	0.024918104775
1	6560	61.010127409365	0.03002434433
1	6565	61.040151753695	0.05327852283
1	6570	61.093430276525	0.017131062552
1	6575	61.110561339077	0.02174821608
1	6580	61.132309555157	0.10995645613
1	6586	61.242266011287	0.066236403283
1	6591	61.30850241457	0.019224846186
1	6596	61.327727260756	0.002942675997
1	6598	61.330669936753	0.079208359683
1	6606	61.409878296436	0.059560657136
1	6612	61.469438953572	0.13949602806
1	6619	61.608934981632	0.053387397691
1	6624	61.662322379323	0.008074543625
1	6629	61.670396922948	0.008441571906
1	6634	61.678838494854	0.039116633016
1	6640	61.71795512787	0.053962968903
1	6648	61.771918096773	0.089271386471
1	6654	61.861189483244	0.013917670021
1	6659	61.875107153265	0.027200839642
1	6665	61.902307992907	0.007632191646
1	6667	61.909940184553	0.030561025128
1	6675	61.940501209681	0.028357099809
1	6680	61.96885830949	0.011337984267
1	6685	61.980196293757	0.00334073718
1	6687	61.983537030937	0.168951288604
1	6698	62.152488319541	0.010663447015
1	6703	62.163151766556	0.109344077871
1	6710	62.272495844427	0.055283359903
1	6715	62.32777920433	0.058984369131
1	6722	62.386763573461	0.002642925896
1	6724	62.389406499357	0.053886111955
1	6732	62.443292611312	0.013733743261
1	6737	62.457026354573	0.077524059986
1	6742	62.534550414559	0.068058080102
1	6747	62.602608494661	0.188597080894
1	6753	62.791205575555	0.016953059054
1	6758	62.808158634609	0.011365286901
1	6763	62.81952392151	0.051940827978
1	6768	62.871464749488	0.14444709053
1	6774	63.015911840018	0.027620947961
1	6779	63.043532787979	0.10304939715
1	6786	63.146582185129	0.033119758362
1	6792	63.179701943491	0.034169258409
1	6797	63.2138712019	0.022814303205
1	6802	63.236685505105	0.023772886394
1	6808	63.260458391499	0.043154207987
1	6813	63.303612599486	0.01573207337
1	6818	63.319344672856	0.000643202461
1	6820	63.319987875317	0.026442583018
1	6828	63.346430458335	0.010321667063
1	6833	63.356752125398	0.138445866167
1	6838	63.495197991565	0.014193202878
1	6843	63.509391194443	0.077229903444
1	6848	63.586621097887	0.007589081753
1	6850	63.59421017964	0.258858989742
1	6859	63.853069169382	0.039839192473
1	6865	63.892908361855	0.090805985404
1	6871	63.983714347259	0.113839580551
1	6877	64.09755392781	0.190417774583
1	6882	64.287971702393	0.02523954633
1	6887	64.313211248723	0.04415143023
1	6893	64.357362678953	0.147754131365
1	6898	64.505116810318	0.006606727145
1	6900	64.511723537463	0.078119554049
1	6909	64.589843091512	0.01278358043
1	6914	64.602626671942	0.021173264454
1	6920	64.623799936396	0.003718371266
1	6922	64.627518307662	0.03527258648
1	6930	64.662790894142	0.099813856438
1	6936	64.76260475058	0.084351113242
1	6942	64.846955863822	0.007489403628
1	6944	64.85444526745	0.128078817727
1	6952	64.982524085177	0.000184621299
1	6954	64.982708706476	0.099703859676
1	6963	65.082412566152	0.033084196319
1	6968	65.115496762471	0.005528400869
1	6970	65.12102516334	0.025010390569
1	6978	65.146035553909	0.092578459896
1	6985	65.238614013805	0.0132022157
1	6990	65.251816229505	0.069704065875
1	6995	65.32152029538	0.054272493206
1	7000	65.375792788586	0.12615594095
1	7006	65.501948729536	0.008163972363
1	7011	65.510112701899	0.068674723425
1	7018	65.578787425324	0.01692046729
1	7023	65.595707892614	0.012309166199
1	7029	65.608017058813	0.195021080107
1	7035	65.80303813892	0.026583489401
1	7040	65.829621628321	0.158925028877
1	7046	65.988546657198	0.063043668021
1	7051	66.051590325219	0.081037568474
1	7056	66.132627893693	0.131419902111
1	7061	66.264047795804	0.072882188447
1	7067	66.336929984251	0.015500751075
1	7072	66.352430735326	0.005028608406
1	7074	66.357459343732	0.068207214911
1	7084	66.425666558643	0.108332968051
1	7089	66.533999526694	0.023895060878
1	7094	66.557894587572	0.09122163348
1	7100	66.649116221052	0.058500373534
1	7105	66.707616594586	0.004681755383
1	7107	66.712298349969	0.00560972849
1	7112	66.717908078459	0.01857361534
1	7120	66.736481693799	0.052415737591
1	7125	66.78889743139	0.062390800376
1	7132	66.851288231766	0.001292656318
1	7134	66.852580888084	0.054416710843
1	7142	66.906997598927	0.081305103312
1	7147	66.988302702239	0.084769997034
1	7153	67.073072699273	0.031839448657
1	7158	67.10491214793	0.154610017685
1	7163	67.259522165615	0.067903631211
1	7169	67.327425796826	0.049515424112
1	7175	67.376941220938	0.045469175502
1	7180	67.42241039644	0.030986447736
1	7185	67.453396844176	0.021931120676
1	7190	67.475327964852	0.137075968502
1	7196	67.612403933354	0.052137333668
1	7201	67.664541267022	0.001533930399
1	7203	67.666075197421	0.050736082919
1	7211	67.71681128034	0.063417034555
1	7216	67.780228314895	0.004600608048
1	7218	67.784828922943	0.005737394128
1	7223	67.790566317071	0.04438984949
1	7231	67.834956166561	0.017066442415
1	7236	67.852022608976	0.253967873624
1	7241	68.1059904826	0.085410772048
1	7246	68.191401254648	0.033330110751
1	7252	68.224731365399	0.02657979195
1	7258	68.251311157349	0.094985624099
1	7264	68.346296781448	0.043317542666
1	7269	68.389614324114	0.116999437176
1	7274	68.50661376129	0.030823829991
1	7279	68.537437591281	0.003385913464
1	7281	68.540823504745	0.003622501091
1	7283	68.544446005836	0.021632160286
1	7294	68.566078166122	0.077788341336
1	7299	68.643866507458	0.064545550304
1	7304	68.708412057762	0.032012567101
1	7309	68.740424624863	0.025618244364
1	7314	68.766042869227	0.096743887851
1	7320	68.862786757078	0.003016190971
1	7322	68.865802948049	0.06337408907
1	7332	68.929177037119	0.001517328172
1	7334	68.930694365291	0.013928849139
1	7342	68.94462321443	0.013615071094
1	7347	68.958238285524	0.004975715725
1	7349	68.963214001249	0.125947321231
1	7358	69.08916132248	0.024714602508
1	7363	69.113875924988	0.058999910174
1	7368	69.172875835162	0.030592219981
1	7373	69.203468055143	0.062981032754
1	7378	69.266449087897	0.00416350195
1	7380	69.270612589847	0.026813852227
1	7388	69.297426442074	0.056612335197
1	7393	69.354038777271	0.000881891935
1	7395	69.354920669206	0.0185418683
1	7403	69.373462537506	0.044197845371
1	7408	69.417660382877	0.000224593535
1	7410	69.417884976412	0.083851522117
1	7418	69.501736498529	0.006833037066
1	7420	69.508569535595	0.030941009427
1	7428	69.539510545022	0.155628999653
1	7434	69.695139544675	0.123418258634
1	7440	69.818557803309	0.01045455593
1	7445	69.829012359239	0.002203302183
1	7447	69.831215661422	0.068720090941
1	7455	69.899935752363	0.051882106284
1	7460	69.951817858647	0.01387989763
1	7465	69.965697756277	0.172038969711
1	7473	70.137736725988	0.045668370096
1	7479	70.183405096084	0.025873547532
1	7484	70.209278643616	0.421912103362
1	7493	70.631190746978	0.029492191616
1	7498	70.660682938594	0.01647004246
1	7503	70.677152981054	0.006622628528
1	7505	70.683775609582	0.118822495539
1	7513	70.802598105121	0.00053539928
1	7515	70.803133504401	0.061737706589
1	7523	70.86487121099	0.011723199533
1	7528	70.876594410523	0.006410338311
1	7530	70.883004748834	0.009794176273
1	7538	70.892798925107	0.017667818287
1	7543	70.910466743394	0.01217882102
1	7548	70.922645564414	0.004112252161
1	7550	70.926757816575	0.009007369916
1	7555	70.935765186491	0.070553613951
1	7564	71.006318800442	0.043605422916
1	7569	71.049924223358	0.020572878343
1	7574	71.070497101701	0.011084857497
1	7579	71.081581959198	0.040886852503
1	7584	71.122468811701	0.040853390623
1	7589	71.163322202324	0.078731092613
1	7594	71.242053294937	0.011918953361
1	7599	71.253972248298	0.04735873809
1	7608	71.301330986388	0.157385513671
1	7613	71.458716500059	0.012920015509
1	7618	71.471636515568	0.115257924842
1	7623	71.58689444041	0.02740046889
1	7628	71.6142949093	0.013116985174
1	7633	71.627411894474	0.011115618548
1	7638	71.638527513022	0.109109590456
1	7645	71.747637103478	0.118251329054
1	7650	71.865888432532	0.073429258784
1	7655	71.939317691316	0.0394026818
1	7660	71.978720373116	0.175504665005
1	7666	72.154225038121	0.039548901515
1	7671	72.193773939636	0.032876747509
1	7676	72.226650687145	0.119938427724
1	7682	72.346589114869	0.011375761542
1	7687	72.357964876411	0.011715884207
1	7692	72.369680760618	0.000215890304
1	7694	72.369896650922	0.022096280276
1	7703	72.391992931198	0.004025084479
1	7705	72.396018015677	0.028108891235
1	7714	72.424126906912	0.054242917178
1	7720	72.47836982409	0.052904458752
1	7725	72.531274282842	0.00558749237
1	7728	72.536861775212	0.038435299188
1	7736	72.5752970744	0.119587189265
1	7744	72.694884263665	0.046610238424
1	7749	72.741494502089	0.001594811775
1	7751	72.743089313864	0.00067181851
1	7753	72.743761132374	0.053054948458
1	7764	72.796816080832	0.041595158816
1	7771	72.838411239648	0.026730963214
1	7776	72.865142202862	0.026466457343
1	7781	72.891608660205	0.001289750529
1	7783	72.892898410734	0.062895020535
1	7791	72.955793431269	0.005778192624
1	7793	72.961571623893	0.022877437002
1	7801	72.984449060895	0.005031748044
1	7803	72.989480808939	0.030639923761
1	7811	73.0201207327	0.039837807083
1	7816	73.059958539783	0.001923243236
1	7818	73.061881783019	0.119149824821
1	7828	73.18103160784	0.010098431752
1	7833	73.191130039592	0.007364746364
1	7835	73.198494785956	0.026789399821
1	7843	73.225284185777	0.081114657349
1	7848	73.306398843126	0.05873366836
1	7853	73.365132511486	0.140131910688
1	7859	73.505264422174	0.012950708179
1	7864	73.518215130353	0.041504705143
1	7869	73.559719835496	0.008122312115
1	7874	73.567842147611	0.002432823378
1	7876	73.570274970989	0.073657847258
1	7884	73.643932818247	0.030510638369
1	7889	73.674443456616	0.037753150376
1	7894	73.712196606992	0.000378139374
1	7896	73.712574746366	0.060977269817
1	7906	73.773552016183	0.060269168229
1	7911	73.833821184412	0.002049502031
1	7913	73.835870686443	0.000511657348
1	7915	73.836382343791	0.026585747932
1	7926	73.862968091723	0.007938755911
1	7928	73.870906847634	0.178759869005
1	7937	74.049666716639	0.006572638627
1	7939	74.056239355266	0.036413090098
1	7947	74.092652445364	0.100557858864
1	7952	74.193210304228	0.005129917964
1	7954	74.198340222192	0.013772495931
1	7962	74.212112718123	0.054020655386
1	7968	74.266133373509	0.068138825521
1	7974	74.33427219903	0.151518105576
1	7983	74.485790304606	0.006594538546
1	7985	74.492384843152	0.080347896361
1	7996	74.572732739513	0.011944669766
1	8001	74.584677409279	0.389082576341
1	8009	74.97375998562	0.089926687821
1	8016	75.063686673441	0.008705784206
1	8021	75.072392457647	0.08495198962
1	8026	75.157344447267	0.099911788503
1	8032	75.25725623577	0.040482928309
1	8037	75.297739164079	0.071018815037
1	8044	75.368757979116	0.013231616524
1	8049	75.38198959564	0.006436149211
1	8051	75.388425744851	0.064769626415
1	8060	75.453195371266	0.000461661869
1	8062	75.453657033135	0.061302495453
1	8071	75.514959528588	0.085691288393
1	8076	75.600650816981	0.034321225686
1	8081	75.634972042667	0.006160656159
1	8083	75.641132698826	0.005104747801
1	8088	75.646237446627	0.022328852495
1	8097	75.668566299122	0.007077006096
1	8099	75.675643305218	0.026130801283
1	8107	75.701774106501	0.067109000001
1	8112	75.768883106502	0.026590262269
1	8117	75.795473368771	0.09720880349
1	8123	75.892682172261	0.038611977652
1	8128	75.931294149913	0.006491421323
1	8130	75.937785571236	0.039247258275
1	8138	75.977032829511	0.09495945681
1	8143	76.071992286321	0.000439606178
1	8145	76.072431892499	0.070675179096
1	8155	76.143107071595	0.013891832618
1	8160	76.156998904213	0.015481273131
1	8165	76.172480177344	0.098108191884
1	8171	76.270588369228	0.026953527826
1	8176	76.297541897054	0.024361983687
1	8181	76.321903880741	0.01265181431
1	8186	76.334555695051	0.06151272403
1	8193	76.396068419081	0.018508540951
1	8198	76.414576960032	0.065236593
1	8204	76.479813553032	0.025307524034
1	8210	76.505121077066	0.064547366495
1	8216	76.569668443561	0.00474726173
1	8218	76.574415705291	0.010138698626
1	8223	76.584554403917	0.000423644636
1	8228	76.584978048553	0.001656674322
1	8230	76.586634722875	0.050344777965
1	8241	76.63697950084	0.000992449151
1	8243	76.637971949991	0.002481681437
1	8245	76.640453631428	0.030437433378
1	8256	76.670891064806	0.021151300007
1	8261	76.692042364813	0.011895240816
1	8266	76.703937605629	0.112486373821
1	8272	76.81642397945	0.036548680282
1	8278	76.852972659732	0.127896229196
1	8284	76.980868888928	0.000503878871
1	8286	76.981372767799	0.007823942705
1	8291	76.989196710504	0.008028624071
1	8296	76.997225334575	0.015273909775
1	8305	77.01249924435	0.000711687201
1	8307	77.013210931551	0.022208868936
1	8315	77.035419800487	0.088438858774
1	8320	77.123858659261	0.151403889236
1	8325	77.275262548497	0.02653513021
1	8330	77.301797678707	0.070281911027
1	8336	77.372079589734	0.033027350617
1	8341	77.405106940351	0.028995672421
1	8346	77.434102612772	0.007057872211
1	8348	77.441160484983	0.094754302226
1	8356	77.535914787209	0.060492261326
1	8361	77.596407048535	0.082861292337
1	8366	77.679268340872	0.227029130385
1	8372	77.906297471257	0.030719096694
1	8377	77.937016567951	0.006589890672
1	8379	77.943606458623	0.016437577793
1	8387	77.960044036416	0.05987970583
1	8393	78.019923742246	0.018844672735
1	8399	78.038768414981	0.039304114277
1	8404	78.078072529258	0.029796468967
1	8409	78.107868998225	0.025069930386
1	8414	78.132938928611	0.035995918285
1	8419	78.168934846896	0.040379464272
1	8424	78.209314311168	0.063183703842
1	8429	78.27249801501	0.02417493016
1	8435	78.29667294517	0.134749868286
1	8440	78.431422813456	0.006728529415
1	8442	78.438151342871	0.040938572557
1	8451	78.479089915428	0.061249477994
1	8456	78.540339393422	0.00495538858
1	8458	78.545294782002	0.047619283754
1	8466	78.592914065756	0.024102480773
1	8471	78.617016546529	0.01547065739
1	8476	78.632487203919	0.079401801793
1	8481	78.711889005712	0.027104344542
1	8486	78.738993350254	0.187202756442
1	8492	78.926196106696	0.082639475865
1	8497	79.008835582561	0.01133663746
1	8502	79.020172220021	0.031821037223
1	8507	79.051993257244	0.001665012326
1	8509	79.05365826957	0.040523832162
1	8517	79.094182101732	0.101258943833
1	8523	79.195441045565	0.026431092756
1	8528	79.221872138321	0.030781535356
1	8533	79.252653673677	0.033855483253
1	8538	79.28650915693	0.063808984313
1	8543	79.350318141243	0.022818422347
1	8548	79.37313656359	0.004550145178
1	8551	79.377686708768	0.097976455783
1	8559	79.475663164551	0.110815358598
1	8564	79.586478523149	0.121417218548
1	8571	79.707895741697	0.030484233231
1	8577	79.738379974928	0.03642992165
1	8582	79.774809896578	0.022962797226
1	8587	79.797772693804	0.020559425867
1	8592	79.818332119671	0.027666047982
1	8597	79.845998167653	0.075554894502
1	8603	79.921553062155	0.069638395824
1	8609	79.991191457979	0.035218970892
1	8615	80.026410428871	0.041263627833
1	8620	80.067674056704	0.012624750626
1	8625	80.08029880733	0.058556632606
1	8630	80.138855439936	0.033633698876
1	8635	80.172489138812	0.026732853181
1	8640	80.199221991993	0.019019906004
1	8645	80.218241897997	0.000860504372
1	8647	80.219102402369	0.075361924899
1	8655	80.294464327268	0.024081134291
1	8660	80.318545461559	0.008022584811
1	8665	80.32656804637	0.002961498623
1	8667	80.329529544993	0.037739804725
1	8675	80.367269349718	0.083390296961
1	8680	80.450659646679	0.01567285518
1	8685	80.466332501859	0.009295001988
1	8690	80.475627503847	0.022136767774
1	8695	80.497764271621	0.020166557162
1	8700	80.517930828783	0.051077177926
1	8705	80.569008006709	0.053152825553
1	8710	80.622160832262	0.015409619827
1	8715	80.637570452089	0.079375287578
1	8720	80.716945739667	0.046817080654
1	8726	80.763762820321	0.063982840751
1	8731	80.827745661072	0.036089324176
1	8736	80.863834985248	0.020976349703
1	8741	80.884811334951	0.020815005922
1	8746	80.905626340873	0.072235748261
1	8753	80.977862089134	0.005027628594
1	8756	80.982889717728	0.02707064116
1	8764	81.009960358888	0.095675313447
1	8769	81.105635672335	0.013751515688
1	8775	81.119387188023	0.042689649459
1	8780	81.162076837482	0.07749888517
1	8788	81.239575722652	0.002854693761
1	8790	81.242430416413	0.05838046743
1	8799	81.300810883843	0.07688688134
1	8804	81.377697765183	0.010026404326
1	8810	81.387724169509	0.007646177063
1	8815	81.395370346572	0.041321199074
1	8820	81.436691545646	0.00075705616
1	8822	81.437448601806	0.015706927211
1	8830	81.453155529017	0.010301302763
1	8835	81.46345683178	0.011240509795
1	8841	81.474697341575	0.016284647904
1	8846	81.490981989479	0.003997398748
1	8848	81.494979388227	0.056443369887
1	8856	81.551422758114	0.00108587648
1	8858	81.552508634594	0.031702301392
1	8866	81.584210935986	0.322145595295
1	8872	81.906356531281	0.008565769334
1	8877	81.914922300615	0.013451333005
1	8882	81.92837363362	0.096884380809
1	8888	82.025258014429	0.032518571117
1	8893	82.057776585546	0.024146587765
1	8899	82.081923173311	0.345134369055
1	8905	82.427057542366	0.049732510535
1	8911	82.476790052901	0.108982893504
1	8916	82.585772946405	0.114356093701
1	8922	82.700129040106	0.038246233
1	8927	82.738375273106	0.111859519863
1	8934	82.850234792969	0.019649582869
1	8939	82.869884375838	0.010232460892
1	8944	82.88011683673	0.044267806454
1	8951	82.924384643184	0.003730446413
1	8953	82.928115089597	0.022024037457
1	8961	82.950139127054	0.037185775713
1	8966	82.987324902767	0.027921941864
1	8971	83.015246844631	0.020719600198
1	8976	83.035966444829	0.00255794595
1	8978	83.038524390779	0.02947147049
1	8986	83.067995861269	0.081799228524
1	8991	83.149795089793	0.002315786374
1	8993	83.152110876167	0.005167063252
1	8995	83.157277939419	0.008019168524
1	9004	83.165297107943	0.033355165504
1	9012	83.198652273447	0.009725534111
1	9017	83.208377807558	0.022088006729
1	9022	83.230465814287	0.043553332327
1	9028	83.274019146614	0.032968385261
1	9033	83.306987531875	0.041736566416
1	9038	83.348724098291	0.000969290265
1	9040	83.349693388556	0.004137187651
1	9042	83.353830576207	0.003087275862
1	9047	83.356917852069	0.017643211376
1	9055	83.374561063445	0.116630876774
1	9064	83.491191940219	0.120365994762
1	9070	83.611557934981	0.065439770598
1	9076	83.676997705579	0.067148651796
1	9081	83.744146357375	0.022290230247
1	9086	83.766436587622	0.025391598201
1	9091	83.791828185823	0.04394124119
1	9096	83.835769427013	0.015935269131
1	9101	83.851704696144	0.022532540792
1	9106	83.874237236936	0.042785642295
1	9112	83.917022879231	0.007446712889
1	9114	83.92446959212	0.00160475744
1	9119	83.92607434956	0.008110480183
1	9124	83.934184829743	0.168545218332
1	9133	84.102730048075	0.004732038151
1	9135	84.107462086226	0.003114717519
1	9140	84.110576803745	0.067339532863
1	9148	84.177916336608	0.043286566911
1	9153	84.221202903519	0.005058074923
1	9155	84.226260978442	0.125159374708
1	9164	84.35142035315	0.012472519759
1	9169	84.363892872909	0.051307598538
1	9174	84.415200471447	0.021197157571
1	9180	84.436397629018	0.038860139377
1	9185	84.475257768395	0.016185666144
1	9190	84.491443434539	0.024733299152
1	9195	84.516176733691	0.039661088866
1	9200	84.555837822557	0.022979737209
1	9205	84.578817559766	0.001130263021
1	9207	84.579947822787	0.108116317437
1	9216	84.688064140224	0.036400864723
1	9222	84.724465004947	0.078444147442
1	9227	84.802909152389	0.042642444834
1	9232	84.845551597223	0.045857616197
1	9237	84.89140921342	0.158887536726
1	9242	85.050296750146	0.012542818217
1	9247	85.062839568363	0.004208321317
1	9249	85.06704788968	0.008037228835
1	9254	85.075085118515	0.006246470775
1	9259	85.08133158929	0.023916025997
1	9267	85.105247615287	0.025417798657
1	9272	85.130665413944	0.068728557887
1	9278	85.199393971831	0.035634529199
1	9283	85.23502850103	0.112200494779
1	9291	85.347228995809	0.005836856492
1	9293	85.353065852301	0.00511500452
1	9298	85.358180856821	0.112888163304
1	9306	85.471069020125	0.040458621907
1	9311	85.511527642032	0.01847481101
1	9317	85.530002453042	0.020560920935
1	9322	85.550563373977	0.089905043481
1	9329	85.640468417458	0.043316714028
1	9334	85.683785131486	0.047005419263
1	9340	85.730790550749	0.032128533109
1	9345	85.762919083858	0.103998337869
1	9351	85.866917421727	0.030628188693
1	9356	85.89754561042	0.025772977189
1	9362	85.923318587609	0.07984659261
1	9367	86.003165180219	0.045343571395
1	9373	86.048508751614	0.014457600517
1	9378	86.062966352131	0.056422943597
1	9385	86.119389295728	0.067187265491
1	9390	86.186576561219	0.168739053773
1	9396	86.355315614992	0.122264382224
1	9402	86.477579997216	0.067925037609
1	9407	86.545505034825	0.007691702978
1	9412	86.553196737803	0.002430399465
1	9414	86.555627137268	0.08495672307
1	9422	86.640583860338	0.071970760383
1	9428	86.712554620721	0.008848155058
1	9433	86.721402775779	0.03932990827
1	9439	86.760732684049	0.025818451596
1	9444	86.786551135645	0.010133933735
1	9449	86.79668506938	0.041908212186
1	9454	86.838593281566	0.105910061579
1	9460	86.944503343145	0.098305408113
1	9467	87.042808751258	0.205103378587
1	9472	87.247912129845	0.05687300302
1	9478	87.304785132865	0.072849166204
1	9484	87.377634299069	0.001237041724
1	9486	87.378871340793	0.059074729386
1	9494	87.437946070179	0.021082978898
1	9500	87.459029049077	0.009005553632
1	9505	87.468034602709	0.002124895915
1	9507	87.470159498624	0.022561076632
1	9515	87.492720575256	0.013140427834
1	9520	87.50586100309	0.137496331497
1	9525	87.643357334587	0.14852950641
1	9532	87.791886840997	0.007895780406
1	9537	87.799782621403	0.214105462688
1	9543	88.013888084091	0.025355493406
1	9548	88.039243577497	0.067993198183
1	9553	88.10723677568	0.031415289155
1	9558	88.138652064835	0.009253854619
1	9563	88.147905919454	0.136931618162
1	9569	88.284837537616	0.027008330817
1	9574	88.311845868433	0.04147504275
1	9579	88.353320911183	0.009319871489
1	9584	88.362640782672	0.039546985557
1	9589	88.402187768229	0.051992738364
1	9595	88.454180506593	0.022895497568
1	9600	88.477076004161	0.025982457503
1	9605	88.503058461664	0.122089000785
1	9611	88.625147462449	0.163176874805
1	9622	88.788324337254	0.007900491204
1	9627	88.796224828458	0.031393746827
1	9632	88.827618575285	0.002162226475
1	9634	88.82978080176	0.041724002178
1	9642	88.871504803938	0.040938408853
1	9647	88.912443212791	0.01756869364
1	9652	88.930011906431	0.017363585977
1	9657	88.947375492408	0.024035279841
1	9662	88.971410772249	0.032936525513
1	9667	89.004347297762	0.015520287835
1	9672	89.019867585597	0.010855945756
1	9677	89.030723531353	0.095993742191
1	9683	89.126717273544	0.003834750167
1	9685	89.130552023711	0.006614710724
1	9690	89.137166734435	0.050409467469
1	9699	89.187576201904	0.083475379833
1	9705	89.271051581737	0.034169756301
1	9710	89.305221338038	0.048714083384
1	9717	89.353935421422	0.080166665736
1	9724	89.434102087158	0.064545866466
1	9731	89.498647953624	0.006193831012
1	9733	89.504841784636	0.038113118509
1	9741	89.542954903145	0.023610670746
1	9747	89.566565573891	0.007712057589
1	9752	89.57427763148	0.04514904382
1	9757	89.6194266753	0.025865732641
1	9762	89.645292407941	0.020882787095
1	9768	89.666175195036	0.053163040654
1	9773	89.71933823569	0.130238300052
1	9780	89.849576535742	0.024995950545
1	9785	89.874572486287	0.00856120407
1	9790	89.883133690357	0.074673549772
1	9795	89.957807240129	0.040368338784
1	9800	89.998175578913	0.066347296877
1	9806	90.06452287579	0.074479922378
1	9813	90.139002798168	0.018981205671
1	9818	90.157984003839	0.004747672554
1	9820	90.162731676393	0.021784573144
1	9828	90.184516249537	0.011089748671
1	9833	90.195605998208	0.00569902658
1	9835	90.201305024788	0.011799598251
1	9843	90.213104623039	0.000193744693
1	9845	90.213298367732	0.040326059811
1	9853	90.253624427543	0.093226402047
1	9858	90.34685082959	0.043192130729
1	9863	90.390042960319	0.036426117843
1	9869	90.426469078162	0.001100858665
1	9872	90.427569936827	0.020570725277
1	9880	90.448140662104	0.065942526923
1	9886	90.514083189027	0.002188727688
1	9889	90.516271916715	0.078995558053
1	9898	90.595267474768	0.026596417364
1	9903	90.621863892132	0.002885621985
1	9905	90.624749514117	0.005117522342
1	9907	90.629867036459	0.016701988118
1	9918	90.646569024577	0.184727314188
1	9925	90.831296338765	0.07471011428
1	9930	90.906006453045	0.139017774989
1	9937	91.045024228034	0.024051474676
1	9942	91.06907570271	0.081811867331
1	9948	91.150887570041	0.084009446961
1	9953	91.234897017002	0.300138855467
1	9961	91.535035872469	0.024426113147
1	9966	91.559461985616	0.042809160135
1	9971	91.602271145751	0.031305367952
1	9976	91.633576513703	0.258710288027
1	9982	91.89228680173	0.249536045054
1	9988	92.141822846784	0.025739134201
1	9994	92.167561980985	0.032935866471
1	9999	92.200497847456	0.006472891687
1	10001	92.206970739143	0.021620328823
1	10009	92.228591067966	0.011948937363
1	10014	92.240540005329	0.001835923415
1	10016	92.242375928744	0.089460320818
1	10024	92.331836249562	0.018298654069
1	10030	92.350134903631	0.161540178023
1	10037	92.511675081654	0.004311487256
1	10039	92.51598656891	0.034748230674
1	10047	92.550734799584	0.080124314271
1	10053	92.630859113855	0.129221828273
1	10059	92.760080942128	0.02910566272
1	10064	92.789186604848	0.021293604462
1	10069	92.81048020931	0.014678911823
1	10074	92.825159121133	0.007877709534
1	10076	92.833036830667	0.237290872165
1	10085	93.070327702832	0.001508304179
1	10087	93.071836007011	0.177433420677
1	10096	93.249269427688	0.066418914416
1	10101	93.315688342104	0.020144816982
1	10106	93.335833159086	0.0309282192
1	10111	93.366761378286	0.032964731123
1	10116	93.399726109409	0.053998801343
1	10122	93.453724910752	0.049267581477
1	10128	93.502992492229	0.056613109094
1	10133	93.559605601323	0.074042146937
1	10138	93.63364774826	0.007019466818
1	10140	93.640667215078	0.037751135038
1	10149	93.678418350116	0.01307320408
1	10154	93.691491554196	0.017779590148
1	10159	93.709271144344	0.013922186242
1	10164	93.723193330586	0.003789964463
1	10166	93.726983295049	0.063067357412
1	10175	93.790050652461	0.072010635599
1	10180	93.86206128806	0.073914307892
1	10187	93.935975595952	0.005220835649
1	10189	93.941196431601	0.06787929768
1	10197	94.009075729281	0.142692491991
1	10205	94.151768221272	0.050527832429
1	10210	94.202296053701	0.054237116412
1	10215	94.256533170113	0.001937907952
1	10217	94.258471078065	0.01054434828
1	10222	94.269015426345	0.007752123501
1	10227	94.276767549846	0.099468114267
1	10235	94.376235664113	0.021564675635
1	10240	94.397800339748	0.017869231437
1	10245	94.415669571185	0.033109408161
1	10251	94.448778979346	0.064926805816
1	10256	94.513705785162	0.028135452901
1	10261	94.541841238063	0.000961045951
1	10263	94.542802284014	0.033972503533
1	10272	94.576774787547	0.00829827557
1	10277	94.585073063117	0.032939324286
1	10282	94.618012387403	0.002034668098
1	10284	94.620047055501	0.047853573679
1	10292	94.66790062918	0.166810362925
1	10303	94.834710992105	0.028789184968
1	10308	94.863500177073	0.11947291303
1	10313	94.982973090103	0.01100195578
1	10318	94.993975045883	0.074926465852
1	10325	95.068901511735	0.159652571682
1	10330	95.228554083417	0.097320805115
1	10336	95.325874888532	0.048498950541
1	10343	95.374373839073	0.013990778818
1	10348	95.388364617891	0.100920585746
1	10353	95.489285203637	0.004540956492
1	10355	95.493826160129	0.007364715676
1	10360	95.501190875805	0.062844664418
1	10370	95.564035540223	0.021175843521
1	10375	95.585211383744	0.008339879017
1	10380	95.593551262761	0.050717038765
1	10385	95.644268301526	0.004914953448
1	10387	95.649183254974	0.024905172076
1	10395	95.67408842705	0.184450664892
1	10402	95.858539091942	0.01128676792
1	10408	95.869825859862	0.067096163215
1	10413	95.936922023077	0.000242881094
1	10415	95.937164904171	0.048310286764
1	10423	95.985475190935	0.038156477044
1	10428	96.023631667979	0.054989925555
1	10433	96.078621593534	0.003985139625
1	10435	96.082606733159	0.019833807463
1	10444	96.102440540622	0.03244165667
1	10449	96.134882197292	0.027241887153
1	10454	96.162124084445	0.009408870948
1	10459	96.171532955393	0.034867451196
1	10464	96.206400406589	0.002361866022
1	10466	96.208762272611	0.0438083561
1	10475	96.252570628711	0.026276662929
1	10481	96.27884729164	0.071744362001
1	10486	96.350591653641	0.091207602243
1	10492	96.441799255884	0.020320900837
1	10497	96.462120156721	0.017092700036
1	10502	96.479212856757	0.051564986124
1	10508	96.530777842881	0.009820418309
1	10513	96.54059826119	0.057926154555
1	10519	96.598524415745	0.012730766269
1	10524	96.611255182014	0.078154127376
1	10529	96.68940930939	0.12448649856
1	10536	96.81389580795	0.001347805848
1	10538	96.815243613798	0.012361626037
1	10544	96.827605239835	0.051101437592
1	10553	96.878706677427	0.006224252996
1	10555	96.884930930423	0.102588976849
1	10564	96.987519907272	0.029412015067
1	10569	97.016931922339	0.189947580218
1	10576	97.206879502557	0.055196734984
1	10581	97.262076237541	0.030874678729
1	10587	97.29295091627	0.158608216383
1	10594	97.451559132653	0.003459724103
1	10596	97.455018856756	0.111557938582
1	10604	97.566576795338	0.036030957488
1	10609	97.602607752826	0.006708529569
1	10611	97.609316282395	0.047862521628
1	10620	97.657178804023	0.000969941045
1	10622	97.658148745068	0.103083475169
1	10632	97.761232220237	0.100541545654
1	10638	97.861773765891	0.011473425995
1	10643	97.873247191886	0.009145745044
1	10648	97.88239293693	0.057060403046
1	10653	97.939453339976	0.066879038493
1	10659	98.006332378469	0.054968826109
1	10664	98.061301204578	0.037195909264
1	10669	98.098497113842	0.053753230291
1	10674	98.152250344133	0.031771999366
1	10679	98.184022343499	0.04179736851
1	10684	98.225819712009	0.089370502421
1	10689	98.31519021443	0.042876351077
1	10695	98.358066565507	0.039721212203
1	10700	98.39778777771	0.039913898246
1	10706	98.437701675956	0.030412119088
1	10711	98.468113795044	0.019275150249
1	10716	98.487388945293	0.048713377581
[...]
19	21857	199.245484606749	2.4213526158764
19	22097	201.666837222625	2.7458987703759
19	22338	204.412735993001	0.35448905916982
19	22380	204.767225052171	0.37374625566941
19	22428	205.14097130784	2.1593114031736
19	22629	207.300282711014	2.1009503585019
19	22845	209.401233069516	1.1866994098662
19	22948	210.587932479382	0.58173885932799
19	23057	211.16967133871	1.2580764008999
19	23230	212.42774773961	3.5306790361567
19	23622	215.958426775767	0.55142355685529
19	23691	216.509850332622	0.017255519591854
19	23692	216.527105852214	3.9009867661745
19	24111	220.428092618389	6.2400036197242
19	24801	226.668096238113	1.3934474125107
19	24926	228.061543650624	0.27936457803108
19	24968	228.340908228655	2.3245763609635
19	25227	230.665484589619	1.411019097789
19	25375	232.076503687408	8.2741126056566
19	26337	240.350616293065	0.32938027781818
19	26369	240.679996570883	1.0434668764378
19	26495	241.723463447321	0.32242495545294
19	26538	242.045888402774	0.1600830142437
19	26549	242.205971417018	0.062150805274734
19	26555	242.268122222293	0.73433369949473
19	26642	243.002455921788	1.4555951821031
19	26792	244.458051103891	0.52320118865059
19	26862	244.981252292542	0.50182449639061
19	26906	245.483076788933	2.7705994513112
19	27182	248.253676240244	4.7013042675548
19	27706	252.954980507799	0.24419275065962
19	27727	253.199173258459	0.080518476092997
19	27735	253.279691734552	0.0086747102957833
19	27739	253.288366444848	1.1938379680543
19	27920	254.482204412902	0.16389319284466
19	27942	254.646097605747	6.5428469223832
19	28674	261.18894452813	4.2488760339097
19	29113	265.43782056204	5.6086209592357
19	29842	271.046441521276	2.8398193828138
19	30130	273.88626090409	0.4801187781146
19	30181	274.366379682205	0.90407571609581
19	30288	275.270455398301	1.4250834079557
19	30459	276.695538806257	5.7925117058878
19	31079	282.488050512145	3.7810764832827
19	31494	286.269126995428	1.4535289340594
19	31635	287.722655929487	0.46378381570585
19	31672	288.186439745193	1.3744229123268
19	31789	289.56086265752	4.3267480597748
19	32324	293.887610717295	0.1361590949552
19	32345	294.02376981225	0.87983837190241
19	32461	294.903608184152	2.9412776760035
19	32779	297.844885860156	1.0380790068424
19	32904	298.882964866998	5.1848500214007
19	33485	304.067814888399	0.81090496007173
19	33612	304.878719848471	0.84008438184679
19	33715	305.718804230318	1.0624516825609
19	33848	306.781255912879	3.4921254293159
19	34175	310.273381342195	0.81092665786877
19	34257	311.084308000064	1.7234381696481
19	34483	312.807746169712	0.80879156055634
19	34548	313.616537730268	1.8869390891953
19	34742	315.503476819463	0.56720664820467
19	34780	316.070683467668	1.2952856260939
19	34923	317.365969093762	0.59257699304337
19	34982	317.958546086805	0.65605319566197
19	35059	318.614599282467	4.5263525755952
19	35547	323.140951858062	0.88416432952767
19	35621	324.02511618759	0.23850106144188
19	35669	324.263617249032	2.4922049979414
19	35938	326.755822246973	4.0258330740853
19	36364	330.781655321058	0.96640464798099
19	36481	331.748059969039	1.1270834847373
19	36583	332.875143453776	0.42144189347554
19	36625	333.296585347252	0.80935427719162
19	36713	334.105939624444	0.82870173296694
19	36793	334.934641357411	6.4893374946846
19	37423	341.423978852096	0.59535501906359
19	37491	342.01933387116	1.0361529273184
19	37606	343.055486798478	0.59093952562651
19	37661	343.646426324105	0.74770156174866
19	37731	344.394127885854	3.7982838575529
19	38129	348.192411743407	2.0624869284708
19	38326	350.254898671878	2.9626370628172
19	38648	353.217535734695	1.0909988195195
19	38784	354.308534554214	0.37071649822256
19	38823	354.679251052437	1.2292651936425
19	38966	355.908516246079	0.54604005345618
19	39032	356.454556299535	4.3730845748095
19	39455	360.827640874344	0.38736788924599
19	39527	361.21500876359	1.0124079908764
19	39621	362.227416754466	2.8599417159246
19	39943	365.087358470391	4.6573763052267
19	40519	369.744734775618	0.79516993783425
19	40575	370.539904713452	0.010906730075754
19	40578	370.550811443528	0.084561323284366
19	40587	370.635372766812	2.9673634475962
19	40915	373.602736214408	0.88756653611749
19	40970	374.490302750525	1.7307250888483
19	41195	376.221027839373	2.3894815786354
19	41446	378.610509418008	1.5718981327188
19	41639	380.182407550727	1.2424705402911
19	41784	381.424878091018	9.683213221438
19	42779	391.108091312456	1.2044549263671
19	42930	392.312546238823	1.8946741240821
19	43109	394.207220362905	7.7629949999712
20	1402	13.295284705776	2.1690279666369
20	1666	15.464312672413	0.13022666491011
20	1681	15.594539337323	0.27729655063785
20	1707	15.871835887961	4.485304534337
20	2133	20.357140422298	1.8636133152473
20	2358	22.220753737545	1.0237231429469
20	2470	23.244476880492	1.7797049384863
20	2626	25.024181818978	7.1087946801716
20	3323	32.13297649915	2.0587987030519
20	3523	34.191775202202	6.6429475736877
20	4251	40.83472277589	1.7353310640411
20	4428	42.570053839931	2.7824742188516
20	4809	45.352528058783	1.2896212352878
20	4939	46.642149294071	2.1284507032527
20	5220	48.770599997324	0.16488511685161
20	5231	48.935485114176	0.37684367839103
20	5280	49.312328792567	0.13366865044075
20	5296	49.445997443008	1.3508166802582
20	5395	50.796814123266	0.56208665630387
20	5465	51.35890077957	4.2424116706283
20	5918	55.601312450198	1.6678180244934
20	6118	57.269130474691	1.2864665843037
20	6292	58.555597058995	3.2146574510318
20	6647	61.770254510027	7.0980123730026
20	7324	68.86826688303	0.74557704034936
20	7433	69.613843923379	0.91188446932103
20	7492	70.5257283927	2.3103775445976
20	7770	72.836105937298	1.783108307022
20	8006	74.61921424432	1.7391025511537
20	8191	76.358316795474	1.9253378252107
20	8434	78.283654620685	1.0934355355542
20	8550	79.377090156239	1.8395570122622
20	8785	81.216647168501	0.082536439857977
20	8798	81.299183608359	0.92522574844239
20	8904	82.224409356801	0.66923557167743
20	8949	82.893644928478	0.35699788056876
20	9027	83.250642809047	0.65683534622361
20	9111	83.907478155271	3.394640197096
20	9477	87.302118352367	2.01157369605
20	9715	89.313692048417	0.093645939196229
20	9723	89.407337987613	5.0154824995625
20	10247	94.422820487176	0.35067073820887
20	10299	94.773491225385	1.0380237879183
20	10400	95.811515013303	0.67619966335603
20	10507	96.487714676659	10.148504357137
20	11578	106.636219033796	2.0350775719163
20	11804	108.671296605712	7.8433325868508
20	12657	116.514629192563	0.26295711193926
20	12697	116.777586304502	6.0503852828549
20	13350	122.827971587357	2.9988479636213
20	13737	125.826819550978	2.3792969827175
20	13933	128.206116533696	9.9672986512457
20	15120	138.173415184942	1.9225104634244
20	15295	140.095925648366	1.4897048926437
20	15501	141.58563054101	1.0176544679289
20	15614	142.603285008939	1.146525319919
20	15763	143.749810328858	0.44920209137259
20	15816	144.199012420231	0.57651569971609
20	15880	144.775528119947	6.5100275554789
20	16512	151.285555675426	0.70822585735772
20	16589	151.993781532784	1.9506038036722
20	16779	153.944385336456	1.1981196115368
20	16917	155.142504947993	2.3762058399975
20	17224	157.51871078799	3.1961333338298
20	17568	160.71484412182	6.0613972088982
20	18211	166.776241330718	0.82243582787575
20	18332	167.598677158594	1.6048097421139
20	18472	169.203486900708	0.60769774688428
20	18551	169.811184647592	4.1579264490186
20	19008	173.969111096611	2.7771941712228
20	19359	176.746305267834	0.1984151826621
20	19396	176.944720450496	0.077037994414003
20	19404	177.02175844491	1.6847153801274
20	19638	178.706473825037	2.8492420154585
20	19914	181.555715840496	1.0555957234013
20	20046	182.611311563897	0.1819993854111
20	20065	182.793310949308	3.5203225140277
20	20439	186.313633463336	5.1910679623695
20	21074	191.504701425706	0.35437767605118
20	21101	191.859079101757	3.7154318424812
20	21465	195.574510944238	1.4596469131353
20	21595	197.034157857373	1.4799754115214
20	21813	198.514133268894	1.4519049037241
20	21915	199.966038172618	1.3603857931235
20	22085	201.326423965741	1.6048524265726
20	22202	202.931276392314	3.4743575610031
20	22554	206.405633953317	0.85736933006939
20	22628	207.263003283386	0.05472197160534
20	22631	207.317725254991	0.73220174704456
20	22704	208.049927002036	0.44931078838265
20	22726	208.499237790419	2.6470588639915
20	23054	211.146296654411	1.1569962438579
20	23213	212.303292898269	2.5795969004475
20	23509	214.882889798716	0.90959276349121
20	23609	215.792482562207	0.12973373596704
20	23620	215.922216298174	0.01757565497108
20	23621	215.939791953145	0.38518868647832
20	23680	216.324980639623	2.8380651528133
20	23988	219.163045792436	0.41600474673911
20	24035	219.579050539175	0.66340387348169
20	24087	220.242454412657	0.97330823789766
20	24195	221.215762650555	1.1559285703992
20	24325	222.371691220954	0.12701268291887
20	24344	222.498703903873	7.0447743931433
20	25096	229.543478297016	5.1305759830513
20	25721	234.674054280067	1.5580187836674
20	25852	236.232073063734	3.3548234756732
20	26228	239.586896539407	0.87707520676116
20	26351	240.463971746168	4.1678550050301
20	26803	244.631826751198	0.19328037937739
20	26835	244.825107130575	0.96053037862943
20	26948	245.785637509204	2.0364753989086
20	27155	247.822112908113	3.0044202551193
20	27465	250.826533163232	1.7062605766577
20	27655	252.53279373989	0.08213741665953
20	27656	252.61493115655	6.4383050930323
20	28468	259.053236249582	0.34249950857096
20	28508	259.395735758153	0.44390859415447
20	28542	259.839644352307	2.0295497578518
20	28763	261.869194110159	2.0846075022184
20	28944	263.953801612377	1.2244849810343
20	29089	265.178286593411	0.86252566601407
20	29202	266.040812259425	1.6521211960266
20	29433	267.692933455452	2.4743638698487
20	29722	270.167297325301	0.017428605934191
20	29729	270.184725931235	2.7419915185938
20	30047	272.926717449829	0.59055366343187
20	30087	273.517271113261	0.41739999762243
20	30137	273.934671110883	0.41838565865251
20	30180	274.353056769536	3.1561058020881
20	30528	277.509162571624	2.3589883280893
20	30797	279.868150899713	2.4631662559186
20	31068	282.331317155632	6.3872591743222
20	31714	288.718576329954	1.9630513529349
20	31942	290.681627682889	1.2582594761934
20	32073	291.939887159082	2.135310136315
20	32351	294.075197295397	2.2414991366208
20	32614	296.316696432018	7.3200208759772
20	33460	303.636717307995	2.111523621286
20	33716	305.748240929281	0.35587921577402
20	33743	306.104120145055	1.8825461342857
20	33993	307.986666279341	0.10943367643655
20	33997	308.096099955778	3.1098914902626
20	34285	311.205991446041	2.8912530450577
20	34589	314.097244491099	1.1108209906116
20	34713	315.208065481711	0.6761568297781
20	34761	315.884222311489	1.9763982553582
20	34969	317.860620566847	0.55906761871535
20	35043	318.419688185562	0.16628042858425
20	35058	318.585968614146	3.1141611144396
20	35388	321.700129728586	0.34783596421405
20	35412	322.0479656928	1.5697198735444
20	35580	323.617685566344	0.51938812730993
20	35643	324.137073693654	0.23517596244428
20	35685	324.372249656098	1.6096261814294
20	35879	325.981875837527	0.10971224322264
20	35890	326.09158808075	0.62859118581832
20	35937	326.720179266568	1.3672168051998
20	36083	328.087396071768	2.3947160075363
20	36336	330.482112079304	0.98591837126487
20	36457	331.468030450569	0.3270106111142
20	36482	331.795041061683	5.4815795522876
20	36988	337.276620613971	2.560795400109
20	37274	339.83741601408	5.446339554142
20	37864	345.283755568222	3.0723551976502
20	38136	348.356110765872	0.35589734564332
20	38182	348.712008111515	1.2645419817133
20	38311	349.976550093228	1.9633923853721
20	38485	351.9399424786	9.0033406710407
20	39483	360.943283149641	8.0403933156318
20	40447	368.983676465273	1.8099345935171
20	40611	370.79361105879	1.9442376314464
20	40826	372.737848690236	1.0304921905764
20	40933	373.768340880812	0.31797175326146
20	40941	374.086312634073	3.2644305618458
20	41303	377.350743195919	0.027405172115956
20	41306	377.378148368035	2.6448460844251
20	41631	380.02299445246	0.32406895704457
20	41642	380.347063409505	0.67120616586867
20	41731	381.018269575374	0.8287381331121
20	41802	381.847007708486	0.24827320188601
20	41824	382.095280910372	0.23941890688058
20	41851	382.334699817253	0.74139882954241
20	41937	383.076098646795	1.1818688153991
20	42045	384.257967462194	0.55888163780044
20	42104	384.816849099994	0.61695222097076
20	42182	385.433801320965	4.160431071004
20	42605	389.594232391969	0.87156235405234
20	42709	390.465794746021	0.74411724722298
20	42785	391.209911993244	0.20530661841227
20	42809	391.415218611656	2.7832368105359
20	43108	394.198455422192	0.80079106543434
20	43190	394.999246487626	8.4693369921988
21	1430	13.544266816605	4.687889585872
21	1946	18.232156402477	2.4093542220963
21	2172	20.641510624573	3.364354936256
21	2524	24.005865560829	3.8921511731667
21	2918	27.898016733996	1.0138303702037
21	2996	28.9118471042	0.0067097569684307
21	2997	28.918556861168	2.110801638372
21	3223	31.02935849954	0.16613748994091
21	3237	31.195495989481	0.3950240543347
21	3267	31.590520043816	0.07866332964705
21	3269	31.669183373463	2.3963685708691
21	3517	34.065551944332	3.4794092395428
21	3914	37.544961183875	1.1323363347117
21	4021	38.677297518587	5.4947170907957
21	4665	44.172014609383	0.75780976866013
21	4759	44.929824378043	0.38078954387649
21	4803	45.310613921919	3.94603090065
21	5274	49.256644822569	3.4176927265339
21	5626	52.674337549103	2.1639831199337
21	5886	54.838320669037	1.3690532868526
21	6011	56.20737395589	5.4844674797526
21	6639	61.691841435643	0.14720889414869
21	6653	61.839050329792	0.37574114241667
21	6709	62.214791472209	0.79005841210382
21	6773	63.004849884313	0.8606432650893
21	6864	63.865493149402	2.9515701906401
21	7130	66.817063340042	0.66767569665614
21	7195	67.484739036698	5.0978654582466
21	7738	72.582604494945	2.4769138433614
21	8015	75.059518338306	1.0226321603114
21	8151	76.082150498617	4.8306024306132
21	8748	80.91275292923	0.47066759446208
21	8806	81.383420523692	1.295134600031
21	8921	82.678555123723	2.646150082059
21	9289	85.324705205782	0.47263332817798
21	9350	85.79733853396	1.0687337663714
21	9459	86.866072300331	1.7695971223761
21	9616	88.635669422707	0.50996805537729
21	9695	89.145637478084	1.9785106394641
21	9947	91.124148117548	0.22022144699262
21	9959	91.344369564541	2.0895996911375
21	10121	93.433969255678	1.9128973617827
21	10341	95.346866617461	1.4138336134496
21	10534	96.760700230911	0.09522342891454
21	10552	96.855923659826	0.037332973985799
21	10563	96.893256633812	0.7371751491976
21	10619	97.63043178301	0.69931697346323
21	10694	98.329748756473	1.7025819805516
21	10900	100.032330737025	1.284528374576
21	11012	101.316859111601	0.49250782455685
21	11065	101.809366936158	1.0519702841179
21	11162	102.861337220276	4.7701628994524
21	11703	107.631500119728	1.7712437124015
21	11878	109.40274383213	4.1693160902272
21	12308	113.572059922357	0.057566257238419
21	12321	113.629626179595	1.2434569693874
21	12466	114.873083148982	6.6107701125833
21	13219	121.483853261565	1.8534286112749
21	13405	123.33728187284	1.9029958728134
21	13656	125.240277745653	0.068140271409445
21	13662	125.308418017062	1.0164110328284
21	13759	126.32482904989	1.67091651906
21	13892	127.99574556895	0.097124956296835
21	13910	128.092870525247	1.0979634192037
21	14039	129.190833944451	1.5173704779799
21	14210	130.708204422431	1.6023538475003
21	14364	132.310558269931	2.3087745477769
21	14633	134.619332817708	0.69932182608382
21	14742	135.318654643792	5.0206206118011
21	15332	140.339275255593	0.36751213297441
21	15393	140.706787388567	0.48679740372317
21	15464	141.19358479229	1.1132504687392
21	15581	142.306835261029	2.3786834906939
21	15868	144.685518751723	4.1064237819255
21	16220	148.791942533648	1.114764501743
21	16350	149.906707035391	1.0997693722781
21	16483	151.006476407669	2.6996294084181
21	16766	153.706105816087	5.724507365451
21	17451	159.430613181538	2.3107399483959
21	17675	161.741353129934	2.8711841237719
21	17983	164.612537253706	2.4064351359294
21	18249	167.018972389635	3.1463397493281
21	18589	170.165312138963	2.8994813548779
21	18914	173.064793493841	0.55803620884751
21	18974	173.622829702689	0.51782554686419
21	19038	174.140655249553	4.4954048976577
21	19624	178.636060147211	5.6633313804349
21	20238	184.299391527646	1.9617001403012
21	20436	186.261091667947	1.9732748145303
21	20636	188.234366482477	2.3821788976625
21	20911	190.61654538014	1.150064698049
21	21090	191.766610078189	4.009048800914
21	21481	195.775658879103	6.2789320711581
21	22140	202.054590950261	1.0071185507118
21	22214	203.061709500973	0.84331684096449
21	22290	203.905026341937	0.35085575208558
21	22324	204.255882094023	1.2865711129154
21	22486	205.542453206938	2.0492603261519
21	22652	207.59171353309	1.7649340838265
21	22825	209.356647616917	0.42143313043992
21	22895	209.778080747357	0.89836721508833
21	22961	210.676447962445	3.3432011145607
21	23426	214.019649077006	4.8953926544863
21	23966	218.915041731492	1.5854070265045
21	24115	220.500448757997	4.1830240305837
21	24608	224.683472788581	0.065357310824584
21	24609	224.748830099406	0.81654881052583
21	24688	225.565378909932	7.8911628405467
21	25539	233.456541750479	2.9642169483629
21	25875	236.420758698842	0.70592397508005
21	25962	237.126682673922	3.2504022855279
21	26343	240.37708495945	2.4956327497028
21	26626	242.872717709153	1.9319832526485
21	26829	244.804700961802	1.7550531570528
21	27040	246.559754118855	5.0807612784197
21	27536	251.640515397275	3.687224599437
21	28010	255.327739996712	2.9561881110078
21	28400	258.28392810772	3.0637541858277
21	28690	261.347682293548	1.6568283607167
21	28870	263.004510654265	0.43144451317703
21	28902	263.435955167442	0.65621650871412
21	28957	264.092171676156	5.7093372015131
21	29682	269.801508877669	6.1344452029079
21	30379	275.935954080577	0.94653616544105
21	30483	276.882490246018	0.27599068551855
21	30510	277.158480931537	0.00035732125061466
21	30511	277.158838252788	0.80377555488367
21	30566	277.962613807672	2.101699915233
21	30820	280.064313722905	2.6118817814777
21	31112	282.676195504383	1.1519695989403
21	31248	283.828165103323	0.99487076166847
21	31363	284.823035864991	8.5821571455145
21	32255	293.405193010506	0.39355047576579
21	32315	293.798743486272	0.56252659987878
21	32399	294.361270086151	1.2268380662818
21	32522	295.588108152433	8.2021718401001
21	33466	303.790279992533	0.21278308671525
21	33484	304.003063079248	2.0888572325709
21	33740	306.091920311819	0.25816542694898
21	33779	306.350085738768	4.8531667999526
21	34281	311.203252538721	4.7680405323367
21	34769	315.971293071058	3.1787932705075
21	35119	319.150086341566	10.382227589976
21	36237	329.532313931542	0.43608107999106
21	36281	329.968395011533	0.73633377871176
21	36357	330.704728790245	1.5283560399236
21	36524	332.233084830169	0.71722805197211
21	36589	332.950312882141	7.186624637026
21	37292	340.136937519167	1.7352552821239
21	37478	341.872192801291	2.2148599547764
21	37699	344.087052756067	1.0555811758457
21	37846	345.142633931913	0.15759472345354
21	37865	345.300228655367	0.1235663146227
21	37887	345.42379496999	3.4192192723839
21	38183	348.843014242374	5.8138496320062
21	38822	354.65686387438	7.4962564803325
21	39610	362.153120354712	0.80289344017224
21	39708	362.956013794884	0.56631936727987
21	39764	363.522333162164	1.5978890988378
21	39945	365.120222261002	1.4078683787967
21	40110	366.528090639799	2.6001173316146
21	40454	369.128207971414	2.6490524136944
21	40700	371.777260385108	0.35097191301617
21	40748	372.128232298124	2.6041405306179
21	41013	374.732372828742	1.6630341914679
21	41207	376.39540702021	3.4668422790268
21	41609	379.862249299237	0.9188669326832
21	41688	380.78111623192	2.3129943294786
21	41938	383.094110561399	3.7146422860954
21	42297	386.808752847494	0.47661333563955
21	42362	387.285366183134	2.7164405685438
21	42660	390.001806751678	0.73949216922678
21	42749	390.741298920905	1.3968460377809
21	42892	392.138144958686	0.64897895516661
21	42965	392.787123913853	1.8850468877105
21	43128	394.672170801563	1.0784703745562
21	43322	395.750641176119	1.5477785587248
21	43503	397.298419734844	0.78171514126325
21	43597	398.080134876107	3.0726092238855

