file 8619907 1614185333                                         
version 2
run Nonmonitoring-exponential-134-20210224-17:48:51-26730
attr configname Nonmonitoring-exponential
attr datetime 20210224-17:48:51
attr experiment Nonmonitoring-exponential
attr inifile aerocom.ini
attr iterationvars $0=10
attr iterationvarsf 10-
attr measurement $0=10
attr network Aerocom
attr processid 26730
attr repetition 34
attr replication #34
attr resultdir results
attr runnumber 134
attr seedset 34
param **.t 2s
param **.k 10ms
param **.X 0.05s
param **.m 1s
param **.tDistribution "\"exponential\""
param **.operationMode 1
param **.s "70 byte"
param **.dimPoolMax 10000
param **.dimPoolMin 8000
param **.nDL 16
param **.nA 1
param **.DLMaxCapacity 0
param **.trasmitting false

vector 0 Aerocom.aircraft[0].linkSelector responseTime:vector ETV
attr "" ""
attr source computeResponseTime
vector 1 Aerocom.aircraft[0].packetGenerator arrivalTime:vector ETV
attr "" ""
attr source computeArrivalTime
vector 2 Aerocom.aircraft[0].linkSelector waitingTime:vector ETV
attr "" ""
attr source computeWaitingTime
vector 3 Aerocom.aircraft[0].linkSelector queueLength:vector ETV
attr "" ""
attr source computeQueueLength
vector 4 Aerocom.aircraft[0].dataLink[2] actualCapacity:vector ETV
attr "" ""
attr source computeActualCapacity
vector 5 Aerocom.aircraft[0].linkSelector serviceTime:vector ETV
attr "" ""
attr source computeServiceTime
vector 6 Aerocom.aircraft[0].dataLink[3] tDistribution:vector ETV
attr "" ""
attr source computeTDistribution
vector 7 Aerocom.aircraft[0].dataLink[13] tDistribution:vector ETV
attr "" ""
attr source computeTDistribution
vector 8 Aerocom.aircraft[0].dataLink[0] tDistribution:vector ETV
attr "" ""
attr source computeTDistribution
vector 9 Aerocom.aircraft[0].dataLink[6] tDistribution:vector ETV
attr "" ""
attr source computeTDistribution
vector 10 Aerocom.aircraft[0].dataLink[12] tDistribution:vector ETV
attr "" ""
attr source computeTDistribution
vector 11 Aerocom.aircraft[0].dataLink[11] tDistribution:vector ETV
attr "" ""
attr source computeTDistribution
vector 12 Aerocom.aircraft[0].dataLink[14] tDistribution:vector ETV
attr "" ""
attr source computeTDistribution
vector 13 Aerocom.aircraft[0].dataLink[7] tDistribution:vector ETV
attr "" ""
attr source computeTDistribution
vector 14 Aerocom.aircraft[0].dataLink[5] tDistribution:vector ETV
attr "" ""
attr source computeTDistribution
vector 15 Aerocom.aircraft[0].dataLink[15] tDistribution:vector ETV
attr "" ""
attr source computeTDistribution
vector 16 Aerocom.aircraft[0].dataLink[8] tDistribution:vector ETV
attr "" ""
attr source computeTDistribution
vector 17 Aerocom.aircraft[0].dataLink[10] tDistribution:vector ETV
attr "" ""
attr source computeTDistribution
vector 18 Aerocom.aircraft[0].dataLink[1] tDistribution:vector ETV
attr "" ""
attr source computeTDistribution
vector 19 Aerocom.aircraft[0].dataLink[4] tDistribution:vector ETV
attr "" ""
attr source computeTDistribution
vector 20 Aerocom.aircraft[0].dataLink[9] tDistribution:vector ETV
attr "" ""
attr source computeTDistribution
vector 21 Aerocom.aircraft[0].dataLink[2] tDistribution:vector ETV
attr "" ""
attr source computeTDistribution
1	3133 1307348 5014 171566 10.021780095641 339.550590858535 32768 1.5125e-07 0.115474779627 329.54458757097 6.589458948936
0	1310481 1307622 5011 171587 10.00622435882 339.587662089283 32768 0.007025291048 0.141230570173 710.91071653453 24.874382569703
2	2618103 1211124 5015 171587 10.021780095641 339.587662089283 32768 0 0.133335239697 455.68592753121 15.693136095553
3	3829227 885635 5015 171587 10.021780095641 339.587662089283 32768 0 16 45288 199284
4	4714862 983633 5015 171587 10.021780095641 339.587662089283 32768 8013 9964 295221804 2666561644204
5	5698495 1438238 5015 171587 10.021780095641 339.587662089283 32768 0.007025291047772 0.0087358043179833 255.24753881672 1.9933782288191
0	7136733 246367 171590 202281 339.594785321195 399.996534295785 6041 0.007014028056 0.117139753992 127.4646012567 4.25044680216
1	7383100 246399 171577 202284 339.566367666608 399.999331602843 6045 1.64289e-07 0.103768923976 60.447923125996 1.2049202808358
2	7629499 228701 171590 202281 339.594785321195 399.996534295785 6041 0 0.10939639116 80.303092037003 2.6091650366755
3	7858200 168562 171590 202281 339.594785321195 399.996534295785 6041 0 14 7861 32381
4	8026762 186648 171590 202281 339.594785321195 399.996534295785 6041 8010 9980 54362610 490914222844
5	8213410 270426 171590 202281 339.594785321195 399.996534295785 6041 0.0070140280561122 0.0087390761548065 47.15617188012 0.36939865378472
6	8483836 7472 5024 199869 10.057675703615 394.730466387091 180 0.012169251952568 14.517758755209 391.26384721895 1881.9887888504
7	8491308 7857 5045 202173 10.084025716473 399.680800736957 189 0.012622355803746 11.521706110754 393.73924395446 1702.0457471415
8	8499165 7785 5076 200514 10.137399408735 396.09228935518 188 0.011017202506727 11.776450904876 392.40801817831 1745.2387558046
9	8506950 8941 5236 202038 10.426681695151 399.426797272994 215 0.04143384158452 10.071656225868 397.35930625436 1369.3897208655
10	8515891 8900 5254 201602 10.461355801793 398.574445964785 210 0.015122869106926 7.3345122861713 392.68224230899 1344.1397538382
11	8524791 8406 5499 202202 10.893910372224 399.805688499499 198 0.0020752275699776 8.7274873119266 390.38855679198 1398.9987593337
12	8533197 8878 5555 201737 10.99575153508 398.861738233073 209 0.0012044970612274 11.205569283473 390.09755789181 1392.6707753153
13	8542075 8864 5624 200711 11.156964614787 396.463933903698 209 0.0089587675099121 8.1415213843656 389.93951416702 1362.5631145195
14	8550939 8159 5689 201651 11.301774908421 398.659760227678 192 0.0037305825954838 10.578317286462 390.8038590047 1494.6419687019
15	8559098 8565 5764 198039 11.422549332152 391.105893603526 201 0.0031599294938183 10.646062054966 390.32940632634 1534.5562148626
16	8567663 7757 5857 200194 11.687537103305 395.332643739392 183 0.00096056437252986 15.106916442799 389.80280135692 1661.8537931675
17	8575420 9021 5876 201930 11.728063523385 399.236126172132 213 0.0075441431905509 14.461552384316 388.89327484974 1441.499695427
18	8584441 7998 6435 202174 12.908056204118 399.684233439761 188 0.0049270551250529 10.546369750797 387.63787849058 1646.8039289574
19	8592439 8364 6864 201169 13.753685506418 397.46854734594 197 0.023198491398905 14.051679016073 387.60357610518 1618.0417850328
20	8600803 10036 6924 201986 13.869716617571 399.335121504916 236 0.0052661792330579 9.2769491793005 387.46670496308 1253.3867402687
21	8610839 9067 7407 201400 14.768929728803 398.130725216771 214 0.019940360376998 7.5960918496082 386.90545912276 1208.8067095476

