file 4226626 1614185358                                         
version 2
run Nonmonitoring-exponential-408-20210224-17:49:17-26934
attr configname Nonmonitoring-exponential
attr datetime 20210224-17:49:17
attr experiment Nonmonitoring-exponential
attr inifile aerocom.ini
attr iterationvars $0=20
attr iterationvarsf 20-
attr measurement $0=20
attr network Aerocom
attr processid 26934
attr repetition 8
attr replication #8
attr resultdir results
attr runnumber 408
attr seedset 8
param **.t 2s
param **.k 20ms
param **.X 0.05s
param **.m 1s
param **.tDistribution "\"exponential\""
param **.operationMode 1
param **.s "70 byte"
param **.dimPoolMax 10000
param **.dimPoolMin 8000
param **.nDL 16
param **.nA 1
param **.DLMaxCapacity 0
param **.trasmitting false

vector 0 Aerocom.aircraft[0].packetGenerator arrivalTime:vector ETV
attr "" ""
attr source computeArrivalTime
vector 1 Aerocom.aircraft[0].linkSelector waitingTime:vector ETV
attr "" ""
attr source computeWaitingTime
vector 2 Aerocom.aircraft[0].linkSelector queueLength:vector ETV
attr "" ""
attr source computeQueueLength
vector 3 Aerocom.aircraft[0].dataLink[0] actualCapacity:vector ETV
attr "" ""
attr source computeActualCapacity
vector 4 Aerocom.aircraft[0].linkSelector serviceTime:vector ETV
attr "" ""
attr source computeServiceTime
vector 5 Aerocom.aircraft[0].linkSelector responseTime:vector ETV
attr "" ""
attr source computeResponseTime
vector 6 Aerocom.aircraft[0].dataLink[9] tDistribution:vector ETV
attr "" ""
attr source computeTDistribution
vector 7 Aerocom.aircraft[0].dataLink[15] tDistribution:vector ETV
attr "" ""
attr source computeTDistribution
vector 8 Aerocom.aircraft[0].dataLink[1] tDistribution:vector ETV
attr "" ""
attr source computeTDistribution
vector 9 Aerocom.aircraft[0].dataLink[7] tDistribution:vector ETV
attr "" ""
attr source computeTDistribution
vector 10 Aerocom.aircraft[0].dataLink[13] tDistribution:vector ETV
attr "" ""
attr source computeTDistribution
vector 11 Aerocom.aircraft[0].dataLink[2] tDistribution:vector ETV
attr "" ""
attr source computeTDistribution
vector 12 Aerocom.aircraft[0].dataLink[14] tDistribution:vector ETV
attr "" ""
attr source computeTDistribution
vector 13 Aerocom.aircraft[0].dataLink[11] tDistribution:vector ETV
attr "" ""
attr source computeTDistribution
vector 14 Aerocom.aircraft[0].dataLink[12] tDistribution:vector ETV
attr "" ""
attr source computeTDistribution
vector 15 Aerocom.aircraft[0].dataLink[0] tDistribution:vector ETV
attr "" ""
attr source computeTDistribution
vector 16 Aerocom.aircraft[0].dataLink[5] tDistribution:vector ETV
attr "" ""
attr source computeTDistribution
vector 17 Aerocom.aircraft[0].dataLink[10] tDistribution:vector ETV
attr "" ""
attr source computeTDistribution
vector 18 Aerocom.aircraft[0].dataLink[6] tDistribution:vector ETV
attr "" ""
attr source computeTDistribution
vector 19 Aerocom.aircraft[0].dataLink[8] tDistribution:vector ETV
attr "" ""
attr source computeTDistribution
vector 20 Aerocom.aircraft[0].dataLink[3] tDistribution:vector ETV
attr "" ""
attr source computeTDistribution
vector 21 Aerocom.aircraft[0].dataLink[4] tDistribution:vector ETV
attr "" ""
attr source computeTDistribution
0	3130 768850 2366 102793 10.006577928853 399.978179259503 19468 5.90132e-07 0.197537417606 390.04975467948 15.584858080581
1	771980 616157 2367 102794 10.006577928853 399.978179259503 19468 0 0.043088015138 48.560730294235 0.49450010420002
2	1388137 517958 2367 102794 10.006577928853 399.978179259503 19468 0 5 2371 3557
3	1906095 576362 2367 102794 10.006577928853 399.978179259503 19468 8018 9991 175026928 1577919961110
4	2482457 846330 2367 102794 10.006577928853 399.978179259503 19468 0.0070063056751076 0.0087303566974308 151.99689757809 1.1899965551494
5	3328787 768955 2368 102795 10.014360895275 399.985824519442 19468 0.007010515774 0.051623559584 200.55762787242 2.446515031474
6	4097742 7766 2388 102411 10.075409950654 398.42364435373 190 0.0078446133001186 11.319194292811 393.45716134458 1566.8468990977
7	4105508 7279 2397 102632 10.095665880154 399.283336586055 178 0.019405904890573 13.266950363132 396.25352929529 1839.5269143198
8	4112787 7579 2434 102696 10.264673813091 399.563445666262 185 0.0032097968802019 14.496978703057 391.01234201199 1744.9199056651
9	4120366 7982 2480 102306 10.49318455269 398.162582699418 195 0.0062292291547219 11.7261319408 390.18499374546 1510.7132392685
10	4128348 7665 2481 102558 10.56178516231 399.086669764424 183 0.0088450509151058 13.06706931286 391.99587010078 1745.9193343828
11	4136013 7550 2506 102240 10.634057219738 397.841877839555 180 0.0008506441592696 12.491150096207 390.67333051763 1738.3654265323
12	4143563 9396 2524 102204 10.756807889138 397.653306883843 224 0.010114150731874 13.217882404498 389.56880922405 1404.0762479664
13	4152959 8508 2579 102312 10.959676541413 398.174138565252 203 0.0025265923530878 10.626052908186 392.51016319684 1525.5449298853
14	4161467 9234 2664 102475 11.274432352546 398.636493680551 220 0.006217471932323 10.237472488019 389.16607193496 1210.2812404646
15	4170701 8367 2675 102706 11.37074618303 399.64732512419 199 0.0026753684470425 11.432505329211 389.07344121675 1442.1309880191
16	4179068 8336 2872 102788 12.316470921681 399.929897872274 199 0.0011844411622768 11.288806386195 391.49178612901 1409.514517355
17	4187404 7674 3005 102697 12.677146897532 399.563935466918 183 0.0078752398273018 11.94781211367 387.53750559086 1567.5148814015
18	4195078 8255 3343 102785 14.030343813672 399.89221867022 197 0.0077792156032708 11.064858889696 387.03019816002 1477.2795468839
19	4203333 7417 3352 102792 14.063575130962 399.97286146615 177 0.0092617126260935 13.280765520661 386.25084728809 1771.2746386339
20	4210750 8165 3589 102269 15.001723252362 397.963163672176 195 0.011524303744294 11.67638854094 385.61031462937 1498.1485889101
21	4218915 7710 4080 102703 16.96796139798 399.628351478661 184 0.0099656481412919 9.1492380078374 384.65491817593 1484.7768391792

