version 2
run Nonmonitoring-exponential-542-20210224-17:49:33-27070
attr configname Nonmonitoring-exponential
attr datetime 20210224-17:49:33
attr experiment Nonmonitoring-exponential
attr inifile aerocom.ini
attr iterationvars $0=50
attr iterationvarsf 50-
attr measurement $0=50
attr network Aerocom
attr processid 27070
attr repetition 42
attr replication #42
attr resultdir results
attr runnumber 542
attr seedset 42
param **.t 2s
param **.k 50ms
param **.X 0.05s
param **.m 1s
param **.tDistribution "\"exponential\""
param **.operationMode 1
param **.s "70 byte"
param **.dimPoolMax 10000
param **.dimPoolMin 8000
param **.nDL 16
param **.nA 1
param **.DLMaxCapacity 0
param **.trasmitting false

vector 0 Aerocom.aircraft[0].packetGenerator arrivalTime:vector ETV
attr "" ""
attr source computeArrivalTime
vector 1 Aerocom.aircraft[0].linkSelector waitingTime:vector ETV
attr "" ""
attr source computeWaitingTime
vector 2 Aerocom.aircraft[0].linkSelector queueLength:vector ETV
attr "" ""
attr source computeQueueLength
vector 3 Aerocom.aircraft[0].dataLink[11] actualCapacity:vector ETV
attr "" ""
attr source computeActualCapacity
vector 4 Aerocom.aircraft[0].linkSelector serviceTime:vector ETV
attr "" ""
attr source computeServiceTime
vector 5 Aerocom.aircraft[0].linkSelector responseTime:vector ETV
attr "" ""
attr source computeResponseTime
vector 6 Aerocom.aircraft[0].dataLink[7] tDistribution:vector ETV
attr "" ""
attr source computeTDistribution
vector 7 Aerocom.aircraft[0].dataLink[11] tDistribution:vector ETV
attr "" ""
attr source computeTDistribution
vector 8 Aerocom.aircraft[0].dataLink[2] tDistribution:vector ETV
attr "" ""
attr source computeTDistribution
vector 9 Aerocom.aircraft[0].dataLink[1] tDistribution:vector ETV
attr "" ""
attr source computeTDistribution
vector 10 Aerocom.aircraft[0].dataLink[5] tDistribution:vector ETV
attr "" ""
attr source computeTDistribution
vector 11 Aerocom.aircraft[0].dataLink[12] tDistribution:vector ETV
attr "" ""
attr source computeTDistribution
vector 12 Aerocom.aircraft[0].dataLink[13] tDistribution:vector ETV
attr "" ""
attr source computeTDistribution
vector 13 Aerocom.aircraft[0].dataLink[15] tDistribution:vector ETV
attr "" ""
attr source computeTDistribution
vector 14 Aerocom.aircraft[0].dataLink[6] tDistribution:vector ETV
attr "" ""
attr source computeTDistribution
vector 15 Aerocom.aircraft[0].dataLink[10] tDistribution:vector ETV
attr "" ""
attr source computeTDistribution
vector 16 Aerocom.aircraft[0].dataLink[8] tDistribution:vector ETV
attr "" ""
attr source computeTDistribution
vector 17 Aerocom.aircraft[0].dataLink[14] tDistribution:vector ETV
attr "" ""
attr source computeTDistribution
vector 18 Aerocom.aircraft[0].dataLink[3] tDistribution:vector ETV
attr "" ""
attr source computeTDistribution
vector 19 Aerocom.aircraft[0].dataLink[0] tDistribution:vector ETV
attr "" ""
attr source computeTDistribution
vector 20 Aerocom.aircraft[0].dataLink[9] tDistribution:vector ETV
attr "" ""
attr source computeTDistribution
vector 21 Aerocom.aircraft[0].dataLink[4] tDistribution:vector ETV
attr "" ""
attr source computeTDistribution
0	1166	10.040852887235	0.015367243871
0	1171	10.056220131106	0.03048336998
0	1176	10.086703501086	0.047506840332
0	1181	10.134210341418	0.020989373771
0	1186	10.155199715189	0.059837423986
0	1191	10.215037139175	0.127606197609
0	1198	10.342643336784	0.003357872787
0	1201	10.346001209571	0.092406795143
0	1209	10.438408004714	0.193225309773
0	1214	10.631633314487	0.002393547225
0	1216	10.634026861712	0.02303568037
0	1224	10.657062542082	0.036089650098
0	1229	10.69315219218	0.006488585841
0	1231	10.699640778021	0.032219956105
0	1239	10.731860734126	0.044759485069
0	1245	10.776620219195	0.014562894344
0	1250	10.791183113539	0.044199365927
0	1255	10.835382479466	0.088839554497
0	1260	10.924222033963	0.009700809004
0	1265	10.933922842967	0.002921797988
0	1267	10.936844640955	0.035230078401
0	1275	10.972074719356	0.04923142253
0	1280	11.021306141886	0.037932925414
0	1285	11.0592390673	0.032062886265
0	1290	11.091301953565	0.030454541956
0	1295	11.121756495521	0.00142793853
0	1297	11.123184434051	0.04823784896
0	1306	11.171422283011	0.005566621368
0	1308	11.176988904379	0.040735124992
0	1316	11.217724029371	0.002624353752
0	1319	11.220348383123	0.009572084111
0	1324	11.229920467234	0.012487097042
0	1332	11.242407564276	0.134525857221
0	1338	11.376933421497	0.125276911381
0	1343	11.502210332878	0.014772018309
0	1348	11.516982351187	0.051044694126
0	1353	11.568027045313	0.287300844084
0	1361	11.855327889397	0.063624683572
0	1368	11.918952572969	0.031167248679
0	1373	11.950119821648	0.003387547288
0	1375	11.953507368936	0.020457727182
0	1383	11.973965096118	0.019664039418
0	1388	11.993629135536	0.021403941896
0	1393	12.015033077432	0.144024567426
0	1398	12.159057644858	0.006748071814
0	1400	12.165805716672	0.027013059154
0	1409	12.192818775826	0.074062220676
0	1414	12.266880996502	0.001419723646
0	1416	12.268300720148	0.016065740024
0	1424	12.284366460172	0.040999321499
0	1429	12.325365781671	0.036598526445
0	1434	12.361964308116	0.00996916038
0	1439	12.371933468496	0.000385880164
0	1441	12.37231934866	0.004621167313
0	1443	12.376940515973	0.028471859268
0	1454	12.405412375241	0.001244066867
0	1456	12.406656442108	0.023590292263
0	1464	12.430246734371	0.024686515513
0	1469	12.454933249884	0.051919853401
0	1474	12.506853103285	0.000645693366
0	1476	12.507498796651	0.009709088228
0	1481	12.517207884879	0.03884235348
0	1489	12.556050238359	0.00735845227
0	1491	12.563408690629	0.060156166157
0	1499	12.623564856786	0.075204051354
0	1504	12.69876890814	0.030798803658
0	1509	12.729567711798	0.026300195391
0	1514	12.755867907189	0.106442768197
0	1521	12.862310675386	0.021729324328
0	1526	12.884039999714	0.018509133755
0	1531	12.902549133469	0.004451436706
0	1533	12.907000570175	0.017040413631
0	1541	12.924040983806	0.176330916535
0	1548	13.100371900341	0.06025057222
0	1554	13.160622472561	0.011300758535
0	1559	13.171923231096	0.032980434427
0	1564	13.204903665523	0.046200835594
0	1569	13.251104501117	0.04656292009
0	1574	13.297667421207	0.015757802963
0	1579	13.31342522417	0.036964473599
0	1584	13.350389697769	0.097212030893
0	1591	13.447601728662	0.001932847055
0	1593	13.449534575717	0.037624585501
0	1602	13.487159161218	0.035605197306
0	1607	13.522764358524	0.009259895288
0	1612	13.532024253812	0.066501341476
0	1617	13.598525595288	0.145266099333
0	1622	13.743791694621	0.032948331511
0	1628	13.776740026132	0.03651705252
0	1633	13.813257078652	0.18021857279
0	1639	13.993475651442	0.012650221384
0	1644	14.006125872826	0.175340595404
0	1652	14.18146646823	0.020118876777
0	1657	14.201585345007	0.072650011594
0	1663	14.274235356601	0.000964450508
0	1665	14.275199807109	0.075025025838
0	1674	14.350224832947	0.102436536248
0	1679	14.452661369195	0.001761073443
0	1681	14.454422442638	0.094794488579
0	1690	14.549216931217	0.003270706216
0	1692	14.552487637433	0.036693139514
0	1701	14.589180776947	0.060714111044
0	1706	14.649894887991	0.174038094269
0	1714	14.82393298226	0.034630275122
0	1719	14.858563257382	0.033577063325
0	1724	14.892140320707	0.007659082369
0	1726	14.899799403076	0.022305837719
0	1735	14.922105240795	0.004035007561
0	1737	14.926140248356	0.001193285324
0	1739	14.92733353368	0.097718914754
0	1751	15.025052448434	0.013152054092
0	1757	15.038204502526	0.082856356076
0	1763	15.121060858602	0.019094904681
0	1768	15.140155763283	0.0834599436
0	1773	15.223615706883	0.065418802418
0	1778	15.289034509301	0.101679206012
0	1784	15.390713715313	0.040407996674
0	1789	15.431121711987	0.001296940203
0	1791	15.43241865219	0.039645510113
0	1800	15.472064162303	0.071854370267
0	1806	15.54391853257	0.003632432407
0	1808	15.547550964977	0.063266441523
0	1817	15.6108174065	0.186414830274
0	1826	15.797232236774	0.047937505556
0	1831	15.84516974233	0.037664249654
0	1836	15.882833991984	0.057570495861
0	1841	15.940404487845	0.025887131151
0	1847	15.966291618996	0.063739097065
0	1852	16.030030716061	0.017148393096
0	1857	16.047179109157	0.08272151544
0	1864	16.129900624597	0.040559831266
0	1869	16.170460455863	0.018763385347
0	1874	16.18922384121	0.080152122636
0	1880	16.269375963846	0.009103090166
0	1885	16.278479054012	0.083419750801
0	1890	16.361898804813	0.001732163172
0	1892	16.363630967985	0.01598734266
0	1900	16.379618310645	0.132941600763
0	1905	16.512559911408	0.087485971284
0	1910	16.600045882692	0.036468588032
0	1916	16.636514470724	0.015233144131
0	1921	16.651747614855	0.005369658291
0	1923	16.657117273146	0.016420431763
0	1931	16.673537704909	0.047312647478
0	1937	16.720850352387	0.074855861598
0	1942	16.795706213985	0.010113763967
0	1947	16.805819977952	0.025129914415
0	1952	16.830949892367	0.002487544019
0	1954	16.833437436386	0.042873957788
0	1962	16.876311394174	0.002857840285
0	1964	16.879169234459	0.080810341954
0	1972	16.959979576413	0.008696242299
0	1977	16.968675818712	0.111255165969
0	1983	17.079930984681	0.205577527554
0	1990	17.285508512235	0.063935258359
0	1995	17.349443770594	0.077454441698
0	2000	17.426898212292	0.011181475735
0	2005	17.438079688027	0.037597611605
0	2010	17.475677299632	0.005062928542
0	2012	17.480740228174	0.019219565006
0	2020	17.49995979318	0.016714450694
0	2025	17.516674243874	0.002451462809
0	2027	17.519125706683	0.044313083713
0	2036	17.563438790396	0.020040995429
0	2041	17.583479785825	0.035353210872
0	2046	17.618832996697	0.064806601334
0	2052	17.683639598031	0.103171363292
0	2057	17.786810961323	0.028472680291
0	2062	17.815283641614	7.6595205e-05
0	2064	17.815360236819	0.002450889608
0	2066	17.817811126427	0.011124163271
0	2071	17.828935289698	0.021686613834
0	2082	17.850621903532	0.076535761916
0	2087	17.927157665448	0.023053295546
0	2092	17.950210960994	0.105338546649
0	2097	18.055549507643	0.036137555054
0	2102	18.091687062697	0.102635987038
0	2108	18.194323049735	0.023599532902
0	2113	18.217922582637	0.001913938757
0	2115	18.219836521394	0.021816911333
0	2123	18.241653432727	0.08811360963
0	2128	18.329767042357	0.029581650839
0	2133	18.359348693196	0.007728093471
0	2135	18.367076786667	0.101440710534
0	2144	18.468517497201	0.000347479218
0	2146	18.468864976419	0.073431571106
0	2154	18.542296547525	0.002118399986
0	2156	18.544414947511	0.029127377932
0	2165	18.573542325443	0.087794529339
0	2171	18.661336854782	0.038383026578
0	2176	18.69971988136	0.031134627976
0	2181	18.730854509336	0.100955099057
0	2188	18.831809608393	0.000819187766
0	2190	18.832628796159	0.064151006009
0	2198	18.896779802168	0.008160561986
0	2203	18.904940364154	0.01082624153
0	2208	18.915766605684	0.115826923597
0	2214	19.031593529281	0.04847283819
0	2219	19.080066367471	0.070779708236
0	2224	19.150846075707	0.062865206811
0	2230	19.213711282518	0.012391894153
0	2235	19.226103176671	0.153465183933
0	2241	19.379568360604	0.005362403401
0	2243	19.384930764005	0.075740078527
0	2251	19.460670842532	0.001363044714
0	2253	19.462033887246	0.03579579107
0	2261	19.497829678316	0.093126341807
0	2267	19.590956020123	0.041877823399
0	2272	19.632833843522	0.04895253215
0	2277	19.681786375672	0.003229209749
0	2279	19.685015585421	0.045456426668
0	2287	19.730472012089	0.067881030765
0	2292	19.798353042854	0.007531400358
0	2294	19.805884443212	0.090628294358
0	2304	19.89651273757	0.007876269638
0	2306	19.904389007208	0.0562525681
0	2314	19.960641575308	0.075007990032
0	2319	20.03564956534	0.015962348699
0	2324	20.051611914039	0.040899034874
0	2329	20.092510948913	0.0215784629
0	2335	20.114089411813	0.04126764725
0	2342	20.155357059063	0.025165896646
0	2350	20.180522955709	0.095520478441
0	2355	20.27604343415	0.026162162608
0	2360	20.302205596758	0.043441650349
0	2366	20.345647247107	0.037265792232
0	2371	20.382913039339	0.041062263164
0	2376	20.423975302503	0.075314519671
0	2382	20.499289822174	0.011142274767
0	2387	20.510432096941	0.027622964067
0	2392	20.538055061008	0.006521824981
0	2394	20.544576885989	0.010098912421
0	2402	20.55467579841	0.021544879506
0	2408	20.576220677916	0.080507807811
0	2414	20.656728485727	0.044940416377
0	2419	20.701668902104	0.084527186199
0	2425	20.786196088303	0.021121749992
0	2432	20.807317838295	0.083253665475
0	2438	20.89057150377	0.053186655998
0	2443	20.943758159768	0.019394623566
0	2448	20.963152783334	0.075343466996
0	2455	21.03849625033	0.013402453482
0	2461	21.051898703812	0.089550590089
0	2466	21.141449293901	0.018099935407
0	2471	21.159549229308	0.001232817116
0	2473	21.160782046424	0.073598641956
0	2482	21.23438068838	0.044356320476
0	2488	21.278737008856	0.120627212416
0	2494	21.399364221272	0.045000930975
0	2499	21.444365152247	0.018830294601
0	2504	21.463195446848	0.004048821908
0	2507	21.467244268756	0.091930232909
0	2515	21.559174501665	0.042794537715
0	2522	21.60196903938	0.001592126382
0	2524	21.603561165762	0.053587027552
0	2533	21.657148193314	0.249428261503
0	2543	21.906576454817	0.009039561073
0	2548	21.91561601589	0.032610846122
0	2553	21.948226862012	0.016442223515
0	2558	21.964669085527	0.020426383642
0	2563	21.985095469169	0.046613898138
0	2568	22.031709367307	0.098299840221
0	2573	22.130009207528	0.00558606466
0	2575	22.135595272188	0.050367265031
0	2584	22.185962537219	0.137759800827
0	2591	22.323722338046	0.009750863343
0	2596	22.333473201389	0.027400372491
0	2601	22.36087357388	0.005741029273
0	2603	22.366614603153	0.029450870866
0	2611	22.396065474019	0.025170214521
0	2616	22.42123568854	0.029213176534
0	2621	22.450448865074	0.070387339793
0	2626	22.520836204867	0.053508868107
0	2631	22.574345072974	0.052756464986
0	2636	22.62710153796	0.075195331393
0	2641	22.702296869353	0.093172918747
0	2647	22.7954697881	0.09643146557
0	2652	22.89190125367	0.075754871614
0	2658	22.967656125284	0.003771726922
0	2660	22.971427852206	0.002003702271
0	2662	22.973431554477	0.09571544043
0	2673	23.069146994907	0.074295745851
0	2678	23.143442740758	0.009269444433
0	2683	23.152712185191	0.084820939428
0	2689	23.237533124619	0.033998874039
0	2694	23.271531998658	0.003112116733
0	2696	23.274644115391	0.00670857763
0	2701	23.281352693021	0.010629383524
0	2706	23.291982076545	0.0973765486
0	2714	23.389358625145	0.003347849789
0	2716	23.392706474934	0.021462752969
0	2724	23.414169227903	0.030523872074
0	2729	23.444693099977	0.028617122933
0	2734	23.47331022291	0.013981407187
0	2739	23.487291630097	0.017798556907
0	2744	23.505090187004	0.11313331238
0	2750	23.618223499384	0.013371720159
0	2755	23.631595219543	0.00012836315
0	2757	23.631723582693	0.003701731042
0	2759	23.635425313735	0.111782240947
0	2770	23.747207554682	0.066233940574
0	2775	23.813441495256	0.125403262665
0	2780	23.938844757921	0.01146901811
0	2785	23.950313776031	0.047145218812
0	2790	23.997458994843	0.090536387921
0	2796	24.087995382764	0.008603561137
0	2801	24.096598943901	0.001861140414
0	2803	24.098460084315	0.002845295587
0	2805	24.101305379902	0.203620078467
0	2817	24.304925458369	0.040636364374
0	2822	24.345561822743	0.032197248187
0	2827	24.37775907093	0.017630856641
0	2833	24.395389927571	0.002722645808
0	2835	24.398112573379	0.036711747075
0	2843	24.434824320454	0.069635673913
0	2848	24.504459994367	0.065855361582
0	2853	24.570315355949	0.15249882365
0	2858	24.722814179599	0.041122494912
0	2863	24.763936674511	0.035639367077
0	2868	24.799576041588	0.007566505505
0	2870	24.807142547093	0.063648061682
0	2878	24.870790608775	0.128186862061
0	2883	24.998977470836	0.036491701875
0	2888	25.035469172711	0.043016472513
0	2893	25.078485645224	0.080276944084
0	2898	25.158762589308	0.060359086865
0	2903	25.219121676173	0.127572888937
0	2909	25.34669456511	0.079359876439
0	2914	25.426054441549	0.014731949361
0	2920	25.44078639091	0.177364584394
0	2925	25.618150975304	0.079323042049
0	2930	25.697474017353	0.003925710678
0	2932	25.701399728031	0.046519884853
0	2941	25.747919612884	0.036435906127
0	2946	25.784355519011	0.019075724095
0	2952	25.803431243106	0.014019362077
0	2957	25.817450605183	0.02405036279
0	2962	25.841500967973	0.086674749703
0	2968	25.928175717676	0.164411747614
0	2973	26.09258746529	0.01164006501
0	2978	26.1042275303	0.002617313566
0	2980	26.106844843866	0.031728102152
0	2988	26.138572946018	0.192961148992
0	2996	26.33153409501	0.026336552451
0	3001	26.357870647461	0.10954282355
0	3010	26.467413471011	0.041721011191
0	3015	26.509134482202	0.149005238631
0	3020	26.658139720833	0.031415529495
0	3025	26.689555250328	0.044925175195
0	3030	26.734480425523	0.067252633674
0	3035	26.801733059197	0.120780586317
0	3042	26.922513645514	0.011140691753
0	3047	26.933654337267	0.076103946591
0	3052	27.009758283858	0.052835393859
0	3057	27.062593677717	0.0061874717
0	3059	27.068781149417	0.055999422645
0	3068	27.124780572062	0.100803551729
0	3074	27.225584123791	0.006399303906
0	3076	27.231983427697	0.01944763322
0	3084	27.251431060917	0.000290511973
0	3086	27.25172157289	0.086131315769
0	3094	27.337852888659	0.136220384827
0	3101	27.474073273486	0.1260970967
0	3107	27.600170370186	0.035700834098
0	3112	27.635871204284	0.003526007449
0	3114	27.639397211733	0.115242280904
0	3122	27.754639492637	0.035662630752
0	3128	27.790302123389	0.026019344354
0	3133	27.816321467743	0.186253427308
0	3141	28.002574895051	0.024018491585
0	3147	28.026593386636	0.011321140398
0	3152	28.037914527034	0.028101533384
0	3157	28.066016060418	0.098099212605
0	3162	28.164115273023	0.050971104279
0	3167	28.215086377302	0.012597096504
0	3172	28.227683473806	0.044664016675
0	3178	28.272347490481	0.034950888924
0	3183	28.307298379405	0.025342280605
0	3188	28.33264066001	0.038593347985
0	3193	28.371234007995	0.011332188141
0	3198	28.382566196136	0.086400529017
0	3203	28.468966725153	0.001864023302
0	3205	28.470830748455	0.133730350109
0	3213	28.604561098564	0.097271172387
0	3219	28.701832270951	0.007532612913
0	3224	28.709364883864	0.060077538214
0	3229	28.769442422078	0.081126215761
0	3234	28.850568637839	0.045689026022
0	3239	28.896257663861	0.002622444935
0	3241	28.898880108796	0.07274998009
0	3249	28.971630088886	0.009102887056
0	3255	28.980732975942	0.009971218376
0	3260	28.990704194318	0.081596513574
0	3265	29.072300707892	0.028945552252
0	3270	29.101246260144	0.07015121508
0	3275	29.171397475224	0.026801972355
0	3281	29.198199447579	0.063050977826
0	3286	29.261250425405	0.121275896731
0	3291	29.382526322136	0.043037534387
0	3296	29.425563856523	0.107704967509
0	3301	29.533268824032	0.09336663721
0	3306	29.626635461242	0.036331470323
0	3311	29.662966931565	0.019418876599
0	3316	29.682385808164	0.03039959856
0	3321	29.712785406724	0.01306381728
0	3326	29.725849224004	0.020967380939
0	3331	29.746816604943	0.014112852455
0	3336	29.760929457398	0.035376804337
0	3342	29.796306261735	0.044112837552
0	3348	29.840419099287	0.008837619965
0	3353	29.849256719252	0.145907393802
0	3361	29.995164113054	0.020579988088
0	3366	30.015744101142	0.075468387389
0	3371	30.091212488531	0.028419534575
0	3376	30.119632023106	0.003216895874
0	3378	30.12284891898	0.014330033706
0	3386	30.137178952686	0.110448539039
0	3393	30.247627491725	0.023213439563
0	3398	30.270840931288	0.022296002358
0	3403	30.293136933646	0.036516402935
0	3408	30.329653336581	0.019162037186
0	3413	30.348815373767	0.004752476827
0	3415	30.353567850594	0.001978583297
0	3417	30.355546433891	0.016650525674
0	3428	30.372196959565	0.001920121941
0	3430	30.374117081506	0.025329726761
0	3438	30.399446808267	0.019727525939
0	3443	30.419174334206	0.030705674955
0	3448	30.449880009161	0.001534069072
0	3450	30.451414078233	0.003315341645
0	3452	30.454729419878	0.090296281432
0	3463	30.54502570131	0.119637509742
0	3468	30.664663211052	0.069349887616
0	3473	30.734013098668	0.11967098961
0	3482	30.853684088278	0.045064084539
0	3487	30.898748172817	0.020916136246
0	3492	30.919664309063	0.09630545364
0	3497	31.015969762703	0.153809692287
0	3503	31.16977945499	0.127822044931
0	3509	31.297601499921	0.120052679984
0	3514	31.417654179905	0.082886019075
0	3521	31.50054019898	0.061365703069
0	3527	31.561905902049	0.013094843961
0	3532	31.57500074601	0.141460443961
0	3537	31.716461189971	0.018683138278
0	3542	31.735144328249	0.31585391051
0	3550	32.050998238759	0.213860869519
0	3557	32.264859108278	0.024945286772
0	3562	32.28980439505	0.01058369102
0	3567	32.30038808607	0.046979858423
0	3572	32.347367944493	0.161046287822
0	3578	32.508414232315	0.08108717433
0	3583	32.589501406645	0.097219457591
0	3589	32.686720864236	0.000940872436
0	3591	32.687661736672	0.115897394373
0	3600	32.803559131045	0.024553322598
0	3606	32.828112453643	0.139847638531
0	3613	32.967960092174	0.000416484541
0	3615	32.968376576715	0.07036063949
0	3623	33.038737216205	0.071215537646
0	3628	33.109952753851	0.017851753539
0	3633	33.12780450739	0.105834565716
0	3638	33.233639073106	0.017502226767
0	3643	33.251141299873	0.142546226061
0	3649	33.393687525934	0.030441594732
0	3654	33.424129120666	0.013567957929
0	3659	33.437697078595	0.000971319311
0	3661	33.438668397906	0.002511193254
0	3663	33.44117959116	0.13592385555
0	3676	33.57710344671	0.004057117611
0	3678	33.581160564321	0.032907630237
0	3686	33.614068194558	0.072481130474
0	3692	33.686549325032	0.072231186559
0	3697	33.758780511591	0.011984180057
0	3703	33.770764691648	0.061656608055
0	3708	33.832421299703	0.051558955273
0	3713	33.883980254976	0.101975248065
0	3718	33.985955503041	0.023905573604
0	3723	34.009861076645	0.005338319238
0	3726	34.015199395883	0.047081294158
0	3734	34.062280690041	0.031514364133
0	3739	34.093795054174	0.071015463518
0	3744	34.164810517692	0.002232180327
0	3746	34.167042698019	0.036810098626
0	3754	34.203852796645	0.032988401299
0	3759	34.236841197944	0.01991303509
0	3764	34.256754233034	0.055133149711
0	3769	34.311887382745	0.044018093989
0	3774	34.355905476734	0.032046722473
0	3779	34.387952199207	0.034268858753
0	3784	34.42222105796	0.119342908777
0	3790	34.541563966737	0.021581163925
0	3795	34.563145130662	0.017427287502
0	3800	34.580572418164	0.037485396736
0	3805	34.6180578149	0.002026425766
0	3807	34.620084240666	0.005362187821
0	3809	34.625446428487	0.075356387616
0	3821	34.700802816103	0.008173045002
0	3826	34.708975861105	0.05968868118
0	3832	34.768664542285	0.075059216054
0	3838	34.843723758339	0.032879434206
0	3843	34.876603192545	0.022328876767
0	3848	34.898932069312	0.042852364361
0	3853	34.941784433673	0.009135980625
0	3859	34.950920414298	0.087523438428
0	3865	35.038443852726	0.034314466425
0	3870	35.072758319151	0.04559729239
0	3875	35.118355611541	0.001308380132
0	3877	35.119663991673	0.053518261914
0	3885	35.173182253587	0.008586352087
0	3890	35.181768605674	0.036947595224
0	3896	35.218716200898	0.157346107971
0	3902	35.376062308869	0.005591508932
0	3904	35.381653817801	0.020753397001
0	3912	35.402407214802	0.011984179584
0	3917	35.414391394386	0.027254655456
0	3923	35.441646049842	0.003893697454
0	3925	35.445539747296	0.164436434791
0	3934	35.609976182087	0.037236164782
0	3939	35.647212346869	0.066017449157
0	3946	35.713229796026	0.021248482837
0	3951	35.734478278863	0.219881099391
0	3959	35.954359378254	0.000519097037
0	3961	35.954878475291	0.00811583033
0	3966	35.962994305621	0.108730997057
0	3976	36.071725302678	0.022037547525
0	3983	36.093762850203	0.02472445475
0	3989	36.118487304953	0.00203187344
0	3991	36.120519178393	0.006460949703
0	3996	36.126980128096	0.01553940337
0	4004	36.142519531466	0.080280500717
0	4009	36.222800032183	0.02174751276
0	4014	36.244547544943	0.067600820908
0	4019	36.312148365851	0.183644090852
0	4024	36.495792456703	0.004521591528
0	4026	36.500314048231	0.003504064434
0	4031	36.503818112665	0.050712751688
0	4040	36.554530864353	0.044131700937
0	4045	36.59866256529	0.017917084701
0	4050	36.616579649991	0.008730633352
0	4055	36.625310283343	0.035364914977
0	4060	36.66067519832	0.059234330067
0	4065	36.719909528387	0.037059647856
0	4071	36.756969176243	0.045832283254
0	4076	36.802801459497	0.125651120502
0	4082	36.928452579999	0.081895039091
0	4088	37.01034761909	0.057739063198
0	4094	37.068086682288	0.022440988479
0	4099	37.090527670767	0.002493243072
0	4101	37.093020913839	0.110750476094
0	4109	37.203771389933	0.028612875045
0	4114	37.232384264978	0.042635585825
0	4119	37.275019850803	0.042510442873
0	4124	37.317530293676	0.064769051422
0	4129	37.382299345098	0.040947048168
0	4134	37.423246393266	0.019061146534
0	4140	37.4423075398	0.001555767
0	4142	37.4438633068	0.003084546401
0	4145	37.446947853201	0.007592345116
0	4150	37.454540198317	0.002596566789
0	4155	37.457136765106	0.045551650505
0	4166	37.502688415611	0.017071227786
0	4171	37.519759643397	0.146007181835
0	4177	37.665766825232	0.146839297328
0	4183	37.81260612256	0.077382811626
0	4189	37.889988934186	0.165178302405
0	4195	38.055167236591	0.005730351399
0	4197	38.06089758799	0.083183037073
0	4206	38.144080625063	0.060226001336
0	4211	38.204306626399	0.014868197362
0	4216	38.219174823761	0.014757456465
0	4221	38.233932280226	0.031706387937
0	4226	38.265638668163	0.007884083404
0	4228	38.273522751567	0.002637002827
0	4233	38.276159754394	0.004009578624
0	4235	38.280169333018	0.177124480625
0	4246	38.457293813643	0.076169494577
0	4251	38.53346330822	0.023446402599
0	4256	38.556909710819	0.037829406272
0	4262	38.594739117091	0.045989194933
0	4267	38.640728312024	0.251629860868
0	4274	38.892358172892	0.139910708518
0	4279	39.03226888141	0.109029257841
0	4285	39.141298139251	0.00610747439
0	4287	39.147405613641	0.09727076774
0	4296	39.244676381381	0.050356405796
0	4302	39.295032787177	0.004504052188
0	4304	39.299536839365	0.053855686622
0	4312	39.353392525987	0.118536380305
0	4319	39.471928906292	0.068649034669
0	4324	39.540577940961	0.050481662092
0	4330	39.591059603053	0.236286277661
0	4337	39.827345880714	0.034213089538
0	4342	39.861558970252	0.046316629272
0	4348	39.907875599524	0.156414070911
0	4354	40.064289670435	0.043491350024
0	4359	40.107781020459	0.022691254339
0	4364	40.130472274798	0.069762818777
0	4369	40.200235093575	0.072169396656
0	4374	40.272404490231	0.031563640413
0	4379	40.303968130644	0.014164164562
0	4384	40.318132295206	0.095006328859
0	4390	40.413138624065	0.127445283993
0	4395	40.540583908058	0.007339119098
0	4400	40.547923027156	0.026920633151
0	4405	40.574843660307	0.002413659585
0	4407	40.577257319892	0.032425462547
0	4415	40.609682782439	0.036980572636
0	4421	40.646663355075	0.00938798408
0	4426	40.656051339155	0.107689243205
0	4433	40.76374058236	0.029072408147
0	4438	40.792812990507	0.003072734007
0	4440	40.795885724514	0.094094178455
0	4450	40.889979902969	0.055558353222
0	4455	40.945538256191	0.022951556766
0	4461	40.968489812957	0.052050261287
0	4467	41.020540074244	0.004711743076
0	4469	41.02525181732	0.086328769916
0	4478	41.111580587236	0.001552417819
0	4480	41.113133005055	0.050345921702
0	4489	41.163478926757	0.011777419378
0	4494	41.175256346135	0.220933387986
0	4501	41.396189734121	0.048826893063
0	4506	41.445016627184	0.089071844778
0	4511	41.534088471962	0.038425182926
0	4516	41.572513654888	0.033187815956
0	4521	41.605701470844	0.001558095328
0	4523	41.607259566172	0.005026576637
0	4525	41.612286142809	0.052018867223
0	4536	41.664305010032	0.026018499196
0	4541	41.690323509228	0.089967646157
0	4547	41.780291155385	0.117028481787
0	4553	41.897319637172	0.052270236916
0	4559	41.949589874088	0.163286142495
0	4565	42.112876016583	0.092771628809
0	4572	42.205647645392	0.00088278268
0	4574	42.206530428072	0.091809907973
0	4583	42.298340336045	0.010094686508
0	4588	42.308435022553	0.056339573031
0	4594	42.364774595584	0.006456521162
0	4596	42.371231116746	0.02814762114
0	4604	42.399378737886	0.093258719401
0	4610	42.492637457287	0.047844990959
0	4616	42.540482448246	0.033232576889
0	4622	42.573715025135	0.199249839281
0	4628	42.772964864416	0.010283193582
0	4633	42.783248057998	0.06001165602
0	4640	42.843259714018	0.043657555927
0	4645	42.886917269945	0.125962098416
0	4652	43.012879368361	0.105746779343
0	4657	43.118626147704	0.022345298319
0	4662	43.140971446023	0.021000018605
0	4667	43.161971464628	0.037769433675
0	4672	43.199740898303	0.031355544184
0	4678	43.231096442487	0.006312860928
0	4680	43.237409303415	0.002622002771
0	4685	43.240031306186	0.033635862203
0	4693	43.273667168389	0.015286195022
0	4698	43.288953363411	0.150178097474
0	4704	43.439131460885	0.113640519763
0	4711	43.552771980648	0.01692311487
0	4716	43.569695095518	0.033127739969
0	4721	43.602822835487	0.059044840185
0	4727	43.661867675672	0.053050909081
0	4732	43.714918584753	0.032921887736
0	4737	43.747840472489	0.012890864073
0	4742	43.760731336562	0.000463863048
0	4744	43.76119519961	0.124281032628
0	4753	43.885476232238	0.00645217288
0	4755	43.891928405118	0.149530438091
0	4765	44.041458843209	0.142678174377
0	4771	44.184137017586	0.064968094883
0	4777	44.249105112469	0.000117151941
0	4779	44.24922226441	0.002079279816
0	4781	44.251301544226	0.049959464005
0	4793	44.301261008231	0.083604503642
0	4798	44.384865511873	0.021308449337
0	4804	44.40617396121	0.019754891202
0	4809	44.425928852412	0.016747583108
0	4814	44.44267643552	0.073327114838
0	4819	44.516003550358	0.107147043871
0	4824	44.623150594229	0.036690693269
0	4829	44.659841287498	0.083526346494
0	4834	44.743367633992	0.003937981612
0	4836	44.747305615604	0.048893321955
0	4844	44.796198937559	0.130538851614
0	4850	44.926737789173	0.026440701108
0	4855	44.953178490281	0.003582758907
0	4857	44.956761249188	0.016482053336
0	4865	44.973243302524	0.070807792163
0	4870	45.044051094687	0.028582238938
0	4875	45.072633333625	0.077414989816
0	4880	45.150048323441	0.034180391349
0	4886	45.18422871479	0.080194541319
0	4891	45.264423256109	0.033924371096
0	4897	45.298347627205	0.006731841635
0	4899	45.30507946884	0.060097921123
0	4907	45.365177389963	0.083763330106
0	4913	45.448940720069	0.033266663309
0	4918	45.482207383378	0.129060340427
0	4924	45.611267723805	0.004412587097
0	4926	45.615680310902	0.094056844596
0	4934	45.709737155498	0.036616010862
0	4940	45.74635316636	0.061166212741
0	4946	45.807519379101	0.053740418377
0	4951	45.861259797478	0.003973771677
0	4953	45.865233569155	0.004966994386
0	4958	45.870200563541	0.03056957971
0	4966	45.900770143251	0.030113302331
0	4971	45.930883445582	0.03278002802
0	4976	45.963663473602	0.052233115931
0	4983	46.015896589533	0.066689596475
0	4988	46.082586186008	0.02556280503
0	4994	46.108148991038	0.031874077893
0	4999	46.140023068931	0.066806757693
0	5004	46.206829826624	0.056044148236
0	5009	46.26287397486	0.06539266529
0	5014	46.32826664015	0.017467223398
0	5019	46.345733863548	0.011206409735
0	5025	46.356940273283	0.105479241232
0	5031	46.462419514515	0.081665331124
0	5037	46.544084845639	0.000550981489
0	5039	46.544635827128	0.0012190065
0	5041	46.545854833628	0.034512003075
0	5053	46.580366836703	0.007533245337
0	5055	46.58790008204	0.108083457648
0	5064	46.695983539688	0.073267188531
0	5070	46.769250728219	0.029744200727
0	5076	46.798994928946	0.011889172751
0	5081	46.810884101697	0.00499036596
0	5083	46.815874467657	0.025647320486
0	5091	46.841521788143	0.021869614588
0	5096	46.863391402731	0.028717675466
0	5102	46.892109078197	0.027155128473
0	5107	46.91926420667	0.044221439202
0	5112	46.963485645872	0.068430552863
0	5117	47.031916198735	0.176241315186
0	5122	47.208157513921	0.026942783144
0	5127	47.235100297065	0.055982148768
0	5132	47.291082445833	0.119823016527
0	5137	47.41090546236	0.076966229769
0	5142	47.487871692129	0.022924728967
0	5147	47.510796421096	0.087357728277
0	5153	47.598154149373	0.013570523326
0	5159	47.611724672699	0.11415037463
0	5166	47.725875047329	0.043285456375
0	5171	47.769160503704	0.030475827018
0	5176	47.799636330722	0.022648500848
0	5181	47.82228483157	0.171283293494
0	5189	47.993568125064	0.049308680311
0	5195	48.042876805375	0.0842750544
0	5201	48.127151859775	0.029547642262
0	5206	48.156699502037	0.045393246556
0	5211	48.202092748593	0.07361121461
0	5218	48.275703963203	0.060518592635
0	5224	48.336222555838	0.013753268074
0	5229	48.349975823912	0.011100228302
0	5234	48.361076052214	0.014112312064
0	5239	48.375188364278	0.014108527421
0	5244	48.389296891699	0.1047365369
0	5249	48.494033428599	0.059828259544
0	5255	48.553861688143	0.052637159045
0	5260	48.606498847188	0.018807303964
0	5265	48.625306151152	0.111827257467
0	5272	48.737133408619	0.008949135815
0	5277	48.746082544434	0.008017074815
0	5279	48.754099619249	0.008516743879
0	5284	48.762616363128	0.08574150586
0	5295	48.848357868988	0.00748221194
0	5297	48.855840080928	0.020197626921
0	5305	48.876037707849	0.119682558811
0	5310	48.99572026666	0.028918226518
0	5315	49.024638493178	0.020949522805
0	5320	49.045588015983	0.014703460046
0	5325	49.060291476029	0.120486471679
0	5331	49.180777947708	0.310121737053
0	5340	49.490899684761	0.001115640505
0	5342	49.492015325266	0.024924101954
0	5350	49.51693942722	0.026238303849
0	5355	49.543177731069	0.002641628426
0	5357	49.545819359495	0.048427273445
0	5367	49.59424663294	0.057954649485
0	5372	49.652201282425	0.135355406408
0	5377	49.787556688833	0.024593565968
0	5383	49.812150254801	0.001207374226
0	5385	49.813357629027	0.026703244058
0	5393	49.840060873085	0.000976133545
0	5395	49.84103700663	0.051148952158
0	5403	49.892185958788	0.024919794529
0	5408	49.917105753317	0.015971647605
0	5413	49.933077400922	0.053087300003
0	5419	49.986164700925	0.022323933509
0	5425	50.008488634434	0.180753456872
0	5433	50.189242091306	0.007949047288
0	5435	50.197191138594	0.070380318705
0	5443	50.267571457299	0.082987725682
0	5448	50.350559182981	0.092113934693
0	5453	50.442673117674	0.067588218616
0	5458	50.51026133629	0.072823389128
0	5463	50.583084725418	0.122815317178
0	5470	50.705900042596	0.008364346691
0	5472	50.714264389287	0.059533623664
0	5481	50.773798012951	0.044602242488
0	5486	50.818400255439	0.061138197748
0	5491	50.879538453187	0.066411834587
0	5497	50.945950287774	0.016923425952
0	5502	50.962873713726	0.012412704193
0	5507	50.975286417919	0.012731516022
0	5512	50.988017933941	0.005017992554
0	5514	50.993035926495	0.040880905179
0	5522	51.033916831674	0.142121444987
0	5528	51.176038276661	0.019203857196
0	5533	51.195242133857	0.042165308779
0	5538	51.237407442636	0.094272168114
0	5545	51.33167961075	0.034132473623
0	5550	51.365812084373	0.045242675228
0	5555	51.411054759601	0.008003562628
0	5558	51.419058322229	0.053154112885
0	5567	51.472212435114	0.002376316734
0	5569	51.474588751848	0.006170871646
0	5574	51.480759623494	0.021266201079
0	5582	51.502025824573	0.11927640868
0	5587	51.621302233253	0.051172683702
0	5592	51.672474916955	0.00014285575
0	5594	51.672617772705	0.118542923778
0	5604	51.791160696483	0.012272979543
0	5609	51.803433676026	0.04462447903
0	5616	51.848058155056	0.065911040708
0	5621	51.913969195764	0.035583494932
0	5626	51.949552690696	0.011393618093
0	5631	51.960946308789	0.139198408144
0	5636	52.100144716933	0.163325174161
0	5645	52.263469891094	0.005571205458
0	5647	52.269041096552	0.027067718086
0	5655	52.296108814638	0.008327438965
0	5660	52.304436253603	0.05945793948
0	5665	52.363894193083	0.005340447525
0	5667	52.369234640608	0.079977867787
0	5676	52.449212508395	0.038839757647
0	5681	52.488052266042	0.054301832941
0	5686	52.542354098983	0.027744447842
0	5691	52.570098546825	0.017911894531
0	5696	52.588010441356	0.128854177516
0	5704	52.716864618872	0.210074556969
0	5709	52.926939175841	0.055992115832
0	5714	52.982931291673	0.000745444885
0	5716	52.983676736558	0.024983691721
0	5724	53.008660428279	0.010197617114
0	5729	53.018858045393	0.024744477426
0	5734	53.043602522819	0.016876695431
0	5740	53.06047921825	0.024274713104
0	5746	53.084753931354	0.001790538713
0	5748	53.086544470067	0.010646665549
0	5753	53.097191135616	0.032954697697
0	5761	53.130145833313	0.010128327258
0	5766	53.140274160571	0.097762086995
0	5772	53.238036247566	0.059944719008
0	5777	53.297980966574	0.101765910747
0	5784	53.399746877321	0.083953625023
0	5789	53.483700502344	0.084056408859
0	5796	53.567756911203	0.023512133473
0	5801	53.591269044676	0.058574170251
0	5806	53.649843214927	0.040400880153
0	5811	53.69024409508	0.007629912756
0	5814	53.697874007836	0.045383876998
0	5823	53.743257884834	0.071536797154
0	5828	53.814794681988	0.072687849009
0	5833	53.887482530997	0.060038756512
0	5838	53.947521287509	0.001022105756
0	5840	53.948543393265	0.021868315827
0	5849	53.970411709092	0.004897255328
0	5851	53.97530896442	0.044098139521
0	5860	54.019407103941	0.052831395823
0	5865	54.072238499764	0.018924442582
0	5870	54.091162942346	0.151988147138
0	5876	54.243151089484	0.012069944388
0	5881	54.255221033872	0.106004290892
0	5886	54.361225324764	0.126701184963
0	5892	54.487926509727	0.089782290177
0	5897	54.577708799904	0.219990163605
0	5902	54.797698963509	0.008766552945
0	5907	54.806465516454	0.013104995655
0	5912	54.819570512109	0.110700666259
0	5918	54.930271178368	0.008991594035
0	5923	54.939262772403	0.06398487554
0	5930	55.003247647943	0.040038299002
0	5936	55.043285946945	0.086697058746
0	5941	55.129983005691	0.101402073745
0	5949	55.231385079436	0.008756840223
0	5954	55.240141919659	0.105588942762
0	5959	55.345730862421	0.165014084491
0	5966	55.510744946912	0.102584303461
0	5973	55.613329250373	0.017445036808
0	5978	55.630774287181	0.002124007581
0	5980	55.632898294762	0.084796881697
0	5988	55.717695176459	0.056008821854
0	5993	55.773703998313	0.124189295862
0	5999	55.897893294175	0.095227568921
0	6006	55.993120863096	0.051189014564
0	6011	56.04430987766	0.000423221578
0	6013	56.044733099238	0.046207077871
0	6021	56.090940177109	0.083373042679
0	6028	56.174313219788	0.01345062296
0	6033	56.187763842748	0.132910726394
0	6039	56.320674569142	0.075587105695
0	6045	56.396261674837	0.04636769862
0	6051	56.442629373457	0.038012170343
0	6056	56.4806415438	0.035412070043
0	6062	56.516053613843	0.054543340738
0	6067	56.570596954581	0.016199726605
0	6072	56.586796681186	0.042368164292
0	6077	56.629164845478	0.024531763928
0	6082	56.653696609406	0.009130213603
0	6087	56.662826823009	0.086120219716
0	6093	56.748947042725	0.165709029057
0	6099	56.914656071782	0.272630611229
0	6104	57.187286683011	0.008126493912
0	6106	57.195413176923	0.005520233698
0	6111	57.200933410621	0.030289025685
0	6119	57.231222436306	0.114024843082
0	6127	57.345247279388	0.036875314274
0	6132	57.382122593662	0.014409641156
0	6137	57.396532234818	0.020780144444
0	6143	57.417312379262	0.007075299822
0	6145	57.424387679084	0.008533910702
0	6151	57.432921589786	0.10083593809
0	6160	57.533757527876	0.072129865335
0	6165	57.605887393211	0.004372631999
0	6167	57.61026002521	0.167607389021
0	6176	57.777867414231	0.001079815977
0	6179	57.778947230208	0.009675421944
0	6184	57.788622652152	0.013119849082
0	6189	57.801742501234	0.007425477966
0	6194	57.8091679792	0.006548198544
0	6199	57.815716177744	0.014364860552
0	6207	57.830081038296	0.3382518497
0	6217	58.168332887996	0.04457695905
0	6222	58.212909847046	0.033343616973
0	6229	58.246253464019	0.06304573597
0	6235	58.309299199989	0.005334787909
0	6237	58.314633987898	0.025062587539
0	6245	58.339696575437	0.129267380244
0	6253	58.468963955681	0.043271476834
0	6258	58.512235432515	0.185192537181
0	6263	58.697427969696	0.03772789007
0	6269	58.735155859766	0.003291687273
0	6271	58.738447547039	0.01044431917
0	6276	58.748891866209	0.016578468281
0	6284	58.76547033449	0.045813537568
0	6289	58.811283872058	0.11627896908
0	6296	58.927562841138	0.013182438666
0	6301	58.940745279804	0.014986352127
0	6306	58.955731631931	0.035138806418
0	6311	58.990870438349	0.001460191589
0	6313	58.992330629938	0.061273872803
0	6323	59.053604502741	0.050164703204
0	6328	59.103769205945	0.051945692697
0	6334	59.155714898642	0.023391277294
0	6339	59.179106175936	0.034468931132
0	6345	59.213575107068	0.055570117423
0	6350	59.269145224491	0.067081674123
0	6356	59.336226898614	0.002647734456
0	6358	59.33887463307	0.053263938545
0	6366	59.392138571615	0.019602037982
0	6371	59.411740609597	0.285405595584
0	6378	59.697146205181	0.007838871777
0	6380	59.704985076958	0.002333547593
0	6385	59.707318624551	0.140167185449
0	6393	59.84748581	0.008242082974
0	6396	59.855727892974	0.26529997024
0	6407	60.121027863214	0.010076785771
0	6413	60.131104648985	0.059157389046
0	6418	60.190262038031	0.048111517686
0	6424	60.238373555717	0.010341202805
0	6429	60.248714758522	0.093183095145
0	6434	60.341897853667	0.037888853269
0	6440	60.379786706936	0.081370748425
0	6446	60.461157455361	0.177091585153
0	6451	60.638249040514	0.019081098325
0	6456	60.657330138839	0.052868519126
0	6461	60.710198657965	0.089889675106
0	6467	60.800088333071	0.078208862201
0	6473	60.878297195272	0.08152241377
0	6480	60.959819609042	0.051609338614
0	6485	61.011428947656	0.052151411035
0	6490	61.063580358691	0.026264441129
0	6495	61.08984479982	0.121840701088
0	6503	61.211685500908	0.072798844381
0	6508	61.284484345289	0.046183815499
0	6513	61.330668160788	0.041098048354
0	6519	61.371766209142	0.003622498988
0	6521	61.37538870813	0.078911788463
0	6531	61.454300496593	0.033553081534
0	6536	61.487853578127	0.015325351988
0	6541	61.503178930115	0.031679256749
0	6546	61.534858186864	0.0094492062
0	6551	61.544307393064	0.032836068924
0	6557	61.577143461988	0.036122679973
0	6563	61.613266141961	0.079270769567
0	6568	61.692536911528	0.002963281317
0	6570	61.695500192845	0.248466944419
0	6582	61.943967137264	0.029678722864
0	6587	61.973645860128	0.011159180063
0	6592	61.984805040191	0.006409552896
0	6594	61.991214593087	0.042269464754
0	6602	62.033484057841	0.037748242002
0	6608	62.071232299843	0.009593904104
0	6613	62.080826203947	0.022907979051
0	6618	62.103734182998	0.116958870643
0	6623	62.220693053641	0.021523569128
0	6628	62.242216622769	0.093447863538
0	6635	62.335664486307	0.028980927219
0	6640	62.364645413526	0.038651800533
0	6646	62.403297214059	0.020894388806
0	6651	62.424191602865	0.013676680277
0	6656	62.437868283142	0.050923584949
0	6661	62.488791868091	0.0040658014
0	6663	62.492857669491	0.070440257556
0	6671	62.563297927047	0.021519209848
0	6676	62.584817136895	0.059081621825
0	6681	62.64389875872	0.06826207444
0	6689	62.71216083316	0.019449903483
0	6694	62.731610736643	0.063820201882
0	6699	62.795430938525	0.029005932737
0	6704	62.824436871262	0.044909674502
0	6709	62.869346545764	0.03378293913
0	6714	62.903129484894	0.104582223854
0	6720	63.007711708748	0.014408003408
0	6725	63.022119712156	0.003657779803
0	6727	63.025777491959	0.027343578349
0	6735	63.053121070308	0.038994765865
0	6740	63.092115836173	0.012661642662
0	6745	63.104777478835	0.020300430836
0	6750	63.125077909671	0.05215214263
0	6756	63.177230052301	0.063250718469
0	6761	63.24048077077	0.031940694635
0	6767	63.272421465405	0.025639651372
0	6772	63.298061116777	0.104959361853
0	6778	63.40302047863	0.075766919493
0	6783	63.478787398123	0.006584325555
0	6785	63.485371723678	0.063260951484
0	6793	63.548632675162	0.062222260014
0	6799	63.610854935176	0.075299921256
0	6804	63.686154856432	0.056096215575
0	6809	63.742251072007	0.059908056967
0	6814	63.802159128974	0.007452861044
0	6816	63.809611990018	0.062829636099
0	6824	63.872441626117	0.020401571245
0	6829	63.892843197362	0.088771368816
0	6834	63.981614566178	0.03891004277
0	6839	64.020524608948	0.013552660322
0	6844	64.03407726927	0.009855951338
0	6849	64.043933220608	0.013557310826
0	6854	64.057490531434	0.021523858501
0	6859	64.079014389935	0.069104834138
0	6865	64.148119224073	0.011474686192
0	6870	64.159593910265	0.078908590877
0	6875	64.238502501142	0.037094234803
0	6880	64.275596735945	0.047473910891
0	6885	64.323070646836	0.069637301596
0	6891	64.392707948432	0.007787581104
0	6893	64.400495529536	0.045967586324
0	6901	64.44646311586	0.034681060891
0	6906	64.481144176751	0.004602074892
0	6908	64.485746251643	0.048708697763
0	6917	64.534454949406	0.044037096109
0	6923	64.578492045515	0.039319102572
0	6928	64.617811148087	0.04247606795
0	6933	64.660287216037	0.031877402661
0	6938	64.692164618698	0.010746132695
0	6943	64.702910751393	0.05732150285
0	6949	64.760232254243	0.117690827611
0	6956	64.877923081854	0.042185017191
0	6961	64.920108099045	0.037693537309
0	6966	64.957801636354	0.029050465033
0	6971	64.986852101387	0.015851102162
0	6976	65.002703203549	0.09933195133
0	6981	65.102035154879	0.042513785372
0	6986	65.144548940251	0.223250236824
0	6992	65.367799177075	0.039866947391
0	6997	65.407666124466	0.002546208874
0	6999	65.41021233334	0.003216952922
0	7001	65.413429286262	0.044130078405
0	7012	65.457559364667	0.052922587319
0	7017	65.510481951986	0.065723829072
0	7022	65.576205781058	0.019779009139
0	7027	65.595984790197	0.028299707924
0	7032	65.624284498121	0.06500233647
0	7038	65.689286834591	0.336609700539
0	7045	66.02589653513	0.068115474148
0	7051	66.094012009278	0.006689229531
0	7053	66.100701238809	0.110631085907
0	7063	66.211332324716	0.035961202514
0	7068	66.24729352723	0.032767960773
0	7073	66.280061488003	0.012250743667
0	7078	66.29231223167	0.077932745784
0	7083	66.370244977454	0.016199089914
0	7089	66.386444067368	0.03796531806
0	7094	66.424409385428	0.004706516378
0	7096	66.429115901806	0.03472669802
0	7106	66.463842599826	0.002599798377
0	7108	66.466442398203	0.053601788391
0	7116	66.520044186594	0.018772271754
0	7121	66.538816458348	0.06577264173
0	7126	66.604589100078	0.175251481566
0	7132	66.779840581644	0.037330935082
0	7137	66.817171516726	0.077404672853
0	7142	66.894576189579	0.049752796321
0	7147	66.9443289859	0.051181602772
0	7152	66.995510588672	0.064895831942
0	7157	67.060406420614	0.198612943481
0	7162	67.259019364095	0.183989396683
0	7168	67.443008760778	0.075796475419
0	7173	67.518805236197	0.081448329125
0	7178	67.600253565322	0.022346124003
0	7183	67.622599689325	0.091870814201
0	7188	67.714470503526	0.005650063289
0	7190	67.720120566815	0.099584292592
0	7199	67.819704859407	0.008205438293
0	7204	67.8279102977	0.036693194805
0	7210	67.864603492505	0.108405107835
0	7215	67.97300860034	0.012769569147
0	7220	67.985778169487	0.00381594803
0	7222	67.989594117517	0.092050795128
0	7230	68.081644912645	0.006810006483
0	7232	68.088454919128	0.016817680943
0	7241	68.105272600071	0.003927033804
0	7243	68.109199633875	0.00469991792
0	7248	68.113899551795	0.015693700955
0	7256	68.12959325275	0.042642826559
0	7261	68.172236079309	0.033527186503
0	7266	68.205763265812	0.05208334243
0	7273	68.257846608242	0.04707833435
0	7278	68.304924942592	0.059070739277
0	7283	68.363995681869	0.003738838332
0	7285	68.367734520201	0.000291434937
0	7287	68.368025955138	0.010719806277
0	7293	68.378745761415	0.037942671164
0	7304	68.416688432579	0.028616794097
0	7309	68.445305226676	0.047183356383
0	7314	68.492488583059	0.012806389361
0	7319	68.50529497242	0.009453858967
0	7324	68.514748831387	0.022195271092
0	7329	68.536944102479	0.038048159298
0	7334	68.574992261777	0.016143548003
0	7339	68.59113580978	0.043169251087
0	7345	68.634305060867	0.276723374097
0	7350	68.911028434964	0.019248879676
0	7355	68.93027731464	0.012843609298
0	7360	68.943120923938	0.073024551181
0	7368	69.016145475119	0.027582811784
0	7373	69.043728286903	0.010589165668
0	7378	69.054317452571	0.088836914065
0	7385	69.143154366636	0.018604336584
0	7390	69.16175870322	0.015280606596
0	7395	69.177039309816	0.000994141248
0	7397	69.178033451064	0.086372947555
0	7405	69.264406398619	0.131733205808
0	7410	69.396139604427	0.03919674197
0	7415	69.435336346397	0.093639567604
0	7420	69.528975914001	0.091941862238
0	7425	69.620917776239	0.006901856784
0	7427	69.627819633023	0.024840444606
0	7436	69.652660077629	0.023168656136
0	7441	69.675828733765	0.013676629452
0	7446	69.689505363217	0.038453403602
0	7451	69.727958766819	0.056631647117
0	7456	69.784590413936	0.020558077961
0	7461	69.805148491897	0.062126978212
0	7466	69.867275470109	0.110536359598
0	7472	69.977811829707	0.036769295344
0	7477	70.014581125051	0.019939946704
0	7482	70.034521071755	0.007569423734
0	7484	70.042090495489	0.048265108408
0	7492	70.090355603897	0.134504805233
0	7498	70.22486040913	0.236170530671
0	7505	70.461030939801	0.228267816545
0	7510	70.689298756346	0.079847916432
0	7515	70.769146672778	0.089952283861
0	7522	70.859098956639	0.051957957102
0	7527	70.911056913741	0.089932779092
0	7535	71.000989692833	0.001457650846
0	7537	71.002447343679	0.001997803042
0	7539	71.004445146721	0.007352868087
0	7544	71.011798014808	0.022148629375
0	7555	71.033946644183	0.05193848649
0	7561	71.085885130673	0.041291182281
0	7566	71.127176312954	0.064367172742
0	7571	71.191543485696	0.027699447515
0	7576	71.219242933211	0.084798691232
0	7582	71.304041624443	0.029780135913
0	7588	71.333821760356	0.036791619104
0	7594	71.37061337946	0.004479684883
0	7596	71.375093064343	0.020810150776
0	7604	71.395903215119	0.054497504383
0	7609	71.450400719502	0.074367684302
0	7614	71.524768403804	0.00520250452
0	7616	71.529970908324	0.014731299609
0	7624	71.544702207933	0.013675764464
0	7630	71.558377972397	0.026113351335
0	7635	71.584491323732	0.001498092975
0	7637	71.585989416707	0.02170308038
0	7645	71.607692497087	0.038108567784
0	7650	71.645801064871	0.044186286184
0	7655	71.689987351055	0.156819320646
0	7661	71.846806671701	0.051895498881
0	7666	71.898702170582	0.02116479825
0	7671	71.919866968832	0.026799468574
0	7676	71.946666437406	0.0069111645
0	7678	71.953577601906	0.103286373129
0	7686	72.056863975035	0.035389424003
0	7691	72.092253399038	0.042234943016
0	7697	72.134488342054	0.064968255479
0	7702	72.199456597533	0.001787101125
0	7704	72.201243698658	0.048541883052
0	7713	72.24978558171	0.317963396263
0	7721	72.567748977973	0.047494393127
0	7726	72.6152433711	0.04950099928
0	7731	72.66474437038	0.004660209572
0	7733	72.669404579952	0.017341336151
0	7741	72.686745916103	0.010748771798
0	7746	72.697494687901	0.068824275328
0	7751	72.766318963229	0.052132005539
0	7758	72.818450968768	0.005000065071
0	7760	72.823451033839	0.068248224285
0	7768	72.891699258124	0.006712844803
0	7770	72.898412102927	0.080926127823
0	7779	72.97933823075	0.019197575943
0	7784	72.998535806693	0.022877149732
0	7789	73.021412956425	0.152665275521
0	7797	73.174078231946	0.093692518633
0	7802	73.267770750579	0.01298965254
0	7807	73.280760403119	0.01462866294
0	7812	73.295389066059	0.149079792868
0	7817	73.444468858927	0.053660311447
0	7822	73.498129170374	0.031494702415
0	7827	73.529623872789	0.030764251111
0	7833	73.5603881239	0.010765529432
0	7838	73.571153653332	0.005106965384
0	7840	73.576260618716	0.078261001979
0	7848	73.654521620695	0.001234339847
0	7850	73.655755960542	0.033593530316
0	7858	73.689349490858	0.01030100442
0	7863	73.699650495278	0.121976829053
0	7868	73.821627324331	0.129776181165
0	7873	73.951403505496	0.134248158463
0	7878	74.085651663959	0.014215703341
0	7884	74.0998673673	0.064933351462
0	7890	74.164800718762	0.019224059953
0	7895	74.184024778715	0.109654209117
0	7901	74.293678987832	0.120026292388
0	7906	74.41370528022	0.021497033527
0	7911	74.435202313747	0.014664218039
0	7916	74.449866531786	0.016623238056
0	7921	74.466489769842	0.017691725907
0	7927	74.484181495749	0.010170317144
0	7932	74.494351812893	0.016964697466
0	7937	74.511316510359	0.070639001858
0	7943	74.581955512217	0.078090774236
0	7948	74.660046286453	0.000892525021
0	7950	74.660938811474	0.037621485782
0	7958	74.698560297256	7.2363565e-05
0	7960	74.698632660821	0.02704944531
0	7968	74.725682106131	0.020071647223
0	7973	74.745753753354	0.01724942142
0	7978	74.763003174774	0.008864539898
0	7983	74.771867714672	0.006435773691
0	7985	74.778303488363	0.020140684033
0	7993	74.798444172396	0.098623798798
0	7999	74.897067971194	0.0977269796
0	8005	74.994794950794	0.074918903599
0	8010	75.069713854393	0.001103251641
0	8012	75.070817106034	0.069868901148
0	8021	75.140686007182	0.046069212113
0	8027	75.186755219295	0.038751807868
0	8032	75.225507027163	0.047361657419
0	8037	75.272868684582	0.135612836771
0	8043	75.408481521353	0.010280104014
0	8048	75.418761625367	0.016956850562
0	8054	75.435718475929	0.022632748535
0	8060	75.458351224464	0.066644680449
0	8067	75.524995904913	0.021322895009
0	8072	75.546318799922	0.037374565125
0	8077	75.583693365047	0.017096708546
0	8082	75.600790073593	0.028930135074
0	8087	75.629720208667	0.058353561689
0	8093	75.688073770356	0.146368248575
0	8099	75.834442018931	0.096378793802
0	8104	75.930820812733	0.064978122635
0	8109	75.995798935368	0.053761813696
0	8114	76.049560749064	0.004467184319
0	8116	76.054027933383	0.009651848855
0	8122	76.063679782238	0.021973463555
0	8130	76.085653245793	0.04606024941
0	8135	76.131713495203	0.023727205953
0	8140	76.155440701156	0.02582862487
0	8145	76.181269326026	0.000683702349
0	8147	76.181953028375	0.056587150283
0	8155	76.238540178658	0.036855552883
0	8160	76.275395731541	0.025104218585
0	8166	76.300499950126	0.016825436847
0	8171	76.317325386973	0.007836489804
0	8173	76.325161876777	0.123681133946
0	8183	76.448843010723	0.001282981329
0	8185	76.450125992052	0.0839980756
0	8194	76.534124067652	0.068490298966
0	8199	76.602614366618	0.040099343273
0	8204	76.642713709891	0.158016742567
0	8212	76.800730452458	0.150319618742
0	8218	76.9510500712	0.100490075543
0	8224	77.051540146743	0.054378434446
0	8229	77.105918581189	0.022986260337
0	8235	77.128904841526	0.012072660687
0	8240	77.140977502213	0.078855685989
0	8245	77.219833188202	0.029787399792
0	8250	77.249620587994	0.005759051427
0	8252	77.255379639421	0.028350645291
0	8260	77.283730284712	0.062694416503
0	8265	77.346424701215	0.035372191985
0	8271	77.3817968932	0.192316812765
0	8276	77.574113705965	0.079709397512
0	8283	77.653823103477	0.016941765522
0	8288	77.670764868999	0.110075798822
0	8294	77.780840667821	0.057843995149
0	8300	77.83868466297	0.012970472197
0	8305	77.851655135167	0.068112862349
0	8311	77.919767997516	0.152216707218
0	8318	78.071984704734	0.014878563906
0	8324	78.08686326864	0.058509238947
0	8330	78.145372507587	0.005209297317
0	8332	78.150581804904	0.029198334202
0	8340	78.179780139106	0.006655992302
0	8342	78.186436131408	0.022707976495
0	8350	78.209144107903	0.136791275314
0	8355	78.345935383217	0.142994405146
0	8362	78.488929788363	0.075459306278
0	8369	78.564389094641	0.012437241687
0	8374	78.576826336328	0.136978202588
0	8380	78.713804538916	0.015526455287
0	8385	78.729330994203	0.02143599973
0	8390	78.750766993933	0.008753645854
0	8395	78.759520639787	0.019939657334
0	8400	78.779460297121	0.142694367696
0	8405	78.922154664817	0.02899358311
0	8410	78.951148247927	0.044286532222
0	8415	78.995434780149	0.122012909873
0	8421	79.117447690022	0.013263571305
0	8426	79.130711261327	0.09854613531
0	8431	79.229257396637	0.003949602817
0	8433	79.233206999454	0.390071859123
0	8446	79.623278858577	0.093566440979
0	8452	79.716845299556	0.004363332963
0	8454	79.721208632519	0.006910751282
0	8459	79.728119383801	0.057921823507
0	8467	79.786041207308	0.003405719273
0	8469	79.789446926581	0.006095048305
0	8474	79.795541974886	0.023101531806
0	8482	79.818643506692	0.045670395423
0	8487	79.864313902115	0.001088655523
0	8489	79.865402557638	0.047789459995
0	8498	79.913192017633	0.066157229659
0	8503	79.979349247292	0.037319203887
0	8508	80.016668451179	0.03699667925
0	8513	80.053665130429	0.034846088613
0	8518	80.088511219042	0.040368306158
0	8523	80.1288795252	0.061175978881
0	8528	80.190055504081	0.106226949334
0	8535	80.296282453415	0.029056396258
0	8541	80.325338849673	0.011567875911
0	8546	80.336906725584	0.000736522897
0	8548	80.337643248481	0.14156574466
0	8557	80.479208993141	0.032120459262
0	8562	80.511329452403	0.00948475452
0	8567	80.520814206923	0.022288049178
0	8572	80.543102256101	0.008105709379
0	8577	80.55120796548	0.008972684139
0	8582	80.560180649619	0.029617849732
0	8588	80.589798499351	0.00540895349
0	8590	80.595207452841	0.079132796713
0	8598	80.674340249554	0.065703793512
0	8603	80.740044043066	0.00997936559
0	8608	80.750023408656	0.097160053579
0	8613	80.847183462235	0.326109994555
0	8619	81.17329345679	0.018694472486
0	8625	81.191987929276	0.027971282987
0	8630	81.219959212263	0.077426002536
0	8637	81.297385214799	0.016728176246
0	8642	81.314113391045	0.020754160015
0	8647	81.33486755106	0.03034611784
0	8652	81.3652136689	0.189338262627
0	8657	81.554551931527	0.023302469243
0	8662	81.57785440077	0.011248546367
0	8667	81.589102947137	0.119881055799
0	8674	81.708984002936	0.030125820052
0	8679	81.739109822988	0.070112837502
0	8685	81.80922266049	0.049639027554
0	8690	81.858861688044	0.073712627727
0	8697	81.932574315771	0.010007627037
0	8702	81.942581942808	0.002426025843
0	8704	81.945007968651	0.025965803132
0	8713	81.970973771783	0.005166437766
0	8715	81.976140209549	0.002914350267
0	8720	81.979054559816	0.015924363711
0	8728	81.994978923527	0.051571706369
0	8735	82.046550629896	0.021131598921
0	8740	82.067682228817	0.152582630956
0	8746	82.220264859773	0.017765779894
0	8751	82.238030639667	0.017373533831
0	8756	82.255404173498	0.014792928181
0	8761	82.270197101679	0.061553027421
0	8766	82.3317501291	0.003223321447
0	8768	82.334973450547	0.112813894187
0	8778	82.447787344734	0.105913861726
0	8785	82.55370120646	0.04340481894
0	8790	82.5971060254	0.035350620189
0	8796	82.632456645589	0.043803503457
0	8801	82.676260149046	0.042093041396
0	8806	82.718353190442	0.00278503549
0	8808	82.721138225932	0.005823157712
0	8813	82.726961383644	0.018096989445
0	8821	82.745058373089	0.034392845879
0	8827	82.779451218968	0.072003324121
0	8833	82.851454543089	0.260250541099
0	8841	83.111705084188	0.007773360331
0	8846	83.119478444519	0.011733096308
0	8851	83.131211540827	0.000359467275
0	8853	83.131571008102	0.058263081913
0	8862	83.189834090015	0.005356356941
0	8864	83.195190446956	0.036859184755
0	8874	83.232049631711	0.031469910673
0	8879	83.263519542384	0.015805143746
0	8884	83.27932468613	0.085035739204
0	8889	83.364360425334	0.206405863118
0	8895	83.570766288452	0.0116311906
0	8900	83.582397479052	0.041588856735
0	8905	83.623986335787	0.041940727757
0	8911	83.665927063544	0.075181849346
0	8916	83.74110891289	0.097707795874
0	8921	83.838816708764	0.005787788484
0	8924	83.844604497248	0.003159864626
0	8929	83.847764361874	0.007690443709
0	8934	83.855454805583	0.060874122095
0	8942	83.916328927678	0.015935711265
0	8947	83.932264638943	0.037481181586
0	8952	83.969745820529	0.019974393254
0	8958	83.989720213783	0.063835924238
0	8963	84.053556138021	0.028592775131
0	8968	84.082148913152	0.014554055138
0	8973	84.09670296829	0.067981443642
0	8978	84.164684411932	0.154275729485
0	8984	84.318960141417	0.005551004965
0	8986	84.324511146382	0.053469253582
0	8994	84.377980399964	0.092647663709
0	8999	84.470628063673	0.016350686161
0	9004	84.486978749834	0.021603442554
0	9009	84.508582192388	0.005253760427
0	9011	84.513835952815	0.14253368462
0	9020	84.656369637435	0.048568807516
0	9025	84.704938444951	0.077997803413
0	9030	84.782936248364	0.075683691754
0	9037	84.858619940118	0.000631486918
0	9039	84.859251427036	0.031770039407
0	9047	84.891021466443	0.072019374244
0	9052	84.963040840687	0.031427314117
0	9057	84.994468154804	0.04671589607
0	9062	85.041184050874	0.400439180482
0	9071	85.441623231356	0.076856828834
0	9077	85.51848006019	0.054072502648
0	9082	85.572552562838	0.020565984743
0	9087	85.593118547581	0.010824724679
0	9092	85.60394327226	0.005231394241
0	9094	85.609174666501	0.004800449595
0	9099	85.613975116096	0.053621361035
0	9108	85.667596477131	0.006719812137
0	9110	85.674316289268	0.011488266832
0	9118	85.6858045561	0.072152197121
0	9124	85.757956753221	0.029078515572
0	9129	85.787035268793	0.043548281941
0	9135	85.830583550734	0.029755808119
0	9142	85.860339358853	0.007499873741
0	9144	85.867839232594	0.09949038921
0	9153	85.967329621804	0.038737362528
0	9158	86.006066984332	0.035158054542
0	9163	86.041225038874	0.026333582228
0	9168	86.067558621102	0.093272831721
0	9175	86.160831452823	0.046076272983
0	9180	86.206907725806	0.041468307895
0	9185	86.248376033701	0.041380687503
0	9190	86.289756721204	0.006132909108
0	9192	86.295889630312	0.004665489875
0	9197	86.300555120187	0.010354474216
0	9202	86.310909594403	0.045276874833
0	9210	86.356186469236	0.012332080065
0	9215	86.368518549301	0.011063790775
0	9220	86.379582340076	0.075913775866
0	9226	86.455496115942	0.02941765689
0	9231	86.484913772832	0.028797267986
0	9237	86.513711040818	0.067444461963
0	9243	86.581155502781	0.026976659502
0	9248	86.608132162283	0.035875118276
0	9253	86.644007280559	0.024034962007
0	9258	86.668042242566	0.075829209167
0	9263	86.743871451733	0.133197873845
0	9269	86.877069325578	0.039140956947
0	9274	86.916210282525	0.048461351812
0	9280	86.964671634337	0.001872539114
0	9282	86.966544173451	0.015824628968
0	9290	86.982368802419	0.021934558735
0	9295	87.004303361154	0.040777982868
0	9300	87.045081344022	0.048329335711
0	9306	87.093410679733	0.026394199513
0	9312	87.119804879246	0.046730718329
0	9317	87.166535597575	0.008255915725
0	9319	87.1747915133	0.005927563502
0	9324	87.180719076802	0.000188820779
0	9326	87.180907897581	0.156434206607
0	9338	87.337342104188	0.026191596832
0	9344	87.36353370102	0.014490959164
0	9349	87.378024660184	0.028736934295
0	9355	87.406761594479	0.091573624503
0	9360	87.498335218982	0.257738867463
0	9366	87.756074086445	0.025581644593
0	9371	87.781655731038	0.046963880522
0	9376	87.82861961156	0.020778836896
0	9381	87.849398448456	0.02035637138
0	9387	87.869754819836	0.011425033357
0	9392	87.881179853193	0.020770037615
0	9397	87.901949890808	0.015240672038
0	9402	87.917190562846	0.110612690266
0	9408	88.027803253112	0.038385531126
0	9414	88.066188784238	0.007751437285
0	9419	88.073940221523	0.052111848563
0	9424	88.126052070086	0.090694847905
0	9430	88.216746917991	0.13916518421
0	9436	88.355912102201	0.044888527592
0	9441	88.400800629793	0.087231017864
0	9446	88.488031647657	0.073046019592
0	9452	88.561077667249	0.034846687431
0	9457	88.59592435468	0.01539439661
0	9462	88.61131875129	0.019693404386
0	9467	88.631012155676	0.027751584238
0	9472	88.658763739914	0.030291330412
0	9477	88.689055070326	0.095923997152
0	9483	88.784979067478	0.011541547437
0	9488	88.796520614915	0.063367591043
0	9493	88.859888205958	0.046042327127
0	9498	88.905930533085	0.126608278927
0	9503	89.032538812012	0.027020460617
0	9508	89.059559272629	0.10756985161
0	9515	89.167129124239	0.095452818652
0	9521	89.262581942891	0.018003780068
0	9526	89.280585722959	0.021863901943
0	9531	89.302449624902	0.069057309924
0	9537	89.371506934826	0.023225470358
0	9542	89.394732405184	0.065055936158
0	9547	89.459788341342	0.003288548925
0	9549	89.463076890267	0.010647283042
0	9554	89.473724173309	0.00274269048
0	9559	89.476466863789	0.008973191104
0	9564	89.485440054893	0.092079258679
0	9572	89.577519313572	0.209665126295
0	9577	89.787184439867	0.009862003624
0	9582	89.797046443491	0.002633995483
0	9584	89.799680438974	0.038495518187
0	9592	89.838175957161	0.005849897659
0	9595	89.84402585482	0.201477520075
0	9603	90.045503374895	0.015553792701
0	9608	90.061057167596	0.116168703195
0	9614	90.177225870791	0.053422951384
0	9620	90.230648822175	0.043656197346
0	9625	90.274305019521	0.023104374902
0	9630	90.297409394423	0.128836036821
0	9636	90.426245431244	0.094062129657
0	9642	90.520307560901	0.156601366869
0	9648	90.67690892777	0.009645886249
0	9653	90.686554814019	0.056943980071
0	9659	90.74349879409	0.008441633445
0	9665	90.751940427535	0.047221387672
0	9670	90.799161815207	0.003298129616
0	9672	90.802459944823	0.087243304494
0	9680	90.889703249317	0.013047181687
0	9685	90.902750431004	0.026543022131
0	9690	90.929293453135	0.004630087299
0	9692	90.933923540434	0.172767167906
0	9703	91.10669070834	0.084969131537
0	9708	91.191659839877	0.002407854803
0	9710	91.19406769468	0.015990719162
0	9718	91.210058413842	0.04778930498
0	9723	91.257847718822	0.069618311246
0	9728	91.327466030068	0.034862847996
0	9733	91.362328878064	0.049101025241
0	9738	91.411429903305	0.013232591829
0	9743	91.424662495134	0.052729474684
0	9748	91.477391969818	0.053396115161
0	9753	91.530788084979	0.034963085683
0	9758	91.565751170662	0.043197822806
0	9763	91.608948993468	0.002708067055
0	9766	91.611657060523	0.02617980755
0	9774	91.637836868073	0.009830871364
0	9779	91.647667739437	0.050270520747
0	9784	91.697938260184	0.026144995069
0	9789	91.724083255253	0.030262043797
0	9794	91.75434529905	0.150039301883
0	9799	91.904384600933	0.11648707874
0	9804	92.020871679673	0.086365145309
0	9809	92.107236824982	0.032759098058
0	9814	92.13999592304	0.004271714107
0	9816	92.144267637147	0.00844715113
0	9821	92.152714788277	0.008825547276
0	9829	92.161540335553	0.027224383271
0	9834	92.188764718824	0.023121133833
0	9839	92.211885852657	0.026837284485
0	9844	92.238723137142	0.119300193377
0	9850	92.358023330519	0.021905520433
0	9855	92.379928850952	0.019685133326
0	9860	92.399613984278	0.121039067214
0	9866	92.520653051492	0.093402087318
0	9873	92.61405513881	0.037916367095
0	9878	92.651971505905	0.110830214231
0	9883	92.762801720136	0.04865977762
0	9890	92.811461497756	0.009387542461
0	9895	92.820849040217	0.021533211794
0	9900	92.842382252011	0.040147754529
0	9905	92.88253000654	0.001429885206
0	9907	92.883959891746	0.019715577135
0	9915	92.903675468881	0.017846230327
0	9920	92.921521699208	0.02030651955
0	9925	92.941828218758	0.052420376379
0	9931	92.994248595137	0.017207538915
0	9936	93.011456134052	0.142834781544
0	9942	93.154290915596	0.007086017215
0	9947	93.161376932811	0.051734353575
0	9953	93.213111286386	0.001955655791
0	9955	93.215066942177	0.141728430228
0	9966	93.356795372405	0.223966404666
0	9972	93.580761777071	0.010613332412
0	9977	93.591375109483	0.095373265992
0	9982	93.686748375475	0.086758578584
0	9988	93.773506954059	0.014920433262
0	9993	93.788427387321	0.091531904002
0	9998	93.879959291323	0.022421657511
0	10003	93.902380948834	0.146625620352
0	10009	94.049006569186	0.296391890479
0	10015	94.345398459665	0.018789700998
0	10020	94.364188160663	0.066002613273
0	10026	94.430190773936	0.087629531759
0	10031	94.517820305695	0.010674648459
0	10036	94.528494954154	0.034863226222
0	10041	94.563358180376	0.034339408993
0	10047	94.597697589369	0.068770213535
0	10053	94.666467802904	0.013952528635
0	10058	94.680420331539	0.028804859858
0	10063	94.709225191397	0.115934957816
0	10068	94.825160149213	0.193692745102
0	10073	95.018852894315	0.0056424548
0	10075	95.024495349115	0.000445605181
0	10077	95.024940954296	0.093373754681
0	10088	95.118314708977	0.067256810753
0	10094	95.18557151973	0.091320865357
0	10100	95.276892385087	0.006119872158
0	10102	95.283012257245	0.038136363011
0	10111	95.321148620256	0.016663530114
0	10116	95.33781215037	0.005990293092
0	10118	95.343802443462	0.053178059136
0	10126	95.396980502598	0.018042077072
0	10131	95.41502257967	0.083247001493
0	10136	95.498269581163	0.124352459813
0	10142	95.622622040976	0.084357096287
0	10147	95.706979137263	0.0819231188
0	10152	95.788902256063	0.024669978373
0	10157	95.813572234436	0.031407350665
0	10162	95.844979585101	0.050602392319
0	10167	95.89558197742	0.005731264736
0	10169	95.901313242156	0.059832571592
0	10177	95.961145813748	0.11044873866
0	10182	96.071594552408	0.089501495476
0	10187	96.161096047884	0.01038959469
0	10192	96.171485642574	0.005442769639
0	10194	96.176928412213	0.0388203178
0	10202	96.215748730013	0.022307863951
0	10207	96.238056593964	0.004567483657
0	10209	96.242624077621	0.035295806724
0	10217	96.277919884345	0.042537815448
0	10222	96.320457699793	0.174942366884
0	10229	96.495400066677	0.038206441226
0	10234	96.533606507903	0.171381334837
0	10241	96.70498784274	0.009091859661
0	10246	96.714079702401	0.003642923471
0	10248	96.717722625872	0.060121274979
0	10256	96.777843900851	0.01636326782
0	10261	96.794207168671	0.008725690138
0	10266	96.802932858809	0.142738937407
0	10272	96.945671796216	0.105899017511
0	10277	97.051570813727	0.055347671871
0	10283	97.106918485598	0.047308780601
0	10289	97.154227266199	0.041095051199
0	10294	97.195322317398	0.026466750062
0	10299	97.22178906746	0.064057955681
0	10306	97.285847023141	0.010699848785
0	10311	97.296546871926	0.00542134568
0	10314	97.301968217606	0.014162783759
0	10322	97.316131001365	0.003859599236
0	10324	97.319990600601	0.033868970169
0	10332	97.35385957077	0.027109118545
0	10337	97.380968689315	0.06826539768
0	10342	97.449234086995	0.045630648881
0	10348	97.494864735876	0.026271961486
0	10353	97.521136697362	0.04180497123
0	10359	97.562941668592	0.009994930198
0	10364	97.57293659879	0.049879715792
0	10369	97.622816314582	0.014080576048
0	10374	97.63689689063	0.027456409263
0	10379	97.664353299893	0.012357191934
0	10385	97.676710491827	0.003224207898
0	10387	97.679934699725	0.019234568201
0	10396	97.699169267926	0.04816035325
0	10401	97.747329621176	0.063213323381
0	10407	97.810542944557	0.010039968113
0	10412	97.82058291267	0.011631062543
0	10417	97.832213975213	0.040356126652
0	10422	97.872570101865	0.119353013021
0	10428	97.991923114886	0.065950243443
0	10433	98.057873358329	0.01394416767
0	10438	98.071817525999	0.040562638642
0	10443	98.112380164641	0.155724801204
0	10450	98.268104965845	0.098853043766
0	10458	98.366958009611	0.052074752744
0	10464	98.419032762355	0.009213353703
0	10469	98.428246116058	0.01090778407
0	10474	98.439153900128	0.000838682567
0	10476	98.439992582695	0.051931261948
0	10486	98.491923844643	0.042808638793
0	10491	98.534732483436	0.073505967076
0	10498	98.608238450512	0.004493490452
0	10500	98.612731940964	0.059392057628
0	10508	98.672123998592	0.129615410225
0	10513	98.801739408817	0.027122941713
0	10518	98.82886235053	0.061299577831
0	10524	98.890161928361	0.007855662262
0	10526	98.898017590623	0.167829058289
0	10536	99.065846648912	0.008190511385
0	10541	99.074037160297	0.002530262389
0	10543	99.076567422686	0.015846504309
0	10551	99.092413926995	0.028164068507
0	10556	99.120577995502	0.059711718463
0	10561	99.180289713965	0.035845279743
0	10567	99.216134993708	0.023342295338
0	10572	99.239477289046	0.007383864892
0	10574	99.246861153938	0.102318814576
0	10582	99.349179968514	0.011475297272
0	10587	99.360655265786	0.05876736597
0	10593	99.419422631756	0.032276772615
0	10598	99.451699404371	0.047050147238
0	10603	99.498749551609	0.058397750643
0	10610	99.557147302252	0.007642259105
0	10612	99.564789561357	0.1079942168
0	10621	99.672783778157	0.102481719405
0	10628	99.775265497562	0.014049870984
0	10633	99.789315368546	0.014786838824
0	10638	99.80410220737	0.004569757032
0	10640	99.808671964402	0.004057451898
0	10645	99.8127294163	0.025689966086
0	10653	99.838419382386	0.172272798235
0	10660	100.010692180621	0.013748153095
0	10665	100.024440333716	0.000196821565
0	10667	100.024637155281	0.016232119087
0	10675	100.040869274368	0.054949855453
0	10680	100.095819129821	0.107195705821
0	10686	100.203014835642	0.002143754638
0	10688	100.20515859028	0.017941456982
0	10696	100.223100047262	0.032638941324
0	10702	100.255738988586	0.040416317161
0	10707	100.296155305747	0.001955306392
0	10709	100.298110612139	0.00831829811
0	10714	100.306428910249	0.032005357559
0	10722	100.338434267808	0.007899579037
0	10724	100.346333846845	0.046600223832
0	10732	100.392934070677	0.065799255044
0	10737	100.458733325721	0.016360470994
0	10742	100.475093796715	0.016751537826
0	10747	100.491845334541	0.05131930058
0	10754	100.543164635121	0.01823095002
0	10760	100.561395585141	0.062118876909
0	10765	100.62351446205	0.011984760853
0	10770	100.635499222903	0.000586510426
0	10772	100.636085733329	0.089125490572
0	10780	100.725211223901	0.036751740063
0	10787	100.761962963964	0.030377910501
0	10792	100.792340874465	0.004670730871
0	10794	100.797011605336	0.135526925922
0	10803	100.932538531258	0.035002258905
0	10808	100.967540790163	0.134403884368
0	10813	101.101944674531	0.047053972475
0	10818	101.148998647006	0.058707081685
0	10823	101.207705728691	0.117611413738
0	10828	101.325317142429	0.00512900462
0	10830	101.330446147049	0.099116242455
0	10840	101.429562389504	0.030494667041
0	10845	101.460057056545	0.010370483857
0	10850	101.470427540402	0.071787768581
0	10855	101.542215308983	0.079608987617
0	10861	101.6218242966	0.081720860529
0	10867	101.703545157129	0.03092608723
0	10872	101.734471244359	0.082811864294
0	10877	101.817283108653	0.057489206284
0	10882	101.874772314937	0.023248808094
0	10887	101.898021123031	0.057213157241
0	10894	101.955234280272	0.042598899212
0	10900	101.997833179484	0.024944700859
0	10905	102.022777880343	0.019634021907
0	10910	102.04241190225	0.050250206767
0	10915	102.092662109017	0.081241430095
0	10921	102.173903539112	0.015846005394
0	10927	102.189749544506	0.090252099952
0	10932	102.280001644458	0.113115153691
0	10937	102.393116798149	0.045397888584
0	10943	102.438514686733	0.037403122
0	10948	102.475917808733	0.026880578127
0	10953	102.50279838686	0.054183768386
0	10958	102.556982155246	0.093227372551
0	10964	102.650209527797	0.023493788006
0	10969	102.673703315803	0.003998482604
0	10971	102.677701798407	0.14206445998
0	10982	102.819766258387	0.034028735078
0	10987	102.853794993465	0.135880607384
0	10995	102.989675600849	0.001962184851
0	10997	102.9916377857	0.011320099099
0	11003	103.002957884799	0.009257195268
0	11008	103.012215080067	0.112640928851
0	11016	103.124856008918	0.034700279308
0	11022	103.159556288226	0.062748771201
0	11029	103.222305059427	0.010238467305
0	11034	103.232543526732	0.089322969781
0	11039	103.321866496513	0.016130583718
0	11044	103.337997080231	0.020573417924
0	11050	103.358570498155	0.066866634042
0	11055	103.425437132197	0.014441070326
0	11060	103.439878202523	0.016616074298
0	11065	103.456494276821	0.037337902535
0	11071	103.493832179356	0.034009403802
0	11076	103.527841583158	0.228431239982
0	11083	103.75627282314	0.027250249705
0	11089	103.783523072845	0.020936457955
0	11094	103.8044595308	0.166163202558
0	11101	103.970622733358	0.080367385394
0	11108	104.050990118752	0.017986428454
0	11113	104.068976547206	0.020603507869
0	11118	104.089580055075	0.000903787885
0	11120	104.09048384296	0.006922660833
0	11122	104.097406503793	0.002309221379
0	11127	104.099715725172	0.060763642624
0	11142	104.160479367796	0.076445569174
0	11147	104.23692493697	0.053615633731
0	11152	104.290540570701	0.050358299212
0	11157	104.340898869913	0.07544470991
0	11162	104.416343579823	0.030741897424
0	11167	104.447085477247	0.143334114082
0	11173	104.590419591329	0.00091043962
0	11175	104.591330030949	0.014787127413
0	11181	104.606117158362	0.044591493112
0	11189	104.650708651474	0.032187072309
0	11194	104.682895723783	0.051455765789
0	11200	104.734351489572	0.08280896619
0	11207	104.817160455762	0.156435961297
0	11213	104.973596417059	0.149667019191
0	11221	105.12326343625	0.034133482713
0	11226	105.157396918963	0.008380924895
0	11231	105.165777843858	0.05129595006
0	11236	105.217073793918	0.023058468524
0	11242	105.240132262442	0.105637045239
0	11247	105.345769307681	0.021934710392
0	11252	105.367704018073	0.013145772006
0	11257	105.380849790079	0.154434117591
0	11264	105.53528390767	0.025225785806
0	11269	105.560509693476	0.048472362389
0	11275	105.608982055865	0.056230463328
0	11280	105.665212519193	0.005271211103
0	11282	105.670483730296	0.092736411769
0	11292	105.763220142065	0.028932662891
0	11297	105.792152804956	0.065084137422
0	11302	105.857236942378	0.071153091519
0	11311	105.928390033897	0.032428648266
0	11316	105.960818682163	0.043337951447
0	11321	106.00415663361	0.076635248659
0	11327	106.080791882269	0.079608586106
0	11332	106.160400468375	0.035306926081
0	11338	106.195707394456	0.020335017917
0	11343	106.216042412373	0.124972640998
0	11349	106.341015053371	0.053550257131
0	11355	106.394565310502	0.054956852319
0	11360	106.449522162821	0.006881565844
0	11362	106.456403728665	0.020304079883
0	11370	106.476707808548	0.161824291724
0	11378	106.638532100272	0.047071223401
0	11383	106.685603323673	0.000304975416
0	11385	106.685908299089	0.00863536312
0	11390	106.694543662209	0.012124153167
0	11396	106.706667815376	0.104225821296
0	11404	106.810893636672	0.038246928817
0	11409	106.849140565489	0.011968500677
0	11416	106.861109066166	0.01729782095
0	11421	106.878406887116	0.002516890975
0	11424	106.880923778091	0.033870773202
0	11432	106.914794551293	0.00653275044
0	11434	106.921327301733	0.003221921976
0	11439	106.924549223709	0.122342368234
0	11449	107.046891591943	0.00870651162
0	11454	107.055598103563	0.046343653254
0	11460	107.101941756817	0.011956920217
0	11465	107.113898677034	0.096498394698
0	11472	107.210397071732	0.047725538542
0	11477	107.258122610274	0.029685829991
0	11482	107.287808440265	0.023256988469
0	11487	107.311065428734	0.000484411163
0	11489	107.311549839897	0.090307306951
0	11497	107.401857146848	0.016949595125
0	11502	107.418806741973	0.051120273769
0	11507	107.469927015742	0.06301631191
0	11513	107.532943327652	0.004215948784
0	11515	107.537159276436	0.017174348833
0	11523	107.554333625269	0.099000301756
0	11528	107.653333927025	0.00422921307
0	11530	107.657563140095	0.045034464223
0	11538	107.702597604318	0.008286409321
0	11543	107.710884013639	0.12504667067
0	11548	107.835930684309	0.112795797114
0	11553	107.948726481423	0.00860577705
0	11558	107.957332258473	0.277473180393
0	11565	108.234805438866	0.029173389181
0	11570	108.263978828047	0.057676512322
0	11575	108.321655340369	0.073619812432
0	11580	108.395275152801	0.098215640734
0	11586	108.493490793535	0.065624705298
0	11591	108.559115498833	0.072269447067
0	11597	108.6313849459	0.086555790546
0	11603	108.717940736446	0.041435070526
0	11608	108.759375806972	0.015071046386
0	11613	108.774446853358	0.08004895533
0	11620	108.854495808688	0.016396259708
0	11625	108.870892068396	0.06413599537
0	11631	108.935028063766	0.032899163034
0	11636	108.9679272268	0.001712180922
0	11638	108.969639407722	0.001704827271
0	11640	108.971344234993	0.089965569591
0	11651	109.061309804584	0.019965425615
0	11656	109.081275230199	0.108627053025
0	11661	109.189902283224	0.026823196787
0	11666	109.216725480011	0.098789653691
0	11671	109.315515133702	0.105409425339
0	11678	109.420924559041	0.049835325406
0	11683	109.470759884447	0.018021748146
0	11688	109.488781632593	0.064948581244
0	11694	109.553730213837	0.116901234119
0	11700	109.670631447956	0.018300206994
0	11705	109.68893165495	0.062588864686
0	11710	109.751520519636	0.04925598953
0	11715	109.800776509166	0.024139509817
0	11720	109.824916018983	0.00978544624
0	11725	109.834701465223	0.0506607066
0	11730	109.885362171823	0.469804792621
0	11740	110.355166964444	0.012528378225
0	11745	110.367695342669	0.081030743325
0	11751	110.448726085994	0.054795313708
0	11756	110.503521399702	0.248384568479
0	11762	110.751905968181	0.003000407659
0	11764	110.75490637584	0.006493570539
0	11769	110.761399946379	0.058546740883
0	11777	110.819946687262	0.039020393609
0	11783	110.858967080871	0.082816140635
0	11789	110.941783221506	0.041552919194
0	11795	110.9833361407	0.024570841094
0	11800	111.007906981794	0.020051705291
0	11805	111.027958687085	0.048733370434
0	11811	111.076692057519	0.04381201036
0	11816	111.120504067879	0.013117140794
0	11821	111.133621208673	0.060420181059
0	11827	111.194041389732	0.235998711578
0	11834	111.43004010131	0.0249434516
0	11839	111.45498355291	0.012862879687
0	11844	111.467846432597	0.007939073248
0	11849	111.475785505845	0.005561390156
0	11851	111.481346896001	0.003048565172
0	11856	111.484395461173	0.082390241035
0	11865	111.566785702208	0.003071529914
0	11867	111.569857232122	0.047574881295
0	11876	111.617432113417	0.012552774713
0	11881	111.62998488813	0.041914698243
0	11887	111.671899586373	0.002808679445
0	11889	111.674708265818	0.072693614147
0	11897	111.747401879965	0.061018577831
0	11902	111.808420457796	0.003541013941
0	11904	111.811961471737	0.112126310588
0	11912	111.924087782325	0.086833218978
0	11919	112.010921001303	0.036778972014
0	11924	112.047699973317	0.002543185734
0	11926	112.050243159051	0.000441915367
0	11928	112.050685074418	0.034689775205
0	11939	112.085374849623	0.030566087986
0	11944	112.115940937609	0.165470352944
0	11951	112.281411290553	0.037418604216
0	11957	112.318829894769	0.040665937755
0	11962	112.359495832524	0.035154544789
0	11967	112.394650377313	0.149151317109
0	11974	112.543801694422	0.032306240042
0	11979	112.576107934464	0.022603841026
0	11984	112.59871177549	0.011570424638
0	11989	112.610282200128	0.036512720705
0	11995	112.646794920833	0.115033790469
0	12001	112.761828711302	0.089617847082
0	12006	112.851446558384	0.027499445964
0	12011	112.878946004348	0.012971302631
0	12016	112.891917306979	0.05895578326
0	12021	112.950873090239	0.095170241481
0	12026	113.04604333172	0.047289422192
0	12031	113.093332753912	0.032403536213
0	12036	113.125736290125	0.025703300102
0	12041	113.151439590227	0.134744638169
[...]
19	27582	253.129311294932	1.4449139091947
19	27727	254.574225204127	2.7760821804091
19	28048	257.350307384536	1.3434430771229
19	28201	258.693750461659	1.8274789815908
19	28369	260.52122944325	2.8561947458017
19	28673	263.377424189052	0.3244461357456
19	28695	263.701870324798	2.1476645112081
19	28871	265.849534836006	0.7929926547582
19	28935	266.642527490764	2.4117556840586
19	29169	269.054283174823	3.8380221094078
19	29512	272.892305284231	0.4972124160493
19	29591	273.38951770028	0.37836660766855
19	29621	273.767884307949	3.1879293521778
19	29937	276.955813660127	0.0014034049326351
19	29938	276.95721706506	5.2296762273071
19	30496	282.186893292367	0.24735191097517
19	30518	282.434245203342	4.9760218819356
19	31067	287.410267085278	1.4547840830544
19	31211	288.865051168332	2.2601538930837
19	31393	291.125205061416	0.13505598893238
19	31405	291.260261050348	1.2439889566066
19	31537	292.504250006955	4.3518404150568
19	32064	296.856090422012	3.0451765807726
19	32349	299.901267002785	1.559280024797
19	32521	301.460547027582	3.3696673265478
19	32856	304.83021435413	0.64300983241717
19	32915	305.473224186547	8.5258555175512
19	33787	313.999079704098	0.81910060120781
19	33875	314.818180305306	1.1066464095864
19	33989	315.924826714892	2.5627514478973
19	34240	318.487578162789	4.238665470551
19	34646	322.72624363334	8.0729742103578
19	35559	330.799217843698	4.4446315876966
19	36015	335.243849431395	0.93916031726109
19	36111	336.183009748656	1.5511788271634
19	36307	337.734188575819	0.96267688870101
19	36441	338.69686546452	0.23514729584658
19	36448	338.932012760367	0.7140380881421
19	36514	339.646050848509	0.56158659261866
19	36597	340.207637441128	1.4875157917431
19	36769	341.695153232871	2.346234327967
19	37014	344.041387560838	1.8993591449402
19	37207	345.940746705778	2.7403476062607
19	37467	348.681094312039	0.28349455945335
19	37489	348.964588871492	0.01225132838722
19	37490	348.976840199879	0.84399058080814
19	37586	349.820830780687	0.67908510387595
19	37620	350.499915884563	1.7373193321406
19	37825	352.237235216704	6.1813820307075
19	38423	358.418617247412	1.4184181915212
19	38586	359.837035438933	1.6998817864665
19	38760	361.536917225399	1.1252124493274
19	38846	362.662129674726	2.1340955518053
19	39049	364.796225226531	3.8481853395894
19	39425	368.64441056612	2.2217132352442
19	39664	370.866123801364	2.940981590478
19	39978	373.807105391842	4.5027647311249
19	40487	378.309870122967	0.11552577062583
19	40513	378.425395893593	1.2709753812209
19	40644	379.696371274814	0.51100432957582
19	40697	380.20737560439	0.72472392772054
19	40800	380.932099532111	1.3768753079212
19	40944	382.308974840032	0.65093573297416
19	41029	382.959910573006	1.3770711730277
19	41208	384.336981746034	0.14205151353669
19	41211	384.479033259571	1.8475087973642
19	41397	386.326542056935	2.7014697178771
19	41671	389.028011774812	0.9706922568167
19	41770	389.998704031629	3.0762577089641
19	42068	393.074961740593	0.11158992186286
19	42084	393.186551662456	0.30735885600186
19	42116	393.493910518458	4.625561683391
19	42569	398.119472201849	3.1407976553405
20	1734	14.9181405976	0.14569806420646
20	1762	15.063838661806	0.39351531288182
20	1799	15.457353974688	0.25230167628693
20	1824	15.709655650975	0.3974923809429
20	1863	16.107148031918	2.545097195087
20	2170	18.652245227005	1.506894048488
20	2344	20.159139275493	0.15336324635189
20	2365	20.312502521845	1.2678750601818
20	2520	21.580377582027	1.3608243055158
20	2657	22.941201887543	0.66924912747987
20	2749	23.610451015023	2.8125175190566
20	3008	26.42296853408	5.0492062144447
20	3520	31.472174748525	0.66735458535279
20	3555	32.139529333878	2.5026170517433
20	3820	34.642146385621	0.3340285983698
20	3864	34.976174983991	3.5885039283261
20	4258	38.564678912317	0.26339879902602
20	4273	38.828077711343	1.8126124657834
20	4420	40.640690177126	2.1865221929719
20	4639	42.827212370098	3.7222460389617
20	5043	46.54945840906	3.4484442495291
20	5424	49.997902658589	6.1079141290076
20	6026	56.105816787597	0.30663981439941
20	6050	56.412456601996	1.5714676513288
20	6215	57.983924253325	1.8728199719485
20	6401	59.856744225274	0.5761430088734
20	6445	60.432887234147	4.27526728288
20	6945	64.708154517027	0.10926786369282
20	6955	64.81742238072	1.1686757934942
20	7044	65.986098174214	0.10257452681166
20	7050	66.088672701026	0.052131711630362
20	7061	66.140804412656	4.3143407267119
20	7504	70.455145139368	2.3622333687664
20	7757	72.817378508134	0.71359632183233
20	7829	73.530974829966	1.6304686687825
20	8026	75.161443498748	0.33854140100274
20	8066	75.499984899751	2.0815835414168
20	8278	77.581568441168	5.5839335769385
20	8861	83.165502018106	2.2914644254203
20	9076	85.456966443526	2.5205086127555
20	9407	87.977475056281	0.34851357390148
20	9435	88.325988630182	4.2649372410879
20	9872	92.59092587127	3.7620054465974
20	10228	96.352931317867	2.8500518758208
20	10566	99.202983193688	0.56743707085927
20	10627	99.770420264547	2.8054740421784
20	10963	102.575894306725	1.1682855213133
20	11082	103.744179828038	1.0368455237125
20	11205	104.78102535175	0.27271849871842
20	11218	105.053743850468	0.06869365936755
20	11220	105.122437509836	0.59380237274985
20	11291	105.716239882586	1.1641977283605
20	11423	106.880437610947	2.6138121825546
20	11690	109.494249793502	0.86032627028067
20	11739	110.354576063783	3.8242832458964
20	12149	114.178859309679	1.1088260609004
20	12281	115.287685370579	2.7846830389619
20	12540	118.072368409541	5.654345983217
20	13149	123.726714392758	0.13868713385102
20	13173	123.865401526609	1.2629704656561
20	13334	125.128371992265	0.20515825200845
20	13340	125.333530244273	2.8826593499444
20	13669	128.216189594217	0.44035281171756
20	13699	128.656542405935	3.0133607548119
20	13982	131.669903160747	0.71962603403586
20	14053	132.389529194783	3.1805213037986
20	14529	135.570050498582	1.5544156715934
20	14710	137.124466170175	0.55829858463371
20	14757	137.682764754809	3.2019028722604
20	15120	140.884667627069	0.29384569468113
20	15136	141.17851332175	0.3755724162689
20	15163	141.554085738019	0.28677907520143
20	15209	141.84086481322	2.9479462222794
20	15489	144.788811035499	3.4034874331128
20	15897	148.192298468612	6.9813426384787
20	16813	155.173641107091	5.1570354292951
20	17402	160.330676536386	4.5660181816272
20	17923	164.896694718013	1.0092050823819
20	18054	165.905899800395	0.3310938981393
20	18094	166.236993698534	0.68243478973468
20	18167	166.919428488269	1.1755485733545
20	18318	168.094977061624	1.9916041493059
20	18587	170.08658121093	0.2249859815097
20	18615	170.31156719244	2.9638634547311
20	18892	173.275430647171	0.56378407341154
20	18935	173.839214720583	0.36920369510988
20	18963	174.208418415693	5.000697592927
20	19522	179.20911600862	27.129515628957
20	22600	206.338631637577	0.26913655138928
20	22639	206.607768188966	0.22157097485301
20	22655	206.829339163819	0.28550687399453
20	22681	207.114846037814	0.17546784800257
20	22693	207.290313885817	2.2938493796832
20	22916	209.5841632655	1.3437356803591
20	23041	210.927898945859	1.1715237053656
20	23149	212.099422651225	0.91512495122139
20	23263	213.014547602446	0.040260910941118
20	23269	213.054808513387	1.5928948198993
20	23427	214.647703333286	1.5268887745702
20	23611	216.174592107856	4.4111027757852
20	24078	220.585694883641	0.75206861970478
20	24188	221.337763503346	0.62881944522535
20	24252	221.966582948571	0.79231296585051
20	24361	222.758895914422	1.8533286768454
20	24519	224.612224591267	0.080804985277171
20	24527	224.693029576544	0.90851005429541
20	24594	225.601539630839	1.7377687130314
20	24739	227.33930834387	3.4332044563616
20	25116	230.772512800232	2.6786868660969
20	25422	233.451199666329	5.0858574216081
20	26035	238.537057087937	4.453112859549
20	26495	242.990169947486	0.22619808716195
20	26513	243.216368034648	1.6223060239927
20	26661	244.838674058641	2.0819831818875
20	26872	246.920657240529	1.4137431426526
20	27000	248.334400383182	3.037158399032
20	27358	251.371558782214	0.54795170586177
20	27432	251.919510488076	1.2361958949414
20	27583	253.155706383017	4.0820826344206
20	28028	257.237789017438	0.028089722796031
20	28030	257.265878740234	0.12126752080549
20	28064	257.387146261039	0.27952890379367
20	28092	257.666675164833	7.3319309526535
20	28793	264.998606117486	5.8067885029457
20	29336	270.805394620432	1.8025401587781
20	29473	272.60793477921	3.1432729015757
20	29829	275.751207680786	4.6321549884864
20	30342	280.383362669272	1.2945074565367
20	30448	281.677870125809	1.8170188002762
20	30611	283.494888926085	0.89465182371362
20	30702	284.389540749799	0.61202688734492
20	30764	285.001567637144	1.279778422753
20	30938	286.281346059897	1.610984811962
20	31126	287.892330871859	1.4203062481226
20	31240	289.312637119982	2.19902597249
20	31431	291.511663092472	0.18547442463474
20	31449	291.697137517107	1.1614011234717
20	31600	292.858538640579	1.0786683235358
20	31721	293.937206964115	0.9109981085684
20	31838	294.848205072683	0.10108500291687
20	31850	294.9492900756	0.94127360012737
20	31945	295.890563675727	1.2862768567431
20	32104	297.17684053247	1.614158008265
20	32241	298.790998540735	5.1654031044562
20	32760	303.956401645191	2.6466793951653
20	33027	306.603081040356	2.4682283691897
20	33300	309.071309409546	0.97065931647095
20	33402	310.041968726017	2.2469548334836
20	33639	312.288923559501	0.26489544086246
20	33650	312.553819000363	4.7138758182498
20	34115	317.267694818613	0.26652121573963
20	34138	317.534216034353	2.8751731911298
20	34408	320.409389225483	0.37919044384197
20	34452	320.788579669325	3.9303345835332
20	34847	324.718914252858	0.71180086106975
20	34933	325.430715113928	2.4170245486504
20	35215	327.847739662578	9.0777139725086
20	36208	336.925453635087	0.099844784467254
20	36224	337.025298419554	0.83343293817379
20	36318	337.858731357728	0.11203074479191
20	36342	337.97076210252	0.27676297460034
20	36379	338.24752507712	0.019387497994491
20	36380	338.266912575114	0.59262434612031
20	36447	338.859536921234	0.81621791681506
20	36520	339.675754838049	0.24913910909631
20	36546	339.924893947145	0.6095104962565
20	36642	340.534404443401	1.9301609896365
20	36860	342.464565433038	3.3823378398028
20	37199	345.846903272841	1.3381015953389
20	37326	347.18500486818	0.35872786989924
20	37347	347.543732738079	0.22428976784137
20	37375	347.76802250592	0.58146636437115
20	37450	348.349488870291	7.5934523240805
20	38220	355.942941194371	0.58360195894004
20	38260	356.526543153311	1.5661441748635
20	38407	358.092687328174	1.0862622998672
20	38507	359.178949628041	1.8639398663411
20	38696	361.042889494382	1.1732057043714
20	38814	362.216095198753	0.6322189694726
20	38853	362.848314168226	2.989070863298
20	39148	365.837385031524	1.2041352481502
20	39266	367.041520279674	0.01039277950483
20	39267	367.051913059179	0.030274068063926
20	39268	367.082187127243	0.13504600966366
20	39289	367.217233136907	1.8091478533842
20	39471	369.026380990291	1.9801321595795
20	39680	371.00651314987	2.0423727216755
20	39886	373.048885871546	0.71510945983248
20	39969	373.763995331378	1.9277550218265
20	40195	375.691750353205	2.2387167201242
20	40429	377.930467073329	1.6342580157083
20	40633	379.564725089037	3.3611845770951
20	41020	382.925909666132	3.6877493512776
20	41415	386.61365901741	1.4205349678283
20	41547	388.034193985238	0.83701122082993
20	41629	388.871205206068	2.1266671142182
20	41879	390.997872320286	2.2595530450652
20	42086	393.257425365351	1.409394370376
20	42210	394.666819735727	3.3101924730019
20	42553	397.977012208729	0.62437169188891
20	42603	398.601383900618	0.089291287154557
20	42624	398.690675187773	0.81717490129562
20	42724	399.507850089069	0.20077684755623
20	42733	399.708626936625	0.40265558648482
21	1750	14.980324151769	2.3010769370049
21	1989	17.281401088774	2.842374704149
21	2341	20.123775792923	7.9013740529653
21	3146	28.025149845888	2.7272476396893
21	3480	30.752397485577	0.37593806817911
21	3502	31.128335553756	0.10079147687346
21	3508	31.229127030629	1.6520298072474
21	3611	32.881156837876	0.063479242290396
21	3612	32.944636080166	0.38913194629025
21	3648	33.333768026456	3.1710529734097
21	4033	36.504820999866	0.54281790805882
21	4093	37.047638907925	2.5379734103598
21	4329	39.585612318285	0.12350060952504
21	4335	39.70911292781	0.98230344346731
21	4432	40.691416371277	0.14413125959522
21	4449	40.835547630872	0.857474655539
21	4543	41.693022286411	1.6514723375285
21	4703	43.344494623939	0.19336687927057
21	4710	43.53786150321	0.069610478798063
21	4723	43.607471982008	0.63358197125227
21	4776	44.24105395326	1.1364337006324
21	4912	45.377487653892	0.97171251629944
21	5021	46.349200170191	1.2298887663821
21	5152	47.579088936573	0.94987358757435
21	5254	48.528962524147	0.80550036534837
21	5338	49.334462889495	0.47163737984056
21	5382	49.806100269336	1.6056187742351
21	5557	51.411719043571	3.0612436814002
21	5891	54.472962724971	1.922102385351
21	6044	56.395065110322	0.32390932388068
21	6092	56.718974434203	2.5530539402942
21	6352	59.272028374497	1.6336586447488
21	6478	60.905687019246	1.4858733510086
21	6645	62.391560370255	4.0716554211577
21	7105	66.463215791413	1.2919134531489
21	7198	67.755129244562	0.34342196218437
21	7240	68.098551206746	1.5436864348527
21	7435	69.642237641599	5.7920351795587
21	8053	75.434272821158	0.98214159210226
21	8182	76.41641441326	5.4675217304718
21	8695	81.883936143732	0.7284222823522
21	8795	82.612358426084	4.1711747172719
21	9268	86.783533143356	0.17715165856395
21	9279	86.96068480192	0.37653232165219
21	9337	87.337217123572	0.51960593730333
21	9386	87.856823060875	0.30190411014222
21	9429	88.158727171017	2.7955906663691
21	9700	90.954317837386	2.0779933182602
21	9941	93.032311155646	2.2031159383796
21	10099	95.235427094026	6.3318459902015
21	10860	101.567273084228	1.39017392651
21	10993	102.957447010738	0.19827201754618
21	11021	103.155719028284	0.20138702657307
21	11049	103.357106054857	0.58516623314971
21	11100	103.942272288007	2.9913125185723
21	11444	106.933584806579	4.3415747475362
21	11832	111.275159554115	2.439391611347
21	12122	113.714551165462	0.82076297252282
21	12190	114.535314137985	2.9830149239415
21	12482	117.518329061926	1.9852684799481
21	12724	119.503597541874	2.0723906998999
21	12923	121.575988241774	0.23779405585261
21	12949	121.813782297627	2.8436469769726
21	13289	124.6574292746	0.11445504992987
21	13306	124.77188432453	1.5255608882015
21	13474	126.297445212731	0.1230540172934
21	13484	126.420499230024	0.34105440695384
21	13541	126.761553636978	1.4880150305178
21	13670	128.249568667496	1.330754774088
21	13811	129.580323441584	0.35733588731411
21	13839	129.937659328898	2.0364696856448
21	13999	131.974129014543	1.5923017239172
21	14224	133.56643073846	1.941434157981
21	14513	135.507864896441	0.88692596697418
21	14617	136.394790863415	3.6546173783929
21	15011	140.049408241808	0.59751946255334
21	15087	140.646927704361	0.29968937252117
21	15124	140.946617076882	0.921906951199
21	15217	141.868524028081	0.7210820862936
21	15288	142.589606114375	1.5905985897068
21	15428	144.180204704082	4.5481018376062
21	15980	148.728306541688	7.6814753716621
21	16942	156.40978191335	3.2861060106036
21	17340	159.695887923954	0.51938283488478
21	17391	160.215270758839	5.4612411566425
21	18033	165.676511915482	0.051849487359059
21	18037	165.728361402841	2.3270957051414
21	18310	168.055457107982	0.79255175541239
21	18415	168.848008863394	0.62886145671698
21	18510	169.476870320111	0.7523921711045
21	18604	170.229262491215	3.5675014641138
21	18933	173.796763955329	0.032950189375861
21	18934	173.829714144705	0.77908468109593
21	19000	174.608798825801	2.6781946243278
21	19352	177.286993450129	2.9986383632556
21	19624	180.285631813385	1.0136143133342
21	19724	181.299246126719	0.01367909713239
21	19725	181.312925223851	1.8970705287512
21	19909	183.209995752602	0.29718888910365
21	19943	183.507184641706	1.7212800897702
21	20128	185.228464731476	2.2835311960924
21	20378	187.511995927568	2.8462577451453
21	20702	190.358253672713	3.1046200504024
21	21094	193.462873723115	1.3680445785798
21	21248	194.830918301695	2.0211958988619
21	21473	196.852114200557	1.0748049270927
21	21611	197.92691912765	2.1629208800097
21	21900	200.08984000766	1.8929616009234
21	22121	201.982801608583	3.7587773810286
21	22505	205.741578989612	1.2001206111611
21	22666	206.941699600773	0.23998289709107
21	22687	207.181682497864	7.1269831571684
21	23408	214.308665655032	4.3987412825157
21	23900	218.707406937548	0.099476230152331
21	23908	218.8068831677	1.404619080591
21	24056	220.211502248291	0.63035168773927
21	24123	220.84185393603	0.33028928365588
21	24162	221.172143219686	2.5589922936294
21	24466	223.731135513315	2.0660509871229
21	24609	225.797186500438	3.4220683790795
21	24944	229.219254879517	0.87928995248478
21	25050	230.098544832002	5.1182785868011
21	25659	235.216823418803	1.1990294572759
21	25814	236.415852876079	2.9430076064679
21	26087	239.358860482547	4.6028855163824
21	26586	243.961745998929	3.3107934929351
21	26906	247.272539491864	2.2231160462516
21	27131	249.495655538116	0.84674334279596
21	27232	250.342398880912	5.3891043258858
21	27845	255.731503206798	0.87400339606293
21	27939	256.605506602861	1.7272382106945
21	28159	258.332744813555	0.3404999752077
21	28194	258.673244788763	0.0042531059726827
21	28195	258.677497894736	0.17797507894439
21	28223	258.85547297368	2.9849910867151
21	28532	261.840464060395	0.51442845736499
21	28565	262.35489251776	0.40341771517771
21	28611	262.758310232938	8.1109895749718
21	29342	270.86929980791	2.7740446391353
21	29615	273.643344447045	0.99909832130667
21	29693	274.642442768352	1.1354522455133
21	29830	275.777895013865	5.8880094781449
21	30447	281.66590449201	0.89410430543165
21	30531	282.560008797442	2.1897137263777
21	30745	284.74972252382	0.10126956095044
21	30762	284.85099208477	5.4716747264864
21	31314	290.322666811256	0.037329853628043
21	31315	290.359996664884	0.80976959426047
21	31396	291.169766259144	4.8654644961668
21	31973	296.035230755311	1.9053008315734
21	32172	297.940531586884	1.350649792534
21	32293	299.291181379418	9.758819726949
21	33299	309.050001106367	0.71076348352217
21	33361	309.760764589889	0.37258518643431
21	33409	310.133349776323	0.63596983393906
21	33461	310.769319610262	0.22463959655272
21	33502	310.993959206815	3.4761311038263
21	33841	314.470090310641	0.47547049997666
21	33899	314.945560810618	1.4452665779853
21	34029	316.390827388603	1.9156138291453
21	34225	318.306441217748	3.3618117109165
21	34554	321.668252928664	0.90640345462349
21	34632	322.574656383287	1.1344125890233
21	34731	323.70906897231	0.62706554608675
21	34810	324.336134518397	4.6951222269927
21	35340	329.03125674539	0.018394438330248
21	35341	329.04965118372	1.2111482299311
21	35494	330.260799413651	1.0051072876336
21	35611	331.265906701285	1.5882135645429
21	35791	332.854120265828	0.99391814710664
21	35895	333.848038412935	1.0378374024432
21	35981	334.885875815378	5.1908664436083
21	36582	340.076742258986	1.8040421581559
21	36786	341.880784417142	3.6895529428462
21	37166	345.570337359988	4.6337416064265
21	37599	350.204078966415	9.8154423895295
21	38597	360.019521355944	0.81738797008103
21	38669	360.836909326025	1.1119376315808
21	38786	361.948846957606	2.8293283988989
21	39048	364.778175356505	0.25473275013132
21	39066	365.032908106636	0.061110952673751
21	39072	365.09401905931	1.5765260535112
21	39245	366.670545112821	0.7040907359505
21	39299	367.374635848771	0.62309827162031
21	39360	367.997734120391	0.88224906693966
21	39443	368.879983187331	1.0327152219625
21	39554	369.912698409293	2.0136633954871
21	39756	371.92636180478	1.3333195449075
21	39906	373.259681349687	4.7993551677176
21	40450	378.059036517405	0.39728695320709
21	40514	378.456323470612	0.69549723465514
21	40589	379.151820705267	2.3295195109468
21	40857	381.481340216214	2.0635114912143
21	41103	383.544851707428	1.5026154132059
21	41282	385.047467120634	1.1360148205365
21	41381	386.18348194117	0.29654390596277
21	41399	386.480025847133	6.8125583939685
21	42087	393.292584241101	2.9443142133945
21	42398	396.236898454496	2.7963742551815
21	42662	399.033272709678	0.12035547055612
21	42666	399.153628180234	0.94028942964771

