file 8749613 1614185335                                         
version 2
run Nonmonitoring-exponential-192-20210224-17:48:54-26772
attr configname Nonmonitoring-exponential
attr datetime 20210224-17:48:54
attr experiment Nonmonitoring-exponential
attr inifile aerocom.ini
attr iterationvars $0=10
attr iterationvarsf 10-
attr measurement $0=10
attr network Aerocom
attr processid 26772
attr repetition 92
attr replication #92
attr resultdir results
attr runnumber 192
attr seedset 92
param **.t 2s
param **.k 10ms
param **.X 0.05s
param **.m 1s
param **.tDistribution "\"exponential\""
param **.operationMode 1
param **.s "70 byte"
param **.dimPoolMax 10000
param **.dimPoolMin 8000
param **.nDL 16
param **.nA 1
param **.DLMaxCapacity 0
param **.trasmitting false

vector 0 Aerocom.aircraft[0].packetGenerator arrivalTime:vector ETV
attr "" ""
attr source computeArrivalTime
vector 1 Aerocom.aircraft[0].linkSelector waitingTime:vector ETV
attr "" ""
attr source computeWaitingTime
vector 2 Aerocom.aircraft[0].linkSelector queueLength:vector ETV
attr "" ""
attr source computeQueueLength
vector 3 Aerocom.aircraft[0].dataLink[15] actualCapacity:vector ETV
attr "" ""
attr source computeActualCapacity
vector 4 Aerocom.aircraft[0].linkSelector serviceTime:vector ETV
attr "" ""
attr source computeServiceTime
vector 5 Aerocom.aircraft[0].linkSelector responseTime:vector ETV
attr "" ""
attr source computeResponseTime
vector 6 Aerocom.aircraft[0].dataLink[2] tDistribution:vector ETV
attr "" ""
attr source computeTDistribution
vector 7 Aerocom.aircraft[0].dataLink[1] tDistribution:vector ETV
attr "" ""
attr source computeTDistribution
vector 8 Aerocom.aircraft[0].dataLink[5] tDistribution:vector ETV
attr "" ""
attr source computeTDistribution
vector 9 Aerocom.aircraft[0].dataLink[0] tDistribution:vector ETV
attr "" ""
attr source computeTDistribution
vector 10 Aerocom.aircraft[0].dataLink[7] tDistribution:vector ETV
attr "" ""
attr source computeTDistribution
vector 11 Aerocom.aircraft[0].dataLink[12] tDistribution:vector ETV
attr "" ""
attr source computeTDistribution
vector 12 Aerocom.aircraft[0].dataLink[11] tDistribution:vector ETV
attr "" ""
attr source computeTDistribution
vector 13 Aerocom.aircraft[0].dataLink[10] tDistribution:vector ETV
attr "" ""
attr source computeTDistribution
vector 14 Aerocom.aircraft[0].dataLink[14] tDistribution:vector ETV
attr "" ""
attr source computeTDistribution
vector 15 Aerocom.aircraft[0].dataLink[13] tDistribution:vector ETV
attr "" ""
attr source computeTDistribution
vector 16 Aerocom.aircraft[0].dataLink[8] tDistribution:vector ETV
attr "" ""
attr source computeTDistribution
vector 17 Aerocom.aircraft[0].dataLink[4] tDistribution:vector ETV
attr "" ""
attr source computeTDistribution
vector 18 Aerocom.aircraft[0].dataLink[9] tDistribution:vector ETV
attr "" ""
attr source computeTDistribution
vector 19 Aerocom.aircraft[0].dataLink[15] tDistribution:vector ETV
attr "" ""
attr source computeTDistribution
vector 20 Aerocom.aircraft[0].dataLink[6] tDistribution:vector ETV
attr "" ""
attr source computeTDistribution
vector 21 Aerocom.aircraft[0].dataLink[3] tDistribution:vector ETV
attr "" ""
attr source computeTDistribution
0	3134 1307196 4996 171468 10.00074378998 335.601571254622 32768 6.2073e-08 0.092264195497 325.60462039052 6.4413104307199
1	1310330 1218038 4997 171478 10.00074378998 335.62091480838 32768 0 0.196689727772 530.70909443504 22.605868485439
2	2528368 885882 4997 171478 10.00074378998 335.62091480838 32768 0 22 53678 287456
3	3414250 983552 4997 171478 10.00074378998 335.62091480838 32768 8000 9986 293018102 2627592922670
4	4397802 1437822 4997 171478 10.00074378998 335.62091480838 32768 0.0070098137392349 0.00875 257.23285330816 2.0250095249154
5	5835624 1307463 4998 171484 10.008293401714 335.628049657019 32768 0.007009813739 0.205304052163 787.94194774313 33.11634646935
0	7143087 268605 171470 204976 335.605364180501 399.997240018459 6588 5.254128e-06 0.078748765527 64.400726113512 1.2723015833517
1	7411692 251586 171484 204977 335.628049657019 399.997240018459 6588 0 0.130785060839 110.6790661286 4.4965353533289
2	7663278 183868 171484 204977 335.628049657019 399.997240018459 6588 0 16 11523 60215
3	7847146 203522 171484 204977 335.628049657019 399.997240018459 6588 8199 9911 59814961 544442978069
4	8050668 294824 171484 204977 335.628049657019 399.997240018459 6588 0.007062859449097 0.0085376265398219 50.919333228224 0.39454542625822
5	8345492 268626 171489 204973 335.635184505658 399.996551224612 6587 0.007063572149 0.138768637481 161.59045924792 6.6262820645971
6	8614118 8240 5011 203805 10.028107938233 397.835543816887 198 0.0011217120965602 11.233901669722 391.88139904071 1496.5051990024
7	8622358 7640 5014 201615 10.030561508012 393.64678173749 185 0.004294342620949 14.89631354138 390.38518507037 1684.3810514589
8	8629998 9562 5229 202892 10.516566320543 396.007023588313 230 0.018820354563195 13.029860925381 394.14983724492 1462.7235263535
9	8639560 7648 5242 204626 10.550024699349 399.256077050617 184 0.036540798518897 11.845803849904 389.94369751226 1598.4981201659
10	8647208 8627 5352 204674 10.771946099956 399.324705873471 203 8.0069267135338e-05 11.819345441733 391.54023849449 1441.1052050507
11	8655835 9824 5647 204299 11.356323850203 398.631447832371 230 0.0015489168921184 8.5120902248065 388.93769153283 1273.2594909995
12	8665659 7541 5650 203611 11.361572379717 397.502818249414 178 0.08798149591029 16.254960023031 389.37756672257 1681.8191778752
13	8673200 8804 5758 203724 11.586931488639 397.698555239238 207 0.013387896643001 9.9085942963338 391.02306717838 1444.9862430014
14	8682004 7539 5795 199891 11.64851128926 390.41266220793 178 0.013036111391084 10.085817526866 388.84996844553 1602.2348769645
15	8689543 8155 5801 204211 11.669310798388 398.502008924608 192 0.0031385191603202 14.940967947923 388.91392275921 1738.6357698962
16	8697698 7618 6089 204912 12.175454395906 399.796977672961 180 0.0061359804457553 15.3874187512 391.14793228166 1714.6680473011
17	8705316 9317 6555 204920 13.18703549906 399.805914028752 219 0.012439728294401 9.4562870333684 386.94626339846 1305.3019073448
18	8714633 8730 6864 204827 13.753447798133 399.60219373719 205 0.010189677826071 10.981908832516 386.52499220734 1394.8203157463
19	8723363 8947 6974 203652 13.968091824141 397.556037827555 210 0.0006588054772607 11.513867843962 386.52337807896 1503.8571235566
20	8732310 8334 8415 202427 16.862625694756 395.182929849707 196 0.0016132364273097 15.709607377329 386.49191364087 1713.8269724753
21	8740644 8968 10327 203339 20.636281530494 396.945395030939 210 0.002954279248296 9.5613640598336 379.58009933296 1390.8092251264

