version 2
run Nonmonitoring-exponential-595-20210224-17:49:34-27108
attr configname Nonmonitoring-exponential
attr datetime 20210224-17:49:34
attr experiment Nonmonitoring-exponential
attr inifile aerocom.ini
attr iterationvars $0=50
attr iterationvarsf 50-
attr measurement $0=50
attr network Aerocom
attr processid 27108
attr repetition 95
attr replication #95
attr resultdir results
attr runnumber 595
attr seedset 95
param **.t 2s
param **.k 50ms
param **.X 0.05s
param **.m 1s
param **.tDistribution "\"exponential\""
param **.operationMode 1
param **.s "70 byte"
param **.dimPoolMax 10000
param **.dimPoolMin 8000
param **.nDL 16
param **.nA 1
param **.DLMaxCapacity 0
param **.trasmitting false

vector 0 Aerocom.aircraft[0].dataLink[11] tDistribution:vector ETV
attr "" ""
attr source computeTDistribution
vector 1 Aerocom.aircraft[0].packetGenerator arrivalTime:vector ETV
attr "" ""
attr source computeArrivalTime
vector 2 Aerocom.aircraft[0].linkSelector waitingTime:vector ETV
attr "" ""
attr source computeWaitingTime
vector 3 Aerocom.aircraft[0].linkSelector queueLength:vector ETV
attr "" ""
attr source computeQueueLength
vector 4 Aerocom.aircraft[0].dataLink[8] actualCapacity:vector ETV
attr "" ""
attr source computeActualCapacity
vector 5 Aerocom.aircraft[0].linkSelector serviceTime:vector ETV
attr "" ""
attr source computeServiceTime
vector 6 Aerocom.aircraft[0].linkSelector responseTime:vector ETV
attr "" ""
attr source computeResponseTime
vector 7 Aerocom.aircraft[0].dataLink[10] tDistribution:vector ETV
attr "" ""
attr source computeTDistribution
vector 8 Aerocom.aircraft[0].dataLink[9] tDistribution:vector ETV
attr "" ""
attr source computeTDistribution
vector 9 Aerocom.aircraft[0].dataLink[12] tDistribution:vector ETV
attr "" ""
attr source computeTDistribution
vector 10 Aerocom.aircraft[0].dataLink[5] tDistribution:vector ETV
attr "" ""
attr source computeTDistribution
vector 11 Aerocom.aircraft[0].dataLink[13] tDistribution:vector ETV
attr "" ""
attr source computeTDistribution
vector 12 Aerocom.aircraft[0].dataLink[7] tDistribution:vector ETV
attr "" ""
attr source computeTDistribution
vector 13 Aerocom.aircraft[0].dataLink[14] tDistribution:vector ETV
attr "" ""
attr source computeTDistribution
vector 14 Aerocom.aircraft[0].dataLink[2] tDistribution:vector ETV
attr "" ""
attr source computeTDistribution
vector 15 Aerocom.aircraft[0].dataLink[3] tDistribution:vector ETV
attr "" ""
attr source computeTDistribution
vector 16 Aerocom.aircraft[0].dataLink[0] tDistribution:vector ETV
attr "" ""
attr source computeTDistribution
vector 17 Aerocom.aircraft[0].dataLink[4] tDistribution:vector ETV
attr "" ""
attr source computeTDistribution
vector 18 Aerocom.aircraft[0].dataLink[8] tDistribution:vector ETV
attr "" ""
attr source computeTDistribution
vector 19 Aerocom.aircraft[0].dataLink[6] tDistribution:vector ETV
attr "" ""
attr source computeTDistribution
vector 20 Aerocom.aircraft[0].dataLink[15] tDistribution:vector ETV
attr "" ""
attr source computeTDistribution
vector 21 Aerocom.aircraft[0].dataLink[1] tDistribution:vector ETV
attr "" ""
attr source computeTDistribution
0	1138	10.116565106686	0.60171069786807
0	1203	10.718275804554	1.6017353768574
0	1413	12.320011181411	5.5653779371914
0	2089	17.885389118602	0.57554864096445
0	2147	18.460937759566	0.57603363386956
0	2253	19.036971393436	2.4703176295982
0	2513	21.507289023034	1.6016211905362
0	2674	23.10891021357	2.0276908763821
0	2866	25.136601089952	0.056266705643119
0	2867	25.192867795595	3.8437425462038
0	3276	29.036610341799	1.289306442909
0	3369	30.325916784708	0.1733541172246
0	3402	30.499270901933	0.48476682751889
0	3449	30.984037729452	2.3112159497618
0	3670	33.295253679214	2.3841980982892
0	3973	35.679451777503	0.20744083309164
0	3990	35.886892610595	2.0887689926178
0	4204	37.975661603213	1.813273143576
0	4372	39.788934746789	1.4269284257037
0	4573	41.215863172493	3.0217189102986
0	4817	44.237582082792	3.9045138416431
0	5223	48.142095924435	0.46274666586088
0	5274	48.604842590296	2.7819222455358
0	5585	51.386764835832	2.8080962231219
0	5894	54.194861058954	1.0922256377096
0	6000	55.287086696664	1.960689339632
0	6222	57.247776036296	1.0258189610139
0	6352	58.27359499731	2.4663565109715
0	6564	60.739951508281	5.6490446662408
0	7218	66.388996174522	2.0084993249205
0	7411	68.397495499442	2.6481597594429
0	7677	71.045655258885	0.46081693343007
0	7716	71.506472192315	0.17675119534828
0	7737	71.683223387663	1.6193152990443
0	7934	73.302538686707	0.91644926280358
0	8056	74.218987949511	0.95806373848074
0	8177	75.177051687992	5.6319571781716
0	8770	80.809008866164	2.0915625866946
0	9027	82.900571452859	0.15540635869882
0	9040	83.055977811558	0.042534878973097
0	9044	83.098512690531	3.5606000010178
0	9480	86.659112691549	1.4493809576224
0	9628	88.108493649171	0.051518574545999
0	9640	88.160012223717	0.49979252824759
0	9676	88.659804751965	0.063685461490026
0	9689	88.723490213455	0.59663377312093
0	9728	89.320123986576	2.7745738358114
0	10045	92.094697822387	2.9070619392788
0	10347	95.001759761666	3.8044623878746
0	10668	98.806222149541	0.19762588993486
0	10697	99.003848039476	0.51979723080532
0	10765	99.523645270281	0.20104117938018
0	10773	99.724686449661	0.58046152566338
0	10838	100.305147975324	0.47929467453683
0	10896	100.784442649861	2.0407808732519
0	11086	102.825223523113	0.62506665148009
0	11169	103.450290174593	6.4277403137965
0	11888	109.87803048839	4.4221237861176
0	12369	114.300154274508	1.1046765839349
0	12508	115.404830858443	2.9697594143402
0	12908	118.374590272783	2.1490343735395
0	13100	120.523624646323	0.65415849611703
0	13180	121.17778314244	2.7145734305572
0	13442	123.892356572997	1.1462223409867
0	13570	125.038578913984	0.21403500040374
0	13578	125.252613914388	0.85918440328316
0	13668	126.111798317671	3.9356124175409
0	14060	130.047410735212	0.11844436333046
0	14079	130.165855098542	0.45044570318391
0	14116	130.616300801726	2.3209296109106
0	14344	132.937230412637	0.15302486907083
0	14368	133.090255281708	5.0764473008767
0	14888	138.166702582585	2.0209681850553
0	15159	140.18767076764	0.88123232746303
0	15260	141.068903095103	2.2537544711635
0	15510	143.322657566267	0.11989719940714
0	15522	143.442554765674	3.9295430101774
0	16006	147.372097775851	3.5905674481172
0	16455	150.962665223968	0.25408355389497
0	16485	151.216748777863	1.9689546900511
0	16694	153.185703467914	2.0104569264337
0	16873	155.196160394348	3.1782333354015
0	17177	158.37439372975	0.34674365893291
0	17239	158.721137388683	0.10689227036216
0	17265	158.828029659045	4.2444782924843
0	17680	163.072507951529	1.2280234798261
0	17842	164.300531431355	3.7281375926539
0	18279	168.028669024009	1.5274902501813
0	18443	169.55615927419	1.2530832327944
0	18628	170.809242506984	0.78874755382919
0	18730	171.597990060813	3.3575231380979
0	19104	174.955513198911	4.3159656298227
0	19563	179.271478828734	2.4806377545501
0	19860	181.752116583284	12.425672533896
0	21152	194.17778911718	0.095891469852806
0	21158	194.273680587033	4.4799990538362
0	21612	198.753679640869	4.8047856353025
0	22087	203.558465276171	1.577962442621
0	22246	205.136427718792	0.96745192750344
0	22368	206.103879646295	1.0541074567583
0	22476	207.157987103053	0.10467345552179
0	22478	207.262660558575	0.68161610458044
0	22573	207.944276663155	5.2634656687556
0	23147	213.207742331911	2.4146836700691
0	23400	215.62242600198	0.16795081045938
0	23403	215.790376812439	3.2457521583123
0	23752	219.036128970751	2.3195568041545
0	23991	221.355685774906	4.399416299831
0	24486	225.755102074737	5.9039317944602
0	25213	231.659033869197	0.54041192803203
0	25258	232.199445797229	0.53766344846976
0	25302	232.737109245699	1.854461037761
0	25514	234.59157028346	0.76595608546785
0	25591	235.357526368928	0.10868610708815
0	25603	235.466212476016	0.46362588161177
0	25663	235.929838357628	0.18985867376853
0	25685	236.119697031397	4.1792053464047
0	26140	240.298902377802	0.45722877827232
0	26185	240.756131156074	1.0976870373439
0	26316	241.853818193418	0.063786603892969
0	26324	241.917604797311	0.21179149761211
0	26352	242.129396294923	1.7671011664162
0	26600	243.896497461339	2.0781487954583
0	26848	245.974646256797	4.8152274685147
0	27414	250.789873725312	0.44267293387448
0	27453	251.232546659186	0.93790482065845
0	27591	252.170451479844	0.56772204502558
0	27675	252.73817352487	0.90801048634016
0	27784	253.64618401121	0.34486662434612
0	27819	253.991050635556	2.2708320620579
0	28095	256.261882697614	0.31985826191735
0	28151	256.581740959531	4.8735816478077
0	28663	261.455322607339	1.2890822285962
0	28790	262.744404835935	3.3997642087876
0	29106	266.144169044723	0.87917181268826
0	29247	267.023340857411	2.7687064189211
0	29507	269.792047276332	3.3981503956917
0	29845	273.190197672024	2.3956212288615
0	30101	275.585818900886	0.4445587944145
0	30144	276.030377695301	1.7836628803419
0	30306	277.814040575643	0.5868577057745
0	30347	278.400898281418	2.1468706911894
0	30600	280.547768972607	1.2505492589116
0	30767	281.798318231519	3.7184201614129
0	31233	285.516738392932	1.4430337666304
0	31431	286.959772159562	1.4724584731274
0	31548	288.432230632689	3.9443212000132
0	32003	292.376551832702	1.3510865037135
0	32124	293.727638336415	0.99731565551691
0	32242	294.724953991932	4.8401642310306
0	32758	299.565118222963	3.843919669241
0	33138	303.409037892204	1.4869077810643
0	33321	304.895945673268	4.0335206884547
0	33728	308.929466361723	0.7556549987892
0	33802	309.685121360512	2.0812023676404
0	34040	311.766323728152	0.17368437960511
0	34058	311.940008107757	1.5949199997591
0	34259	313.534928107516	1.242769396712
0	34422	314.777697504228	7.5901444948686
0	35204	322.367841999097	1.7325028473724
0	35372	324.100344846469	1.4652151280475
0	35598	325.565559974517	0.790426778333
0	35706	326.35598675285	4.9170172839462
0	36365	331.273004036796	2.9078894886153
0	36739	334.180893525411	0.15498116868934
0	36780	334.3358746941	0.40522446872589
0	36846	334.741099162826	1.6110086897748
0	37027	336.352107852601	1.1604329604912
0	37168	337.512540813092	0.89084266044182
0	37301	338.403383473534	4.6318878948587
0	37745	343.035271368393	3.2811106279771
0	38131	346.31638199637	0.18520994392349
0	38152	346.501591940293	1.978544544984
0	38379	348.480136485277	0.20337207136212
0	38407	348.683508556639	0.83801995120233
0	38493	349.521528507841	0.38976387077458
0	38531	349.911292378616	0.4659851944831
0	38565	350.377277573099	3.8910203449195
0	39015	354.268297918019	1.8020108051618
0	39182	356.070308723181	0.39830790810028
0	39229	356.468616631281	0.13249689608854
0	39260	356.60111352737	0.14289592072597
0	39297	356.744009448096	1.5868493305961
0	39499	358.330858778692	2.7780977928289
0	39800	361.108956571521	8.414369058326
0	40773	369.523325629847	0.2190359654497
0	40803	369.742361595297	0.63438142769923
0	40888	370.376743022996	1.0370242789665
0	41025	371.413767301962	0.9609397139177
0	41148	372.37470701588	1.5508275804674
0	41260	373.925534596347	0.20622996845247
0	41281	374.131764564799	0.90906106668518
0	41388	375.040825631484	0.93169882160113
0	41540	375.972524453085	1.5597075666092
0	41679	377.532232019694	1.2451140867678
0	41798	378.777346106462	1.2455937773529
0	41898	380.022939883815	0.89919444913003
0	41969	380.922134332945	0.12318051274559
0	41990	381.045314845691	0.77235667790291
0	42097	381.817671523594	0.6682840163461
0	42168	382.48595553994	1.0987194952177
0	42316	383.584675035158	0.21881287284852
0	42334	383.803487908007	2.6606683073317
0	42613	386.464156215339	0.14464443524591
0	42621	386.608800650585	0.062786295443412
0	42627	386.671586946028	0.40003291139609
0	42667	387.071619857424	0.16406674556562
0	42685	387.23568660299	1.850818523493
0	42873	389.086505126483	0.068686956652956
0	42876	389.155192083136	0.12955181484919
0	42917	389.284743897985	3.3655613987147
0	43332	392.6503052967	2.0210193627893
0	43519	394.671324659489	3.1893548540769
0	43854	397.860679513566	1.015265517077
0	43968	398.875945030643	0.68519216795964
0	44053	399.561137198603	1.9062936778064
1	1139	10.138443497457	0.008949260554
1	1144	10.147392758011	0.096579143118
1	1150	10.243971901129	0.038251292832
1	1155	10.282223193961	0.00474052309
1	1157	10.286963717051	0.031711312013
1	1165	10.318675029064	0.030357434755
1	1170	10.349032463819	0.090900129982
1	1175	10.439932593801	0.005868355323
1	1177	10.445800949124	0.068747179804
1	1186	10.514548128928	0.01137489959
1	1191	10.525923028518	0.009507083681
1	1196	10.535430112199	0.179954688791
1	1201	10.71538480099	0.016142345273
1	1207	10.731527146263	0.030858586524
1	1212	10.762385732787	0.010392203117
1	1217	10.772777935904	0.052736140506
1	1222	10.82551407641	0.040522355124
1	1228	10.866036431534	0.04623849059
1	1233	10.912274922124	0.071703186533
1	1238	10.983978108657	0.002566688625
1	1240	10.986544797282	0.084716265967
1	1249	11.071261063249	0.003397926695
1	1251	11.074658989944	0.089144330219
1	1260	11.163803320163	0.049035145764
1	1265	11.212838465927	0.031599934438
1	1270	11.244438400365	0.015092108823
1	1276	11.259530509188	0.05731370826
1	1282	11.316844217448	0.035002114066
1	1288	11.351846331514	0.047793311179
1	1293	11.399639642693	0.022967584452
1	1298	11.422607227145	0.093978779144
1	1304	11.516586006289	0.014903691074
1	1309	11.531489697363	0.0340477848
1	1314	11.565537482163	0.006415267144
1	1316	11.571952749307	0.007790121019
1	1321	11.579742870326	0.132005146518
1	1330	11.711748016844	0.039686670936
1	1335	11.75143468778	0.060289861317
1	1340	11.811724549097	0.000597583801
1	1342	11.812322132898	0.030910052654
1	1350	11.843232185552	0.100294600657
1	1356	11.943526786209	0.016235994794
1	1361	11.959762781003	0.002725610777
1	1363	11.96248839178	0.043015628238
1	1372	12.005504020018	0.104851246372
1	1377	12.11035526639	0.020168763173
1	1382	12.130524029563	0.009544351042
1	1387	12.140068380605	0.001679795802
1	1389	12.141748176407	0.01554189159
1	1397	12.157290067997	0.011512453835
1	1402	12.168802521832	0.095830059077
1	1407	12.264632580909	0.109354780827
1	1414	12.373987361736	0.029636860276
1	1419	12.403624222012	0.037124661127
1	1424	12.440748883139	0.066131833506
1	1429	12.506880716645	0.084037204852
1	1434	12.590917921497	0.018857074041
1	1439	12.609774995538	0.073724167991
1	1444	12.683499163529	0.063404928451
1	1449	12.74690409198	0.141650188396
1	1455	12.888554280376	0.023191656343
1	1460	12.911745936719	0.044659680571
1	1465	12.95640561729	0.104514562351
1	1470	13.060920179641	0.066678287926
1	1475	13.127598467567	0.006470801858
1	1477	13.134069269425	0.042718489784
1	1485	13.176787759209	0.009865903139
1	1491	13.186653662348	0.071342052936
1	1497	13.257995715284	0.012287905751
1	1502	13.270283621035	0.026324115251
1	1507	13.296607736286	0.004076352993
1	1509	13.300684089279	0.005612771905
1	1514	13.306296861184	0.001116221708
1	1516	13.307413082892	0.019934974571
1	1524	13.327348057463	0.017791065613
1	1532	13.345139123076	0.009445502154
1	1537	13.35458462523	0.05695775379
1	1543	13.41154237902	0.126733469071
1	1550	13.538275848091	0.022825807814
1	1555	13.561101655905	0.032147854255
1	1560	13.59324951016	0.031002248473
1	1565	13.624251758633	0.021727605938
1	1570	13.645979364571	0.034256187541
1	1575	13.680235552112	0.271531149063
1	1583	13.951766701175	0.056516505901
1	1589	14.008283207076	0.188789782825
1	1597	14.197072989901	0.022708275646
1	1602	14.219781265547	0.02631321182
1	1607	14.246094477367	0.025817632048
1	1612	14.271912109415	0.019229815151
1	1617	14.291141924566	0.044973231681
1	1623	14.336115156247	0.025774272786
1	1628	14.361889429033	0.014475304602
1	1633	14.376364733635	0.01909070337
1	1638	14.395455437005	0.008997268215
1	1643	14.40445270522	0.014842981747
1	1648	14.419295686967	0.028797918742
1	1653	14.448093605709	0.006588822514
1	1655	14.454682428223	0.024412867309
1	1664	14.479095295532	0.045929215601
1	1670	14.525024511133	0.041998099831
1	1675	14.567022610964	0.014738279872
1	1680	14.581760890836	0.000919524508
1	1682	14.582680415344	0.044458015861
1	1690	14.627138431205	0.031696895728
1	1695	14.658835326933	0.011760664286
1	1700	14.670595991219	0.069835755312
1	1705	14.740431746531	0.058759367933
1	1711	14.799191114464	0.016921007432
1	1716	14.816112121896	0.00010025527
1	1718	14.816212377166	0.010959082505
1	1723	14.827171459671	0.004723984884
1	1725	14.831895444555	0.024173028179
1	1737	14.856068472734	0.089093229835
1	1744	14.945161702569	0.027558471499
1	1750	14.972720174068	0.014343523728
1	1755	14.987063697796	0.017772022314
1	1760	15.00483572011	0.032701369981
1	1765	15.037537090091	0.106850279904
1	1770	15.144387369995	0.202326222539
1	1776	15.346713592534	0.01221785849
1	1781	15.358931451024	0.0350561418
1	1788	15.393987592824	0.042074415191
1	1793	15.436062008015	0.090509823098
1	1798	15.526571831113	0.051739587562
1	1803	15.578311418675	0.019743722188
1	1808	15.598055140863	0.054072787385
1	1813	15.652127928248	0.003639691808
1	1815	15.655767620056	0.075385960528
1	1824	15.731153580584	0.00054468064
1	1826	15.731698261224	0.052453550467
1	1834	15.784151811691	0.031691214946
1	1839	15.815843026637	0.120365000432
1	1844	15.936208027069	0.030783777764
1	1849	15.966991804833	0.01841239357
1	1854	15.985404198403	0.002847328959
1	1856	15.988251527362	0.017363389133
1	1864	16.005614916495	0.033855217376
1	1869	16.039470133871	0.068749762561
1	1875	16.108219896432	0.131516183864
1	1881	16.239736080296	0.007611503903
1	1883	16.247347584199	0.000122005399
1	1885	16.247469589598	0.103433015657
1	1897	16.350902605255	0.117614880495
1	1902	16.46851748575	0.026986765979
1	1907	16.495504251729	0.034933776898
1	1912	16.530438028627	0.121288930339
1	1918	16.651726958966	0.021721439918
1	1923	16.673448398884	0.014782575996
1	1928	16.68823097488	0.01568886754
1	1933	16.70391984242	0.073293906095
1	1939	16.777213748515	0.023472463655
1	1944	16.80068621217	0.111031548402
1	1949	16.911717760572	0.019417706771
1	1954	16.931135467343	0.143843130622
1	1960	17.074978597965	0.052794883608
1	1965	17.127773481573	0.06763760273
1	1970	17.195411084303	0.019427877296
1	1975	17.214838961599	0.067341575997
1	1980	17.282180537596	0.06673935214
1	1986	17.348919889736	0.065507804817
1	1991	17.414427694553	0.034141010482
1	1996	17.448568705035	0.00811875645
1	2001	17.456687461485	0.000566372197
1	2003	17.457253833682	0.008195374717
1	2008	17.465449208399	0.113700555613
1	2017	17.579149764012	0.00664853739
1	2019	17.585798301402	0.014375225476
1	2027	17.600173526878	0.058959624557
1	2033	17.659133151435	0.018818079963
1	2038	17.677951231398	0.013203954518
1	2043	17.691155185916	0.028634020014
1	2049	17.71978920593	0.003172161212
1	2051	17.722961367142	0.001757687102
1	2053	17.724719054244	0.008423357373
1	2058	17.733142411617	0.020486581939
1	2069	17.753628993556	0.009475825771
1	2074	17.763104819327	0.020508360555
1	2079	17.783613179882	0.056923384992
1	2084	17.840536564874	0.077217692101
1	2090	17.917754256975	0.062031889069
1	2095	17.979786146044	0.003646744804
1	2097	17.983432890848	0.066083270702
1	2105	18.04951616155	0.053219895231
1	2110	18.102736056781	0.067683193428
1	2115	18.170419250209	0.00982333882
1	2120	18.180242589029	0.016505377165
1	2125	18.196747966194	0.129091243269
1	2131	18.325839209463	0.076840841193
1	2136	18.402680050656	0.021384199112
1	2141	18.424064249768	0.081227389435
1	2148	18.505291639203	0.010728599558
1	2153	18.516020238761	0.014566886773
1	2158	18.530587125534	0.006928950208
1	2160	18.537516075742	0.002141243748
1	2165	18.53965731949	0.009022240164
1	2170	18.548679559654	0.06375098993
1	2179	18.612430549584	0.00560563139
1	2181	18.618036180974	0.005378140805
1	2186	18.623414321779	0.003272774711
1	2188	18.62668709649	0.046742909805
1	2199	18.673430006295	0.11792137464
1	2206	18.791351380935	0.076857606076
1	2213	18.868208987011	0.003673594216
1	2215	18.871882581227	0.00250812355
1	2217	18.874390704777	0.019864186112
1	2228	18.894254890889	0.058581374986
1	2233	18.952836265875	0.015397287588
1	2238	18.968233553463	0.016371853829
1	2243	18.984605407292	0.031720660761
1	2248	19.016326068053	0.072358113152
1	2255	19.088684181205	0.043442781929
1	2260	19.132126963134	0.007143943771
1	2262	19.139270906905	0.012739966515
1	2270	19.15201087342	0.003606582384
1	2272	19.155617455804	0.202918705064
1	2282	19.358536160868	0.011953591892
1	2287	19.37048975276	0.069694225074
1	2293	19.440183977834	0.024935821632
1	2298	19.465119799466	0.037251405768
1	2303	19.502371205234	0.050839994442
1	2308	19.553211199676	0.02379430659
1	2313	19.577005506266	0.062271926049
1	2319	19.639277432315	0.073774048427
1	2326	19.713051480742	0.114417164742
1	2332	19.827468645484	0.081179730628
1	2338	19.908648376112	0.057705914234
1	2343	19.966354290346	0.182866585322
1	2349	20.149220875668	0.029038766563
1	2354	20.178259642231	0.064523841974
1	2360	20.242783484205	0.100611312339
1	2365	20.343394796544	0.075605088559
1	2371	20.418999885103	0.013041399523
1	2377	20.432041284626	0.055341885574
1	2383	20.4873831702	0.056938170215
1	2389	20.544321340415	0.010400944743
1	2394	20.554722285158	0.059917735641
1	2400	20.614640020799	0.009528056021
1	2405	20.62416807682	0.029709932954
1	2411	20.653878009774	0.017928571991
1	2416	20.671806581765	0.03875894731
1	2421	20.710565529075	0.077280033099
1	2426	20.787845562174	0.004120195774
1	2428	20.791965757948	0.017220021883
1	2437	20.809185779831	0.005641587054
1	2439	20.814827366885	0.036716328693
1	2447	20.851543695578	0.120325478747
1	2454	20.971869174325	0.10462759029
1	2461	21.076496764615	0.016371118939
1	2466	21.092867883554	0.030925078238
1	2471	21.123792961792	0.185829126085
1	2477	21.309622087877	0.001802169232
1	2479	21.311424257109	0.026007762002
1	2487	21.337432019111	0.045190930603
1	2493	21.382622949714	0.021827669685
1	2498	21.404450619399	0.035881534407
1	2503	21.440332153806	0.043425957838
1	2508	21.483758111644	0.054909396283
1	2515	21.538667507927	0.005049417356
1	2517	21.543716925283	0.058356273244
1	2525	21.602073198527	0.019674861185
1	2530	21.621748059712	0.143806233009
1	2536	21.765554292721	0.035019923592
1	2541	21.800574216313	0.045476701759
1	2547	21.846050918072	0.015076898824
1	2552	21.861127816896	0.133017155925
1	2558	21.994144972821	0.060274849011
1	2564	22.054419821832	0.005217034943
1	2566	22.059636856775	0.043962500086
1	2574	22.103599356861	0.009898019499
1	2579	22.11349737636	0.005232284768
1	2581	22.118729661128	0.045200342554
1	2590	22.163930003682	0.030942107408
1	2595	22.19487211109	0.025450046118
1	2601	22.220322157208	0.001149688044
1	2603	22.221471845252	0.202244451943
1	2613	22.423716297195	0.009175726035
1	2618	22.43289202323	0.001446441007
1	2620	22.434338464237	0.044588164819
1	2628	22.478926629056	0.01349084283
1	2633	22.492417471886	0.150184869774
1	2639	22.64260234166	0.143724302921
1	2644	22.786326644581	0.163020435487
1	2649	22.949347080068	0.005631584011
1	2651	22.954978664079	0.020855217501
1	2659	22.97583388158	0.07602145924
1	2664	23.05185534082	0.037043865336
1	2669	23.088899206156	0.044129285661
1	2675	23.133028491817	0.034876918656
1	2681	23.167905410473	0.028547443591
1	2686	23.196452854064	0.16915079423
1	2693	23.365603648294	0.109577113303
1	2700	23.475180761597	0.01829354096
1	2705	23.493474302557	0.010791257771
1	2710	23.504265560328	0.0060725258
1	2712	23.510338086128	0.022598935379
1	2720	23.532937021507	0.14539566228
1	2727	23.678332683787	0.114941977333
1	2733	23.79327466112	0.003291927531
1	2735	23.796566588651	0.101258514677
1	2744	23.897825103328	0.023785933831
1	2750	23.921611037159	0.017310142848
1	2755	23.938921180007	0.040686991376
1	2761	23.979608171383	0.036630524734
1	2767	24.016238696117	0.015030779669
1	2772	24.031269475786	0.041512709586
1	2778	24.072782185372	0.014641399064
1	2783	24.087423584436	0.018456533243
1	2788	24.105880117679	0.024841500253
1	2793	24.130721617932	0.092996227183
1	2800	24.223717845115	0.057275186222
1	2805	24.280993031337	0.069470851988
1	2810	24.350463883325	0.266450220424
1	2816	24.616914103749	0.096581004193
1	2823	24.713495107942	0.078866145954
1	2828	24.792361253896	0.01586143024
1	2833	24.808222684136	0.051675341582
1	2838	24.859898025718	0.079895085339
1	2843	24.939793111057	0.039547984582
1	2848	24.979341095639	0.036661709712
1	2853	25.016002805351	0.076906433998
1	2861	25.092909239349	0.14173536622
1	2868	25.234644605569	0.077265073028
1	2873	25.311909678597	0.18961769078
1	2879	25.501527369377	0.073224844734
1	2884	25.574752214111	0.025845721432
1	2889	25.600597935543	0.004871522661
1	2891	25.605469458204	0.078763120113
1	2899	25.684232578317	0.240895479889
1	2904	25.925128058206	0.009916593395
1	2909	25.935044651601	0.032607757072
1	2914	25.967652408673	0.017597417666
1	2919	25.985249826339	0.000184332328
1	2921	25.985434158667	0.019983894439
1	2929	26.005418053106	0.006139387593
1	2931	26.011557440699	0.023980923415
1	2939	26.035538364114	0.006711772084
1	2941	26.042250136198	0.034791453437
1	2949	26.077041589635	0.072740606661
1	2954	26.149782196296	0.01695912344
1	2959	26.166741319736	0.069452018968
1	2964	26.236193338704	0.09756709006
1	2970	26.333760428764	0.049861232696
1	2977	26.38362166146	0.097705684102
1	2983	26.481327345562	0.041832916417
1	2988	26.523160261979	0.073223545922
1	2994	26.596383807901	0.005990683195
1	2996	26.602374491096	0.037588227112
1	3004	26.639962718208	0.012494980069
1	3009	26.652457698277	0.032521091819
1	3014	26.684978790096	0.083128001702
1	3019	26.768106791798	0.002676546307
1	3021	26.770783338105	0.0821321117
1	3029	26.852915449805	0.041536826469
1	3036	26.894452276274	0.010837617116
1	3041	26.90528989339	0.021882520829
1	3046	26.927172414219	0.055265368725
1	3053	26.982437782944	0.021932106217
1	3058	27.004369889161	0.012604283637
1	3063	27.016974172798	0.229870002116
1	3069	27.246844174914	0.032017843921
1	3074	27.278862018835	0.013572003601
1	3079	27.292434022436	0.024498564554
1	3085	27.31693258699	0.01681764985
1	3091	27.33375023684	0.01010451654
1	3096	27.34385475338	0.018838914965
1	3101	27.362693668345	0.012658771858
1	3106	27.375352440203	0.009232326516
1	3111	27.384584766719	0.02239726903
1	3116	27.406982035749	0.035455376605
1	3121	27.442437412354	0.014870730176
1	3127	27.45730814253	0.047069347316
1	3132	27.504377489846	0.008311044542
1	3134	27.512688534388	0.045445760714
1	3142	27.558134295102	0.031832191243
1	3147	27.589966486345	0.00385522417
1	3149	27.593821710515	0.020613632972
1	3157	27.614435343487	0.032157303041
1	3162	27.646592646528	0.005650400916
1	3164	27.652243047444	0.224358533698
1	3176	27.876601581142	0.032271790496
1	3181	27.908873371638	0.085482095816
1	3187	27.994355467454	0.01517846703
1	3193	28.009533934484	0.024928292799
1	3198	28.034462227283	0.016650419242
1	3203	28.051112646525	0.012404592594
1	3208	28.063517239119	0.107777724736
1	3213	28.171294963855	0.074633418691
1	3218	28.245928382546	0.023764151725
1	3223	28.269692534271	0.232544655283
1	3229	28.502237189554	0.016159954952
1	3234	28.518397144506	0.021815667554
1	3239	28.54021281206	0.093966938668
1	3245	28.634179750728	0.000262818882
1	3247	28.63444256961	0.0682483645
1	3255	28.70269093411	0.130486081183
1	3261	28.833177015293	0.065838853713
1	3266	28.899015869006	0.123625491124
1	3271	29.02264136013	0.068103107868
1	3277	29.090744467998	0.061612825311
1	3282	29.152357293309	0.103902978435
1	3288	29.256260271744	0.071890250471
1	3293	29.328150522215	0.031719462211
1	3300	29.359869984426	0.093439131517
1	3305	29.453309115943	0.015367889481
1	3310	29.468677005424	0.117158019804
1	3316	29.585835025228	0.200618367383
1	3325	29.786453392611	0.021885089023
1	3330	29.808338481634	0.084574533196
1	3336	29.89291301483	0.010568046821
1	3341	29.903481061651	0.079336628201
1	3346	29.982817689852	0.01878338345
1	3351	30.001601073302	0.00882049361
1	3358	30.010421566912	0.005839551853
1	3360	30.016261118765	0.349231435443
1	3371	30.365492554208	0.006025142576
1	3373	30.371517696784	0.031543641216
1	3381	30.403061338	0.024642646016
1	3387	30.427703984016	0.014835726566
1	3392	30.442539710582	0.03132521457
1	3397	30.473864925152	0.107291940484
1	3405	30.581156865636	0.07313546805
1	3412	30.654292333686	0.010920319021
1	3417	30.665212652707	0.014519175389
1	3422	30.679731828096	0.162086572349
1	3428	30.841818400445	0.005438767227
1	3430	30.847257167672	0.00765986439
1	3435	30.854917032062	0.02755548472
1	3443	30.882472516782	0.174186085974
1	3451	31.056658602756	0.031696292301
1	3456	31.088354895057	0.029174576466
1	3461	31.117529471523	0.15213063018
1	3467	31.269660101703	0.08084877292
1	3472	31.350508874623	0.140903608859
1	3477	31.491412483482	0.090159867275
1	3483	31.581572350757	0.019263970923
1	3488	31.60083632168	0.03135175558
1	3493	31.63218807726	0.039593481996
1	3498	31.671781559256	0.112584781675
1	3504	31.784366340931	0.083624033205
1	3509	31.867990374136	0.201352194283
1	3517	32.069342568419	0.035529393746
1	3522	32.104871962165	0.024367709293
1	3527	32.129239671458	0.226807632235
1	3535	32.356047303693	0.059049405683
1	3540	32.415096709376	0.012446419687
1	3545	32.427543129063	0.062197485993
1	3551	32.489740615056	0.051973131583
1	3556	32.541713746639	0.006208049059
1	3558	32.547921795698	0.022728463274
1	3566	32.570650258972	0.006757720865
1	3568	32.577407979837	0.047482191372
1	3577	32.624890171209	0.042239123814
1	3582	32.667129295023	0.00569455181
1	3584	32.672823846833	0.05863006769
1	3593	32.731453914523	0.021030459849
1	3598	32.752484374372	0.018832565102
1	3603	32.771316939474	0.042872923856
1	3608	32.81418986333	0.094082103071
1	3613	32.908271966401	0.002547905416
1	3615	32.910819871817	0.087827081349
1	3625	32.998646953166	0.045519698463
1	3630	33.044166651629	0.003980828783
1	3632	33.048147480412	0.066034316267
1	3640	33.114181796679	0.081554681943
1	3645	33.195736478622	0.018691156977
1	3650	33.214427635599	0.002509516661
1	3652	33.21693715226	0.016598634844
1	3660	33.233535787104	0.002578310325
1	3662	33.236114097429	0.071262244228
1	3671	33.307376341657	0.051818652878
1	3676	33.359194994535	0.008996339483
1	3681	33.368191334018	0.040439696935
1	3687	33.408631030953	0.041224704177
1	3693	33.44985573513	0.058447614478
1	3699	33.508303349608	0.02551677243
1	3704	33.533820122038	0.032235115806
1	3709	33.566055237844	0.096310156762
1	3715	33.662365394606	0.093937623595
1	3720	33.756303018201	0.018071658683
1	3725	33.774374676884	0.017464426273
1	3730	33.791839103157	0.000298877518
1	3732	33.792137980675	0.062523426503
1	3740	33.854661407178	0.016471764668
1	3745	33.871133171846	0.099981853216
1	3751	33.971115025062	0.027914398471
1	3757	33.999029423533	0.013049395023
1	3762	34.012078818556	0.007939300312
1	3767	34.020018118868	1.0732852e-05
1	3769	34.02002885172	0.085203522757
1	3777	34.105232374477	0.06907385817
1	3783	34.174306232647	0.053432335942
1	3788	34.227738568589	0.061494699247
1	3794	34.289233267836	0.002775990232
1	3796	34.292009258068	0.04508117236
1	3804	34.337090430428	0.034546600785
1	3809	34.371637031213	0.041973430295
1	3814	34.413610461508	0.003278543429
1	3816	34.416889004937	0.022443219268
1	3824	34.439332224205	0.054542306605
1	3829	34.49387453081	0.016733771258
1	3834	34.510608302068	0.095884171033
1	3841	34.606492473101	0.056923269707
1	3846	34.663415742808	0.018029921106
1	3852	34.681445663914	0.09576001393
1	3858	34.777205677844	0.033710341599
1	3863	34.810916019443	0.022301099247
1	3868	34.83321711869	0.005190077151
1	3870	34.838407195841	0.051980820343
1	3878	34.890388016184	0.294112148548
1	3884	35.184500164732	0.057931364508
1	3890	35.24243152924	0.036923723308
1	3895	35.279355252548	0.061392969078
1	3901	35.340748221626	0.03793869883
1	3906	35.378686920456	0.012604681847
1	3911	35.391291602303	0.086388288905
1	3918	35.477679891208	0.01023823297
1	3923	35.487918124178	0.006711401131
1	3926	35.494629525309	0.051743663669
1	3936	35.546373188978	0.013217840353
1	3941	35.559591029331	0.017239813683
1	3946	35.576830843014	0.037598092435
1	3951	35.614428935449	0.011896613047
1	3958	35.626325548496	0.001676736797
1	3960	35.628002285293	0.013869246981
1	3965	35.641871532274	0.074310361429
1	3974	35.716181893703	0.035822730917
1	3979	35.75200462462	0.013845094082
1	3984	35.765849718702	0.196117559141
1	3994	35.961967277843	0.123308144313
1	4000	36.085275422156	0.061687258071
1	4005	36.146962680227	0.009329538314
1	4010	36.156292218541	0.030492626912
1	4016	36.186784845453	0.052953766443
1	4023	36.239738611896	0.049400255841
1	4028	36.289138867737	0.107171662516
1	4034	36.396310530253	0.058253562472
1	4039	36.454564092725	0.080737394431
1	4045	36.535301487156	0.016914584306
1	4051	36.552216071462	0.093422255089
1	4056	36.645638326551	0.141378920763
1	4061	36.787017247314	0.051447040328
1	4066	36.838464287642	0.039780351858
1	4071	36.8782446395	0.028013778785
1	4076	36.906258418285	0.029660376028
1	4082	36.935918794313	0.017657788515
1	4087	36.953576582828	0.153447316148
1	4092	37.107023898976	0.02315083022
1	4097	37.130174729196	0.016334623055
1	4103	37.146509352251	0.008211750814
1	4108	37.154721103065	0.093997444402
1	4114	37.248718547467	0.001344100695
1	4116	37.250062648162	0.0927555982
1	4125	37.342818246362	0.069554255583
1	4130	37.412372501945	0.010757936751
1	4135	37.423130438696	0.086814599032
1	4140	37.509945037728	0.007509947369
1	4142	37.517454985097	0.019100659938
1	4151	37.536555645035	0.063597860473
1	4157	37.600153505508	0.005152694114
1	4159	37.605306199622	0.002986307556
1	4164	37.608292507178	0.040454305751
1	4172	37.648746812929	0.039302939116
1	4177	37.688049752045	0.058493599079
1	4182	37.746543351124	0.059485354276
1	4187	37.8060287054	0.022657376571
1	4193	37.828686081971	0.114367146421
1	4199	37.943053228392	0.08731941342
1	4205	38.030372641812	0.094076900866
1	4210	38.124449542678	0.098271981473
1	4215	38.222721524151	0.04385646738
1	4220	38.266577991531	0.050549610307
1	4225	38.317127601838	0.055423192698
1	4230	38.372550794536	0.038881237692
1	4235	38.411432032228	0.005738309356
1	4237	38.417170341584	0.081334541745
1	4245	38.498504883329	0.090111017419
1	4251	38.588615900748	0.017670587776
1	4256	38.606286488524	0.093642929273
1	4262	38.699929417797	0.055739283867
1	4267	38.755668701664	0.062951504746
1	4273	38.81862020641	0.008990366228
1	4278	38.827610572638	0.111059001121
1	4286	38.938669573759	0.035962575341
1	4292	38.9746321491	0.014802918571
1	4297	38.989435067671	0.010137194378
1	4302	38.999572262049	0.036598444802
1	4307	39.036170706851	0.150083530898
1	4312	39.186254237749	0.038476266706
1	4317	39.224730504455	0.139264565586
1	4323	39.363995070041	0.022109997632
1	4328	39.386105067673	0.073458859354
1	4333	39.459563927027	0.032505346764
1	4338	39.492069273791	0.022555854528
1	4343	39.514625128319	0.007485363638
1	4348	39.522110491957	0.07276343328
1	4354	39.594873925237	0.077334646086
1	4360	39.672208571323	0.084011694678
1	4367	39.756220266001	0.062063239082
1	4375	39.818283505083	0.073465063504
1	4381	39.891748568587	0.003994185604
1	4383	39.895742754191	0.129827640106
1	4392	40.025570394297	0.009250737192
1	4397	40.034821131489	0.040257405893
1	4402	40.075078537382	0.022809060338
1	4407	40.09788759772	0.055953492879
1	4412	40.153841090599	0.027817845208
1	4417	40.181658935807	0.102474301779
1	4424	40.284133237586	0.083125650098
1	4430	40.367258887684	0.017839343664
1	4435	40.385098231348	0.058962998072
1	4441	40.44406122942	0.035975390307
1	4446	40.480036619727	0.047709453458
1	4451	40.527746073185	0.000472347647
1	4453	40.528218420832	0.046313386562
1	4461	40.574531807394	0.060649180131
1	4466	40.635180987525	0.033934714575
1	4471	40.6691157021	0.089543776343
1	4477	40.758659478443	0.026315897586
1	4482	40.784975376029	0.034278391853
1	4487	40.819253767882	0.045749512403
1	4492	40.865003280285	0.002158185495
1	4494	40.86716146578	0.004790660157
1	4496	40.871952125937	0.055921125316
1	4507	40.927873251253	0.004218939956
1	4509	40.932092191209	0.004724659674
1	4514	40.936816850883	0.000209889758
1	4516	40.937026740641	0.010567044155
1	4522	40.947593784796	0.017217446897
1	4530	40.964811231693	0.016908516291
1	4538	40.981719747984	0.013539847036
1	4543	40.99525959502	0.046287622238
1	4548	41.041547217258	0.057656835378
1	4553	41.099204052636	0.017603046655
1	4558	41.116807099291	0.070604764601
1	4563	41.187411863892	0.011260981986
1	4568	41.198672845878	0.126144667176
1	4574	41.324817513054	0.031612150805
1	4579	41.356429663859	0.012078957912
1	4584	41.368508621771	0.029877818072
1	4589	41.398386439843	0.097206881318
1	4594	41.495593321161	0.006031838049
1	4596	41.50162515921	0.074777372737
1	4604	41.576402531947	0.047408160417
1	4609	41.623810692364	0.007543353768
1	4611	41.631354046132	0.007313383052
1	4616	41.638667429184	0.10298887654
1	4626	41.741656305724	0.127513863353
1	4631	41.869170169077	0.010836883938
1	4636	41.880007053015	0.008311045133
1	4641	41.888318098148	0.036842975669
1	4646	41.925161073817	0.218237624602
1	4652	42.143398698419	0.133309247088
1	4659	42.276707945507	0.057108438406
1	4664	42.333816383913	0.060634198179
1	4672	42.394450582092	0.003278275355
1	4674	42.397728857447	0.051351338095
1	4682	42.449080195542	0.015625604115
1	4687	42.464705799657	0.004410848788
1	4689	42.469116648445	0.132174723159
1	4699	42.601291371604	0.033277429523
1	4704	42.634568801127	0.000499784965
1	4706	42.635068586092	0.050906294381
1	4715	42.685974880473	0.236519872969
1	4721	42.922494753442	0.042097872654
1	4726	42.964592626096	0.015108822574
1	4731	42.97970144867	0.045889925563
1	4736	43.025591374233	0.199155503112
1	4743	43.224746877345	0.018236747946
1	4748	43.242983625291	0.066944185348
1	4753	43.309927810639	0.29635339203
1	4760	43.606281202669	0.002050731865
1	4762	43.608331934534	0.005148211901
1	4764	43.613480146435	0.046730628217
1	4775	43.660210774652	0.062713835436
1	4780	43.722924610088	0.114756241716
1	4786	43.837680851804	0.072373432056
1	4793	43.91005428386	0.005774196657
1	4795	43.915828480517	0.049949706887
1	4805	43.965778187404	0.10336066891
1	4810	44.069138856314	0.174364286315
1	4818	44.243503142629	0.008595995066
1	4823	44.252099137695	0.001057788482
1	4825	44.253156926177	0.028446653925
1	4833	44.281603580102	0.023498554915
1	4838	44.305102135017	0.007398741128
1	4840	44.312500876145	0.123110224779
1	4849	44.435611100924	0.096250784641
1	4855	44.531861885565	0.063672713854
1	4860	44.595534599419	0.020231745212
1	4865	44.615766344631	0.139191474514
1	4870	44.754957819145	0.04093936244
1	4875	44.795897181585	0.018205387356
1	4881	44.814102568941	0.017920649464
1	4886	44.832023218405	0.119031342849
1	4892	44.951054561254	0.002278281694
1	4894	44.953332842948	0.089480635112
1	4902	45.04281347806	0.011793264172
1	4907	45.054606742232	0.036990234445
1	4914	45.091596976677	0.056690500876
1	4919	45.148287477553	0.053547641944
1	4924	45.201835119497	0.015438548652
1	4929	45.217273668149	0.053504005208
1	4934	45.270777673357	0.076103094463
1	4939	45.34688076782	0.017653846095
1	4945	45.364534613915	0.013566291951
1	4950	45.378100905866	0.031528313515
1	4955	45.409629219381	0.008008680512
1	4960	45.417637899893	0.03996824609
1	4965	45.457606145983	0.016116960567
1	4971	45.47372310655	0.123501817614
1	4976	45.597224924164	0.004400323195
1	4978	45.601625247359	0.172987979422
1	4987	45.774613226781	0.013541400029
1	4992	45.78815462681	0.077396146559
1	4997	45.865550773369	0.048881306314
1	5002	45.914432079683	0.035495822016
1	5008	45.949927901699	0.015839153046
1	5013	45.965767054745	0.084439249886
1	5019	46.050206304631	0.054252587294
1	5025	46.104458891925	0.072585017849
1	5032	46.177043909774	0.058543814225
1	5038	46.235587723999	0.089202745813
1	5043	46.324790469812	0.00542153445
1	5045	46.330212004262	0.068726373756
1	5055	46.398938378018	0.023221146285
1	5060	46.422159524303	0.000222856454
1	5062	46.422382380757	0.000125844443
1	5064	46.4225082252	0.040141755487
1	5076	46.462649980687	0.017632565468
1	5081	46.480282546155	0.002678459561
1	5083	46.482961005716	0.082634321067
1	5091	46.565595326783	0.025123891923
1	5096	46.590719218706	0.031878128948
1	5101	46.622597347654	0.078680126887
1	5107	46.701277474541	0.116257724274
1	5112	46.817535198815	0.053338443106
1	5118	46.870873641921	0.002165294381
1	5120	46.873038936302	0.358790730388
1	5131	47.23182966669	0.01475625345
1	5137	47.24658592014	0.013880260169
1	5142	47.260466180309	0.021604056802
1	5147	47.282070237111	0.046459973914
1	5152	47.328530211025	0.018299575048
1	5157	47.346829786073	0.007025607327
1	5159	47.3538553934	0.137811501179
1	5167	47.491666894579	0.009445337711
1	5172	47.50111223229	0.022232331136
1	5177	47.523344563426	0.009710423665
1	5183	47.533054987091	0.20787667139
1	5189	47.740931658481	0.12822062491
1	5194	47.869152283391	0.071847482842
1	5200	47.940999766233	0.026802744323
1	5205	47.967802510556	0.029429328321
1	5210	47.997231838877	0.03656366106
1	5215	48.033795499937	0.106629571909
1	5221	48.140425071846	0.043620700229
1	5227	48.184045772075	0.018387486706
1	5232	48.202433258781	0.022647983595
1	5237	48.225081242376	0.132139197616
1	5244	48.357220439992	0.02736593558
1	5250	48.384586375572	0.051218877557
1	5255	48.435805253129	0.061918118256
1	5261	48.497723371385	0.069631941128
1	5267	48.567355312513	0.040303154669
1	5275	48.607658467182	0.049002575812
1	5281	48.656661042994	0.039857872845
1	5286	48.696518915839	0.059941255325
1	5291	48.756460171164	0.018434029429
1	5296	48.774894200593	0.058282698301
1	5302	48.833176898894	0.086773718966
1	5309	48.91995061786	0.052459732382
1	5314	48.972410350242	0.016887077659
1	5319	48.989297427901	0.004588136299
1	5321	48.9938855642	0.074716127398
1	5331	49.068601691598	0.040248296169
1	5336	49.108849987767	0.003988714713
1	5338	49.11283870248	0.003320440554
1	5340	49.116159143034	0.089250972862
1	5351	49.205410115896	0.056188823666
1	5356	49.261598939562	0.011335562571
1	5361	49.272934502133	0.057823033918
1	5366	49.330757536051	0.01279997763
1	5371	49.343557513681	0.238267567741
1	5378	49.581825081422	0.002145097533
1	5380	49.583970178955	0.024064135569
1	5388	49.608034314524	0.013713704704
1	5393	49.621748019228	0.020651772484
1	5398	49.642399791712	0.062485206543
1	5403	49.704884998255	0.00990285392
1	5408	49.714787852175	0.007497368409
1	5410	49.722285220584	0.044418150232
1	5419	49.766703370816	0.014988770729
1	5424	49.781692141545	0.134384583208
1	5431	49.916076724753	0.023558501465
1	5436	49.939635226218	0.029453141266
1	5441	49.969088367484	0.098549242723
1	5447	50.067637610207	0.009365334603
1	5453	50.07700294481	0.020387700103
1	5458	50.097390644913	0.022046372004
1	5463	50.119437016917	0.064220570403
1	5469	50.18365758732	0.025890431391
1	5474	50.209548018711	0.068028059778
1	5480	50.277576078489	0.212522065913
1	5486	50.490098144402	0.016613071169
1	5491	50.506711215571	0.012986172268
1	5496	50.519697387839	0.01507940482
1	5501	50.534776792659	0.084500302903
1	5506	50.619277095562	0.193092716406
1	5513	50.812369811968	0.018814489311
1	5518	50.831184301279	0.040412410741
1	5524	50.87159671202	0.028670721611
1	5529	50.900267433631	0.000847139357
1	5531	50.901114572988	0.137311620005
1	5540	51.038426192993	0.001049457211
1	5542	51.039475650204	0.006250129125
1	5544	51.045725779329	0.002221642042
1	5549	51.047947421371	0.186192427651
1	5564	51.234139849022	0.018048771661
1	5569	51.252188620683	0.093475573232
1	5575	51.345664193915	0.03294317363
1	5580	51.378607367545	0.075607101043
1	5586	51.454214468588	0.02526057316
1	5591	51.479475041748	0.054897131923
1	5597	51.534372173671	0.000244718205
1	5599	51.534616891876	0.128081475729
1	5610	51.662698367605	0.070144512892
1	5615	51.732842880497	0.001467541558
1	5617	51.734310422055	0.014791248457
1	5625	51.749101670512	0.046798089739
1	5630	51.795899760251	0.036129790462
1	5636	51.832029550713	0.066498262754
1	5644	51.898527813467	0.174539204404
1	5650	52.073067017871	0.144608596881
1	5656	52.217675614752	0.042739789382
1	5662	52.260415404134	0.037641895131
1	5667	52.298057299265	0.027473463373
1	5672	52.325530762638	0.022815728266
1	5677	52.348346490904	0.011893419591
1	5682	52.360239910495	0.014778978836
1	5687	52.375018889331	0.034118517939
1	5692	52.40913740727	0.042704340426
1	5697	52.451841747696	0.027416076914
1	5703	52.47925782461	0.06438809166
1	5708	52.54364591627	0.083840646434
1	5714	52.627486562704	0.134735203765
1	5721	52.762221766469	0.013728730104
1	5726	52.775950496573	0.071483889461
1	5731	52.847434386034	0.017128770201
1	5736	52.864563156235	0.082147517842
1	5741	52.946710674077	0.057713613581
1	5747	53.004424287658	0.091126697768
1	5754	53.095550985426	0.04922236897
1	5759	53.144773354396	0.066983483179
1	5764	53.211756837575	0.009634645564
1	5769	53.221391483139	0.028557920416
1	5775	53.249949403555	0.025382410014
1	5780	53.275331813569	0.017331818614
1	5785	53.292663632183	0.024810558832
1	5791	53.317474191015	0.015334253013
1	5796	53.332808444028	0.050103593231
1	5801	53.382912037259	0.027734696899
1	5806	53.410646734158	0.010548710327
1	5811	53.421195444485	0.015879748901
1	5816	53.437075193386	0.02251460632
1	5821	53.459589799706	0.048947467237
1	5826	53.508537266943	0.060126805956
1	5831	53.568664072899	0.029559407977
1	5836	53.598223480876	0.051207572679
1	5841	53.649431053555	0.019678908664
1	5846	53.669109962219	0.00644209697
1	5848	53.675552059189	0.0172823905
1	5856	53.692834449689	0.078158246802
1	5861	53.770992696491	0.018825995868
1	5866	53.789818692359	0.008817776539
1	5871	53.798636468898	0.070254905617
1	5877	53.868891374515	0.065912517656
1	5882	53.934803892171	0.104950585974
1	5888	54.039754478145	0.243184533458
1	5897	54.282939011603	0.062411522642
1	5902	54.345350534245	0.048842132542
1	5907	54.394192666787	0.013274198331
1	5912	54.407466865118	0.0185984298
1	5918	54.426065294918	0.035513331634
1	5923	54.461578626552	0.129425264077
1	5931	54.591003890629	0.111182878905
1	5936	54.702186769534	0.02990608053
1	5941	54.732092850064	0.011194444802
1	5946	54.743287294866	0.136011494961
1	5952	54.879298789827	0.019490466324
1	5957	54.898789256151	0.00344641753
1	5959	54.902235673681	0.08770537452
1	5968	54.989941048201	0.073414869962
1	5973	55.063355918163	0.005494839315
1	5975	55.068850757478	0.033495154956
1	5984	55.102345912434	0.092938525632
1	5990	55.195284438066	0.018555057282
1	5995	55.213839495348	0.144415495256
1	6001	55.358254990604	0.048000175619
1	6008	55.406255166223	0.019311011733
1	6013	55.425566177956	0.070358350225
1	6018	55.495924528181	0.001642145971
1	6020	55.497566674152	0.001927571681
1	6022	55.499494245833	0.292879686622
1	6035	55.792373932455	0.185452964246
1	6041	55.977826896701	0.074416887969
1	6046	56.05224378467	0.082078505194
1	6051	56.134322289864	0.038764038292
1	6056	56.173086328156	0.029968827677
1	6061	56.203055155833	0.008374874456
1	6063	56.211430030289	0.070455705708
1	6071	56.281885735997	0.083552169932
1	6077	56.365437905929	0.023665836093
1	6082	56.389103742022	0.001551614087
1	6084	56.390655356109	0.005253693986
1	6086	56.395909050095	0.008271943637
1	6091	56.404180993732	0.023941983219
1	6103	56.428122976951	0.002251148187
1	6105	56.430374125138	0.006692694449
1	6110	56.437066819587	0.035432090124
1	6118	56.472498909711	0.019620153648
1	6123	56.492119063359	0.003663769164
1	6125	56.495782832523	0.09331199037
1	6133	56.589094822893	0.008248523772
1	6135	56.597343346665	0.183863546508
1	6146	56.781206893173	0.032757212262
1	6151	56.813964105435	0.022803363651
1	6158	56.836767469086	0.053388952981
1	6163	56.890156422067	0.040446452327
1	6168	56.930602874394	0.011247293081
1	6173	56.941850167475	0.007690308522
1	6175	56.949540475997	0.034430995694
1	6184	56.983971471691	0.019934468476
1	6189	57.003905940167	0.135798603506
1	6196	57.139704543673	0.021056765134
1	6201	57.160761308807	0.010981884154
1	6206	57.171743192961	0.027397836513
1	6212	57.199141029474	0.028010693338
1	6217	57.227151722812	0.078714749478
1	6223	57.30586647229	0.01296265481
1	6228	57.3188291271	0.039868082575
1	6233	57.358697209675	0.028215098794
1	6238	57.386912308469	0.130243785007
1	6245	57.517156093476	0.035004364217
1	6250	57.552160457693	0.08762212811
1	6256	57.639782585803	0.003106230311
1	6258	57.642888816114	0.037854424551
1	6266	57.680743240665	0.058967997719
1	6272	57.739711238384	0.135764968578
1	6277	57.875476206962	0.032813716757
1	6282	57.908289923719	0.011076786199
1	6287	57.919366709918	0.020975477336
1	6293	57.940342187254	0.053828046706
1	6298	57.99417023396	0.053984169489
1	6305	58.048154403449	0.062557244776
1	6312	58.110711648225	0.026182987333
1	6318	58.136894635558	0.026135126136
1	6323	58.163029761694	0.005611629784
1	6326	58.168641391478	0.004845510511
1	6331	58.173486901989	0.006562166256
1	6337	58.180049068245	0.055085736785
1	6346	58.23513480503	0.100172692801
1	6353	58.335307497831	0.1753803589
1	6360	58.510687856731	0.004593982522
1	6362	58.515281839253	0.026977942658
1	6370	58.542259781911	0.007822898428
1	6375	58.550082680339	0.030655294819
1	6380	58.580737975158	0.041615657102
1	6386	58.62235363226	0.049747024519
1	6392	58.672100656779	0.132577737089
1	6399	58.804678393868	0.055253182061
1	6405	58.859931575929	0.013745095156
1	6410	58.873676671085	0.202181656965
1	6417	59.07585832805	0.022631828333
1	6422	59.098490156383	0.025220297717
1	6427	59.1237104541	0.023566315705
1	6432	59.147276769805	0.040357914168
1	6438	59.187634683973	0.079106517219
1	6443	59.266741201192	0.0142215522
1	6448	59.280962753392	0.018895267088
1	6453	59.29985802048	0.050780268946
1	6459	59.350638289426	0.146012849438
1	6465	59.496651138864	0.079407411994
1	6470	59.576058550858	0.04507765212
1	6477	59.621136202978	0.047128747721
1	6482	59.668264950699	0.118975609279
1	6487	59.787240559978	0.171120807407
1	6492	59.958361367385	0.009140198033
1	6497	59.967501565418	0.034102460114
1	6502	60.001604025532	0.025208072199
1	6507	60.026812097731	0.006344686058
1	6509	60.033156783789	0.021501699482
1	6517	60.054658483271	0.048111369043
1	6522	60.102769852314	0.035608823032
1	6527	60.138378675346	0.155042949966
1	6533	60.293421625312	0.002405547387
1	6535	60.295827172699	0.020309728389
1	6543	60.316136901088	0.035811363603
1	6548	60.351948264691	0.179095165871
1	6554	60.531043430562	0.138715921209
1	6559	60.669759351771	0.142762765852
1	6566	60.812522117623	0.038953525363
1	6572	60.851475642986	0.03423465801
1	6577	60.885710300996	0.001013768334
1	6579	60.88672406933	0.045873363409
1	6588	60.932597432739	0.019840854187
1	6593	60.952438286926	0.08889624301
1	6599	61.041334529936	0.042881412785
1	6605	61.084215942721	0.026557714565
1	6611	61.110773657286	0.035945591302
1	6616	61.146719248588	0.009849875416
1	6621	61.156569124004	0.041201623411
1	6626	61.197770747415	0.052540237352
1	6631	61.250310984767	0.024376226851
1	6636	61.274687211618	0.007446374923
1	6641	61.282133586541	0.17976265527
1	6649	61.461896241811	0.011568483641
1	6654	61.473464725452	0.002179227586
1	6656	61.475643953038	0.004564073884
1	6658	61.480208026922	0.043197674763
1	6669	61.523405701685	0.160223975677
1	6674	61.683629677362	0.017193228302
1	6679	61.700822905664	0.004564555472
1	6681	61.705387461136	0.048666828006
1	6689	61.754054289142	0.234755088682
1	6695	61.988809377824	0.023018589209
1	6700	62.011827967033	0.025318790335
1	6705	62.037146757368	0.039876649363
1	6711	62.077023406731	0.121928249828
1	6717	62.198951656559	0.061453963493
1	6722	62.260405620052	0.001106245028
1	6724	62.26151186508	0.016374017554
1	6732	62.277885882634	0.020182913408
1	6737	62.298068796042	0.066867589336
1	6742	62.364936385378	0.051482592728
1	6748	62.416418978106	0.081057765704
1	6755	62.49747674381	0.021776777355
1	6760	62.519253521165	0.013982450134
1	6765	62.533235971299	0.009862287987
1	6770	62.543098259286	0.087530736244
1	6775	62.63062899553	0.021222218736
1	6780	62.651851214266	0.028278083697
1	6785	62.680129297963	0.076483528575
1	6791	62.756612826538	0.092524605788
1	6796	62.849137432326	0.006010920484
1	6798	62.85514835281	0.020361115662
1	6806	62.875509468472	0.073784017554
1	6811	62.949293486026	0.027056531908
1	6816	62.976350017934	0.034368681625
1	6821	63.010718699559	0.000744130151
1	6823	63.01146282971	0.059892931982
1	6831	63.071355761692	0.021681608816
1	6836	63.093037370508	0.119807006037
1	6843	63.212844376545	0.02892388398
1	6848	63.241768260525	0.007825376439
1	6853	63.249593636964	0.031859545082
1	6858	63.281453182046	0.080667567506
1	6864	63.362120749552	0.020344929935
1	6869	63.382465679487	0.085217213914
1	6876	63.467682893401	0.021378162468
1	6881	63.489061055869	0.011186625601
1	6886	63.50024768147	0.09752581446
1	6891	63.59777349593	0.007483796134
1	6893	63.605257292064	0.029468190006
1	6901	63.63472548207	0.084153239851
1	6906	63.718878721921	0.003309911912
1	6908	63.722188633833	0.053639782456
1	6917	63.775828416289	0.065770457782
1	6922	63.841598874071	0.010498153712
1	6927	63.852097027783	0.111957655733
1	6932	63.964054683516	0.015327038474
1	6937	63.97938172199	0.063607981457
1	6942	64.042989703447	0.036923922497
1	6948	64.079913625944	0.036896524288
1	6953	64.116810150232	0.083791722545
1	6960	64.200601872777	0.030394928592
1	6965	64.230996801369	0.026699098858
1	6971	64.257695900227	0.158188686747
1	6976	64.415884586974	0.002153752182
1	6978	64.418038339156	0.02496949492
1	6986	64.443007834076	0.002219760476
1	6988	64.445227594552	0.139596347506
1	6996	64.584823942058	0.006894516259
1	6998	64.591718458317	0.079913268645
1	7006	64.671631726962	0.006897111782
1	7008	64.678528838744	0.023373143061
1	7016	64.701901981805	0.038904572127
1	7021	64.740806553932	0.011811824115
1	7026	64.752618378047	0.124089502486
1	7031	64.876707880533	0.006865522815
1	7033	64.883573403348	0.049242475693
1	7041	64.932815879041	0.036912903514
1	7046	64.969728782555	0.006184109726
1	7048	64.975912892281	0.096422183548
1	7057	65.072335075829	0.085353999177
1	7062	65.157689075006	0.0657681143
1	7067	65.223457189306	0.042741425852
1	7072	65.266198615158	0.164914268097
1	7079	65.431112883255	0.034813132159
1	7084	65.465926015414	0.131876550061
1	7089	65.597802565475	0.017783711095
1	7094	65.61558627657	0.057875282895
1	7100	65.673461559465	0.028736904449
1	7105	65.702198463914	0.014924872958
1	7110	65.717123336872	0.045927575391
1	7115	65.763050912263	0.019667317337
1	7120	65.7827182296	0.000211750044
1	7122	65.782929979644	0.058385088973
1	7130	65.841315068617	0.033488238916
1	7135	65.874803307533	0.017634044405
1	7141	65.892437351938	0.025087379402
1	7146	65.91752473134	0.061672103586
1	7153	65.979196834926	0.025371233015
1	7158	66.004568067941	0.058247214237
1	7164	66.062815282178	0.069060111258
1	7169	66.131875393436	0.031227728651
1	7174	66.163103122087	0.001237258323
1	7176	66.16434038041	0.039238216798
1	7184	66.203578597208	0.010324285287
1	7189	66.213902882495	0.087415741147
1	7197	66.301318623642	0.027793585478
1	7203	66.32911220912	0.037808040535
1	7208	66.366920249655	0.013324972629
1	7213	66.380245222284	0.026886046227
1	7220	66.407131268511	0.040292022249
1	7225	66.44742329076	0.026355462932
1	7230	66.473778753692	0.075619746513
1	7236	66.549398500205	0.015487570177
1	7241	66.564886070382	0.004260221127
1	7243	66.569146291509	0.000187089182
1	7245	66.569333380691	0.011441919278
1	7253	66.580775299969	0.166514362834
1	7263	66.747289662803	0.188903022359
1	7270	66.936192685162	0.024526971474
1	7275	66.960719656636	0.099555489233
1	7280	67.060275145869	0.0482802758
1	7285	67.108555421669	0.151193026519
1	7290	67.259748448188	0.014705660711
1	7295	67.274454108899	0.017287608346
1	7300	67.291741717245	0.030804551391
1	7305	67.322546268636	0.027126934882
1	7310	67.349673203518	0.130311463587
1	7315	67.479984667105	0.034759935783
1	7320	67.514744602888	0.01870420118
1	7325	67.533448804068	0.139535741456
1	7330	67.672984545524	0.02993196754
1	7335	67.702916513064	0.01088658549
1	7340	67.713803098554	0.238933645963
1	7348	67.952736744517	0.051622055954
1	7353	68.004358800471	0.080461713938
1	7358	68.084820514409	0.055727071505
1	7364	68.140547585914	0.020961456371
1	7369	68.161509042285	0.01879557634
1	7374	68.180304618625	0.00666688516
1	7376	68.186971503785	0.003560425129
1	7381	68.190531928914	0.008799580053
1	7386	68.199331508967	0.032987221355
1	7394	68.232318730322	0.09250979664
1	7399	68.324828526962	0.007319366292
1	7401	68.332147893254	0.06009945888
1	7409	68.392247352134	0.201371929477
1	7416	68.593619281611	0.048470245402
1	7421	68.642089527013	0.068148093152
1	7426	68.710237620165	0.072800006039
1	7431	68.783037626204	0.000371289401
1	7433	68.783408915605	0.066999853824
1	7441	68.850408769429	0.112467689546
1	7447	68.962876458975	0.068933333065
1	7454	69.03180979204	0.06763443807
1	7459	69.09944423011	0.098024972438
1	7465	69.197469202548	0.071738118874
1	7470	69.269207321422	0.181296916264
1	7475	69.450504237686	0.005665190988
1	7477	69.456169428674	0.008253858353
1	7482	69.464423287027	0.009374735541
1	7490	69.473798022568	0.020214229304
1	7495	69.494012251872	0.003677116973
1	7497	69.497689368845	0.072421243418
1	7505	69.570110612263	0.001553901318
1	7507	69.571664513581	0.056108934981
1	7515	69.627773448562	0.047405154066
1	7520	69.675178602628	0.016593805778
1	7525	69.691772408406	0.036264701339
1	7530	69.728037109745	0.033383497433
1	7535	69.761420607178	0.024941996585
1	7540	69.786362603763	0.024045034161
1	7545	69.810407637924	0.179429955058
1	7551	69.989837592982	0.037108863896
1	7556	70.026946456878	0.02463538392
1	7561	70.051581840798	0.058381304359
1	7566	70.109963145157	0.004906675868
1	7568	70.114869821025	0.159630370975
1	7577	70.274500192	0.011924032383
1	7582	70.286424224383	0.055547908308
1	7588	70.341972132691	0.009464959956
1	7593	70.351437092647	0.002465150768
1	7595	70.353902243415	0.015433816163
1	7604	70.369336059578	0.020908876498
1	7609	70.390244936076	0.141769023712
1	7614	70.532013959788	0.040866230176
1	7619	70.572880189964	0.019392422983
1	7624	70.592272612947	0.053611076369
1	7630	70.645883689316	0.070811785069
1	7635	70.716695474385	0.030716793834
1	7640	70.747412268219	0.11631130052
1	7645	70.863723568739	0.055564782578
1	7650	70.919288351317	0.03828458199
1	7655	70.957572933307	0.027801054759
1	7660	70.985373988066	0.002443635947
1	7662	70.987817624013	0.03381279404
1	7670	71.021630418053	0.02235544185
1	7675	71.043985859903	0.016282010797
1	7681	71.0602678707	0.014489777523
1	7686	71.074757648223	0.172180035266
1	7692	71.246937683489	0.063622028049
1	7698	71.310559711538	0.136530308948
1	7706	71.447090020486	0.038359155972
1	7711	71.485449176458	0.080990484934
1	7717	71.566439661392	0.026992498234
1	7722	71.593432159626	0.028686481165
1	7727	71.622118640791	0.023611250734
1	7732	71.645729891525	0.056733690836
1	7738	71.702463582361	0.017544352569
1	7744	71.72000793493	0.004781456451
1	7746	71.724789391381	0.091493209931
1	7755	71.816282601312	0.048238298981
1	7760	71.864520900293	0.080815250958
1	7765	71.945336151251	0.101717860257
1	7770	72.047054011508	0.016978441246
1	7775	72.064032452754	0.084966774326
1	7780	72.14899922708	0.029022008661
1	7785	72.178021235741	0.000845343998
1	7787	72.178866579739	0.036760760398
1	7795	72.215627340137	0.068485023697
1	7801	72.284112363834	0.030840464283
1	7806	72.314952828117	0.038917475774
1	7811	72.353870303891	0.023511382392
1	7816	72.377381686283	0.029153615511
1	7821	72.406535301794	0.051322914789
1	7827	72.457858216583	0.010553141837
1	7832	72.46841135842	0.008247747373
1	7837	72.476659105793	0.002234888108
1	7839	72.478893993901	0.068446218261
1	7847	72.547340212162	0.049922325257
1	7852	72.597262537419	0.014850453691
1	7857	72.61211299111	0.088377336077
1	7862	72.700490327187	0.047470626098
1	7867	72.747960953285	0.003358958357
1	7869	72.751319911642	0.010958100028
1	7874	72.76227801167	0.043557523155
1	7882	72.805835534825	0.109654843305
1	7887	72.91549037813	0.090168171636
1	7894	73.005658549766	0.010495214155
1	7899	73.016153763921	0.025518822376
1	7904	73.041672586297	0.042995477577
1	7909	73.084668063874	0.022441613322
1	7914	73.107109677196	0.051433686699
1	7919	73.158543363895	0.019585630903
1	7924	73.178128994798	0.0759136375
1	7929	73.254042632298	0.084934952988
1	7935	73.338977585286	0.06610957569
1	7940	73.405087160976	0.109101672049
1	7945	73.514188833025	0.011661446637
1	7950	73.525850279662	0.041454014085
1	7955	73.567304293747	0.035190003174
1	7960	73.602494296921	0.037215696046
1	7965	73.639709992967	0.003230507741
1	7967	73.642940500708	0.000898236443
1	7969	73.643838737151	0.036184169263
1	7980	73.680022906414	0.000150661679
1	7982	73.680173568093	0.007869338893
1	7987	73.688042906986	0.134375080147
1	7996	73.822417987133	0.007484342121
1	7998	73.829902329254	0.089594201021
1	8007	73.919496530275	0.020679553073
1	8012	73.940176083348	0.010057739524
1	8017	73.950233822872	0.006445968723
1	8019	73.956679791595	0.010755087591
1	8028	73.967434879186	0.059030834197
1	8033	74.026465713383	0.000567083655
1	8035	74.027032797038	0.040795495613
1	8043	74.067828292651	0.044196798829
1	8048	74.11202509148	0.104787972679
1	8054	74.216813064159	0.01457225388
1	8061	74.231385318039	0.034233429101
1	8068	74.26561874714	0.052644631813
1	8075	74.318263378953	0.030761882224
1	8080	74.349025261177	0.055708610846
1	8085	74.404733872023	0.132860709753
1	8090	74.537594581776	0.055757535073
1	8095	74.593352116849	0.024354622632
1	8100	74.617706739481	0.02990617589
1	8105	74.647612915371	0.081401430623
1	8111	74.729014345994	0.065720919022
1	8116	74.794735265016	0.008470665438
1	8122	74.803205930454	0.015401312021
1	8127	74.818607242475	0.020532898717
1	8133	74.839140141192	0.085493539867
1	8138	74.924633681059	0.060702713311
1	8143	74.98533639437	0.031273344222
1	8148	75.016609738592	0.042163734344
1	8154	75.058773472936	0.021635151792
1	8159	75.080408624728	0.003480795302
1	8162	75.08388942003	0.033243089712
1	8171	75.117132509742	0.067020743296
1	8178	75.184153253038	0.018571207604
1	8183	75.202724460642	0.001893272417
1	8185	75.204617733059	0.049982290174
1	8194	75.254600023233	0.013938966249
1	8200	75.268538989482	0.004792741031
1	8202	75.273331730513	0.009389177809
1	8207	75.282720908322	0.015086736928
1	8215	75.29780764525	0.115304295263
1	8220	75.413111940513	0.018069585774
1	8225	75.431181526287	0.049878253698
1	8230	75.481059779985	0.002251998328
1	8232	75.483311778313	0.130512573689
1	8241	75.613824352002	0.084249288967
1	8246	75.698073640969	0.02798327758
1	8251	75.726056918549	0.066998642987
1	8256	75.793055561536	0.007066928691
1	8258	75.800122490227	0.044730061543
1	8267	75.84485255177	0.102812958001
1	8272	75.947665509771	0.146623067558
1	8278	76.094288577329	0.08466597083
1	8284	76.178954548159	0.117039883889
1	8289	76.295994432048	0.126802472189
1	8294	76.422796904237	0.035792797744
1	8300	76.458589701981	0.016738426752
1	8305	76.475328128733	0.122382482124
1	8310	76.597710610857	0.036392123418
1	8315	76.634102734275	0.101073093758
1	8320	76.735175828033	0.047645876835
1	8326	76.782821704868	0.061182259087
1	8331	76.844003963955	0.015532140635
1	8336	76.85953610459	0.033622700966
1	8341	76.893158805556	0.007565625766
1	8343	76.900724431322	0.030920314231
1	8351	76.931644745553	0.043205377411
1	8356	76.974850122964	0.005490530001
1	8358	76.980340652965	0.047170329785
1	8366	77.02751098275	0.110857661343
1	8372	77.138368644093	0.013151589787
1	8377	77.15152023388	0.027901447295
1	8383	77.179421681175	0.042231036728
1	8389	77.221652717903	0.00591466401
1	8391	77.227567381913	0.003387758507
1	8396	77.23095514042	0.009345734133
1	8401	77.240300874553	0.012163528969
1	8406	77.252464403522	0.086711333318
1	8414	77.33917573684	0.010583418393
1	8419	77.349759155233	0.028277914374
1	8424	77.378037069607	0.194185596418
1	8429	77.572222666025	0.052335471761
1	8434	77.624558137786	0.049876440023
1	8440	77.674434577809	0.013367037834
1	8445	77.687801615643	0.072244849411
1	8450	77.760046465054	0.074968579252
1	8455	77.835015044306	0.03867283792
1	8460	77.873687882226	0.056424173752
1	8465	77.930112055978	0.013955084092
1	8470	77.94406714007	0.022883139394
1	8475	77.966950279464	0.007812341665
1	8477	77.974762621129	0.215782949046
1	8486	78.190545570175	0.025497253766
1	8491	78.216042823941	0.00601702517
1	8493	78.222059849111	0.024244637564
1	8501	78.246304486675	0.017411733822
1	8506	78.263716220497	0.199569869573
1	8512	78.46328609007	0.161747604618
1	8519	78.625033694688	0.010888405289
1	8524	78.635922099977	0.002477715833
1	8526	78.63839981581	0.039071581367
1	8535	78.677471397177	0.355359857122
1	8544	79.032831254299	0.024444655435
1	8549	79.057275909734	0.003186798423
1	8551	79.060462708157	0.037226756404
1	8559	79.097689464561	0.010823004723
1	8564	79.108512469284	0.178128922101
1	8571	79.286641391385	0.014113504887
1	8576	79.300754896272	0.050493536503
1	8581	79.351248432775	0.105557873476
1	8586	79.456806306251	0.048518923717
1	8591	79.505325229968	0.005872860457
1	8593	79.511198090425	0.03686356774
1	8601	79.548061658165	0.014653862267
1	8606	79.562715520432	0.016406919108
1	8611	79.57912243954	0.055776964157
1	8617	79.634899403697	0.010819697388
1	8622	79.645719101085	0.003016278605
1	8624	79.64873537969	0.000588064605
1	8626	79.649323444295	0.015934278804
1	8634	79.665257723099	0.03115673578
1	8642	79.696414458879	0.002551121915
1	8644	79.698965580794	0.118741826734
1	8653	79.817707407528	0.0068895532
1	8655	79.824596960728	0.032588552794
1	8663	79.857185513522	0.018690427816
1	8668	79.875875941338	0.007615948996
1	8670	79.883491890334	0.108161706936
1	8680	79.99165359727	0.049477252319
1	8686	80.041130849589	0.049080376588
1	8691	80.090211226177	0.112248682707
1	8696	80.202459908884	0.039987353592
1	8701	80.242447262476	0.003656115746
1	8703	80.246103378222	0.002163302403
1	8705	80.248266680625	0.00391653539
1	8710	80.252183216015	0.004315299787
1	8712	80.256498515802	0.137767289349
1	8726	80.394265805151	0.043165821285
1	8731	80.437431626436	0.200705329809
1	8739	80.638136956245	0.023982035375
1	8745	80.66211899162	0.059920000405
1	8750	80.722038992025	0.010678790382
1	8755	80.732717782407	0.012590764566
1	8760	80.745308546973	0.001735380675
1	8762	80.747043927648	0.098806833555
1	8771	80.845850761203	0.014336045506
1	8776	80.860186806709	0.050401373843
1	8781	80.910588180552	0.058702975094
1	8786	80.969291155646	0.111597343652
1	8791	81.080888499298	0.016055026135
1	8796	81.096943525433	0.045885679966
1	8801	81.142829205399	0.106255452544
1	8809	81.249084657943	0.009497413019
1	8814	81.258582070962	0.155103234986
1	8821	81.413685305948	0.005616794458
1	8823	81.419302100406	0.01229254133
1	8831	81.431594641736	0.006486529075
1	8835	81.438081170811	0.012014691849
1	8843	81.45009586266	0.072778920907
1	8850	81.522874783567	0.110953648181
1	8856	81.633828431748	0.001338103049
1	8858	81.635166534797	0.03710914946
1	8867	81.672275684257	0.054311638331
1	8872	81.726587322588	0.039372371276
1	8877	81.765959693864	0.014175488882
1	8882	81.780135182746	0.114512784412
1	8888	81.894647967158	0.031533340823
1	8893	81.926181307981	0.031800497002
1	8898	81.957981804983	0.025089744982
1	8904	81.983071549965	0.083514783883
1	8910	82.066586333848	0.110785189573
1	8915	82.177371523421	0.013772272095
1	8920	82.191143795516	0.036785431796
1	8925	82.227929227312	0.046182513727
1	8930	82.274111741039	0.00436474182
1	8932	82.278476482859	0.027695499902
1	8940	82.306171982761	0.053371419756
1	8945	82.359543402517	0.053157080541
1	8950	82.412700483058	0.050292654088
1	8955	82.462993137146	0.026835649514
1	8960	82.48982878666	0.010541191405
1	8966	82.500369978065	0.024503298775
1	8972	82.52487327684	0.017182520256
1	8977	82.542055797096	0.025991242532
1	8982	82.568047039628	0.009147911282
1	8987	82.57719495091	0.089221944445
1	8992	82.666416895355	0.039386597185
1	8997	82.70580349254	0.039521036689
1	9002	82.745324529229	0.027373441335
1	9007	82.772697970564	0.018430528876
1	9012	82.79112849944	0.019259874686
1	9017	82.810388374126	0.049781408988
1	9022	82.860169783114	0.061314605763
1	9028	82.921484388877	0.0561511055
1	9033	82.977635494377	0.077336766415
1	9038	83.054972260792	0.083774205461
1	9045	83.138746466253	0.005308365711
1	9047	83.144054831964	0.046972008453
1	9055	83.191026840417	0.016594835066
1	9060	83.207621675483	0.0646610964
1	9065	83.272282771883	0.098539365079
1	9070	83.370822136962	0.144432129852
1	9075	83.515254266814	0.023053356614
1	9080	83.538307623428	0.08801273519
1	9086	83.626320358618	0.027966235505
1	9091	83.654286594123	0.111756567353
1	9097	83.766043161476	0.036399794331
1	9102	83.802442955807	0.036734472506
1	9107	83.839177428313	0.00354432871
1	9109	83.842721757023	0.002052464925
1	9111	83.844774221948	0.01253049487
1	9120	83.857304716818	0.032644453429
1	9128	83.889949170247	0.014845726796
1	9133	83.904794897043	0.004330100986
1	9135	83.909124998029	0.12926435866
1	9144	84.038389356689	0.08220794919
1	9149	84.120597305879	0.003715772447
1	9151	84.124313078326	0.073163764917
1	9161	84.197476843243	0.016336613211
1	9167	84.213813456454	0.047855790651
1	9172	84.261669247105	0.094912761834
1	9177	84.356582008939	0.035238977601
1	9182	84.39182098654	0.010558764751
1	9189	84.402379751291	0.0561721342
1	9195	84.458551885491	0.038336242993
1	9201	84.496888128484	0.002984158271
1	9203	84.499872286755	0.013199714834
1	9211	84.513072001589	0.03150846958
1	9216	84.544580471169	0.044613032874
1	9221	84.589193504043	0.110482972481
1	9230	84.699676476524	0.052519818581
1	9235	84.752196295105	0.012689274027
1	9240	84.764885569132	0.069226480317
1	9245	84.834112049449	0.020684287626
1	9251	84.854796337075	0.018894793136
1	9256	84.873691130211	0.156337519463
1	9261	85.030028649674	0.120062028648
1	9269	85.150090678322	0.073993801423
1	9274	85.224084479745	0.043212437179
1	9279	85.267296916924	0.00234216219
1	9281	85.269639079114	0.017926031251
1	9289	85.287565110365	0.096542145915
1	9294	85.38410725628	0.043726070117
1	9299	85.427833326397	0.026538797757
1	9304	85.454372124154	0.030068058253
1	9309	85.484440182407	0.007949778447
1	9314	85.492389960854	0.011443239828
1	9319	85.503833200682	0.193224468856
1	9325	85.697057669538	0.010062865993
1	9330	85.707120535531	0.01688132248
1	9335	85.724001858011	0.100160342285
1	9340	85.824162200296	0.005714888725
1	9342	85.829877089021	0.018145213307
1	9351	85.848022302328	0.014559456709
1	9356	85.862581759037	0.033405902463
1	9361	85.8959876615	0.024977847566
1	9369	85.920965509066	0.053322976563
1	9374	85.974288485629	0.02249941142
1	9379	85.996787897049	0.004540255378
1	9381	86.001328152427	0.02922380038
1	9389	86.030551952807	0.096908605817
1	9396	86.127460558624	0.003914070362
1	9398	86.131374628986	0.015908489738
1	9406	86.147283118724	0.062365492222
1	9412	86.209648610946	0.046683730134
1	9418	86.25633234108	0.034998238124
1	9423	86.291330579204	0.032291680093
1	9428	86.323622259297	0.003566090584
1	9430	86.327188349881	0.011777783402
1	9438	86.338966133283	0.023246482788
1	9443	86.362212616071	0.053390601923
1	9448	86.415603217994	0.027017930004
1	9454	86.442621147998	0.047230827763
1	9459	86.489851975761	0.057046512416
1	9464	86.546898488177	0.007700951026
1	9469	86.554599439203	0.002131290362
1	9471	86.556730729565	0.141263223549
1	9483	86.697993953114	0.144207276007
1	9490	86.842201229121	0.113592781675
1	9495	86.955794010796	0.069190915631
1	9500	87.024984926427	0.027144672001
1	9507	87.052129598428	0.026688329811
1	9513	87.078817928239	0.062820702451
1	9518	87.14163863069	0.06584398533
1	9524	87.20748261602	0.073290282592
1	9529	87.280772898612	0.052266368846
1	9535	87.333039267458	0.080831796427
1	9541	87.413871063885	0.00421094955
1	9543	87.418082013435	0.098113284622
1	9551	87.516195298057	0.156144960484
1	9557	87.672340258541	0.010673912421
1	9562	87.683014170962	0.034864003958
1	9568	87.71787817492	0.004404714653
1	9570	87.722282889573	0.023951285801
1	9578	87.746234175374	0.032224151046
1	9584	87.77845832642	0.021410835802
1	9589	87.799869162222	0.007944240811
1	9594	87.807813403033	0.088282860707
1	9601	87.89609626374	0.068148590066
1	9606	87.964244853806	0.068263559251
1	9612	88.032508413057	0.009493875886
1	9617	88.042002288943	0.049616982131
1	9623	88.091619271074	0.040378049812
1	9629	88.131997320886	0.005187039636
1	9631	88.137184360522	0.036775099853
1	9641	88.173959460375	0.141515139015
1	9646	88.31547459939	0.017275764546
1	9651	88.332750363936	0.014001275212
1	9656	88.346751639148	0.091871294112
1	9662	88.43862293326	0.051334471042
1	9668	88.489957404302	0.199561313969
1	9677	88.689518718271	0.018313857317
1	9682	88.707832575588	0.013138378641
1	9687	88.720970954229	0.093291584041
1	9694	88.81426253827	0.093636125498
1	9699	88.907898663768	0.085153912315
1	9704	88.993052576083	0.168891662099
1	9710	89.161944238182	0.063217696384
1	9716	89.225161934566	0.079439718938
1	9723	89.304601653504	0.053703584773
1	9729	89.358305238277	0.005726197866
1	9731	89.364031436143	0.011283288344
1	9736	89.375314724487	0.115297797724
1	9747	89.490612522211	0.060475728817
1	9752	89.551088251028	0.069211194338
1	9757	89.620299445366	0.06068449389
1	9763	89.680983939256	0.172812738041
1	9770	89.853796677297	0.012087628211
1	9775	89.865884305508	0.008784123668
1	9780	89.874668429176	0.030625414205
1	9785	89.905293843381	0.011643857863
1	9790	89.916937701244	0.059558827489
1	9795	89.976496528733	0.056439005034
1	9801	90.032935533767	0.059010784402
1	9806	90.091946318169	0.007268998456
1	9808	90.099215316625	0.045355564473
1	9817	90.144570881098	0.008829791806
1	9822	90.153400672904	0.005220204463
1	9824	90.158620877367	0.063561848816
1	9832	90.222182726183	0.000599518726
1	9834	90.222782244909	0.001388327096
1	9836	90.224170572005	0.018641953874
1	9844	90.242812525879	0.075137677196
1	9853	90.317950203075	0.000776355788
1	9855	90.318726558863	0.080179339148
1	9863	90.398905898011	0.083846070778
1	9868	90.482751968789	0.052963265276
1	9873	90.535715234065	0.017424988755
1	9878	90.55314022282	0.11063310839
1	9883	90.66377333121	0.00623427596
1	9885	90.67000760717	0.04475875962
1	9895	90.71476636679	0.143905903163
1	9901	90.858672269953	0.052133154143
1	9906	90.910805424096	0.137822277718
1	9912	91.048627701814	0.017320702509
1	9917	91.065948404323	0.022156784744
1	9922	91.088105189067	0.067533219871
1	9927	91.155638408938	0.02865500126
1	9932	91.184293410198	0.027252577408
1	9938	91.211545987606	0.014553870825
1	9943	91.226099858431	0.011916068873
1	9948	91.238015927304	0.02909931183
1	9953	91.267115239134	0.100905504517
1	9959	91.368020743651	0.015276369079
1	9964	91.38329711273	0.034057280785
1	9969	91.417354393515	0.036245950335
1	9974	91.45360034385	0.016983052558
1	9979	91.470583396408	0.072626153865
1	9984	91.543209550273	0.095379083874
1	9991	91.638588634147	0.029396959896
1	9997	91.667985594043	0.012990032365
1	10002	91.680975626408	0.059857323967
1	10007	91.740832950375	0.099926546892
1	10013	91.840759497267	0.076184789624
1	10018	91.916944286891	0.010762301779
1	10024	91.92770658867	0.041784250077
1	10029	91.969490838747	0.018885572297
1	10035	91.988376411044	0.085163429293
1	10040	92.073539840337	0.21650568411
1	10046	92.290045524447	0.02617036862
1	10053	92.316215893067	0.005046040197
1	10055	92.321261933264	0.061503772684
1	10063	92.382765705948	0.026224126493
1	10068	92.408989832441	0.002567623033
1	10070	92.411557455474	0.136334971118
1	10079	92.547892426592	0.011891834768
1	10084	92.55978426136	0.115436065137
1	10090	92.675220326497	0.058814389077
1	10097	92.734034715574	0.0122114331
1	10102	92.746246148674	0.054627337462
1	10108	92.800873486136	0.108436359414
1	10115	92.90930984555	0.033322386357
1	10120	92.942632231907	0.045188776412
1	10125	92.987821008319	0.05687558063
1	10130	93.044696588949	0.046381600297
1	10135	93.091078189246	0.186043793078
1	10141	93.277121982324	0.01749494312
1	10146	93.294616925444	0.025026767025
1	10151	93.319643692469	0.044332145996
1	10156	93.363975838465	0.072248342728
1	10163	93.436224181193	0.05616554437
1	10168	93.492389725563	0.01386528406
1	10173	93.506255009623	0.04966106532
1	10178	93.555916074943	0.012185238581
1	10183	93.568101313524	0.023450277985
1	10188	93.591551591509	0.114914282693
1	10194	93.706465874202	0.038346833821
1	10199	93.744812708023	0.03206018745
1	10204	93.776872895473	0.096794539787
1	10209	93.87366743526	0.05733463763
1	10214	93.93100207289	0.011955605992
1	10219	93.942957678882	0.012450381561
1	10224	93.955408060443	0.06578276625
1	10229	94.021190826693	0.131562974393
1	10236	94.152753801086	0.046038029805
1	10241	94.198791830891	0.02104917668
1	10246	94.219841007571	0.005457297066
1	10248	94.225298304637	0.013930439351
1	10256	94.239228743988	0.03760323226
1	10261	94.276831976248	0.005706127415
1	10263	94.282538103663	0.0090497909
1	10268	94.291587894563	0.007492390549
1	10273	94.299080285112	0.016357027627
1	10282	94.315437312739	0.020113651673
1	10287	94.335550964412	0.251334669529
1	10293	94.586885633941	0.043582464524
1	10299	94.630468098465	0.140719515133
1	10305	94.771187613598	0.051461308094
1	10310	94.822648921692	0.07928809604
1	10317	94.901937017732	0.003996437209
1	10319	94.905933454941	0.001956828672
1	10321	94.907890283613	0.038641746755
1	10332	94.946532030368	0.014258017318
1	10337	94.960790047686	0.02593792595
1	10342	94.986727973636	0.168709953319
1	10349	95.155437926955	0.057573198822
1	10356	95.213011125777	0.059911577769
1	10361	95.272922703546	0.004403271234
1	10363	95.27732597478	0.027316485746
1	10372	95.304642460526	0.033857185623
1	10377	95.338499646149	0.032214530153
1	10382	95.370714176302	0.002323633259
1	10384	95.373037809561	0.023694997822
1	10392	95.396732807383	0.045646607659
1	10398	95.442379415042	0.034698984746
1	10403	95.477078399788	0.056169845711
1	10408	95.533248245499	0.030073609701
1	10413	95.5633218552	0.023937647151
1	10419	95.587259502351	0.086053858286
1	10426	95.673313360637	0.035773607437
1	10431	95.709086968074	0.044207229361
1	10438	95.753294197435	0.126233644305
1	10443	95.87952784174	0.265044349674
1	10452	96.144572191414	0.032833195154
1	10457	96.177405386568	0.1523665575
1	10462	96.329771944068	0.008741203799
1	10467	96.338513147867	0.045273305606
1	10473	96.383786453473	0.047378039069
1	10478	96.431164492542	0.024061997362
1	10483	96.455226489904	0.253898645561
1	10488	96.709125135465	0.060956911911
1	10494	96.770082047376	0.182922070837
1	10501	96.953004118213	0.072388170395
1	10506	97.025392288608	0.0484077871
1	10511	97.073800075708	0.011653477717
1	10516	97.085453553425	0.007838091758
1	10522	97.093291645183	0.074788032255
1	10527	97.168079677438	0.028578394734
1	10532	97.196658072172	0.063027362798
1	10537	97.25968543497	0.078438331478
1	10544	97.338123766448	0.003869568342
1	10546	97.34199333479	0.000886809618
1	10548	97.342880144408	0.056027872651
1	10559	97.398908017059	0.055488669368
1	10567	97.454396686427	0.032578487938
1	10573	97.486975174365	0.160946405662
1	10580	97.647921580027	0.215060093918
1	10585	97.862981673945	0.043316178259
1	10590	97.906297852204	0.023881941748
1	10595	97.930179793952	0.098172229434
1	10601	98.028352023386	0.01915923518
1	10606	98.047511258566	0.051375039319
1	10611	98.098886297885	0.08597443142
1	10616	98.184860729305	0.040064874747
1	10621	98.224925604052	0.044097587213
1	10626	98.269023191265	0.007390036715
1	10628	98.27641322798	0.092975462323
1	10636	98.369388690303	0.138945718522
1	10641	98.508334408825	0.047488636688
1	10646	98.555823045513	0.17820176305
1	10653	98.734024808563	0.005594548621
1	10655	98.739619357184	0.02216907572
1	10663	98.761788432904	0.055205540398
1	10669	98.816993973302	0.019039285723
1	10675	98.836033259025	0.038007200377
1	10681	98.874040459402	9.5164197e-05
1	10683	98.874135623599	0.118585182588
1	10692	98.992720806187	0.047533427818
1	10700	99.040254234005	0.001878246673
1	10702	99.042132480678	0.003567477842
1	10704	99.04569995852	0.004238692407
1	10709	99.049938650927	0.022245038014
1	10720	99.072183688941	0.079322278368
1	10727	99.151505967309	0.08908032867
1	10733	99.240586295979	0.013238179635
1	10738	99.253824475614	0.087669931669
1	10745	99.341494407283	0.016295366378
1	10750	99.357789773661	0.076887468062
1	10755	99.434677241723	0.008798740149
1	10760	99.443475981872	0.221747529738
1	10766	99.66522351161	0.055873990264
1	10771	99.721097501874	0.005451980454
1	10774	99.726549482328	0.012173777994
1	10782	99.738723260322	0.011976893254
1	10787	99.750700153576	0.034762306723
1	10792	99.785462460299	0.074135475619
1	10797	99.859597935918	0.10366403124
1	10803	99.963261967158	0.080346944013
1	10809	100.043608911171	0.156906861174
1	10816	100.200515772345	0.021589820547
1	10821	100.222105592892	0.006856526346
1	10823	100.228962119238	0.059909497342
1	10833	100.28887161658	0.021692399963
1	10839	100.310564016543	0.034973101337
1	10844	100.34553711788	0.120432289931
[...]
19	34468	315.319172159761	0.28356947795347
19	34496	315.602741637714	0.95787525754844
19	34571	316.560616895262	0.7245683207134
19	34659	317.285185215975	0.2434426187338
19	34694	317.528627834709	0.4578118856142
19	34736	317.986439720323	3.0417029973794
19	35060	321.028142717702	0.86400116493955
19	35131	321.892143882642	0.20816090971133
19	35152	322.100304792353	0.63460287006484
19	35239	322.734907662418	0.85334358188511
19	35326	323.588251244303	0.37487269819687
19	35355	323.9631239425	0.66985001017721
19	35484	324.632973952677	6.3829133635685
19	36331	331.015887316245	2.5529084897548
19	36639	333.568795806	0.22243911545689
19	36668	333.791234921457	5.6406300431837
19	37398	339.431864964641	0.48860339131476
19	37441	339.920468355956	2.0273031528326
19	37643	341.947771508789	1.8407972350963
19	37827	343.788568743885	0.15197823911159
19	37836	343.940546982997	0.34817241932532
19	37905	344.288719402322	0.38788771347198
19	37943	344.676607115794	1.4076426608598
19	38111	346.084249776654	0.17090373541518
19	38128	346.255153512069	1.8679884812646
19	38349	348.123141993334	1.7754619233613
19	38530	349.898603916695	1.9921695806012
19	38773	351.890773497296	1.2539654033213
19	38894	353.144738900617	2.4532028934458
19	39132	355.597941794063	2.8653819111396
19	39508	358.463323705203	1.115465293518
19	39627	359.578788998721	0.95093389198597
19	39728	360.529722890707	2.7190395847617
19	40008	363.248762475469	0.26612282112656
19	40042	363.514885296596	2.2831118785021
19	40313	365.797997175098	0.21407716229232
19	40342	366.01207433739	2.6014421384226
19	40650	368.613516475813	2.201362067404
19	40932	370.814878543217	0.80494427034433
19	41070	371.619822813561	4.4981966696116
19	41551	376.118019483173	0.85836241019059
19	41629	376.976381893364	2.8140527444402
19	41870	379.790434637804	0.52016576307685
19	41926	380.310600400881	0.94666289813494
19	42030	381.257263299016	0.035720254404256
19	42032	381.29298355342	0.68775379236942
19	42123	381.980737345789	3.7776326615396
19	42529	385.758370007329	0.54483660069086
19	42565	386.30320660802	0.97535873298869
19	42698	387.278565341009	0.093341225042249
19	42712	387.371906566051	2.7348446309931
19	43020	390.106751197044	0.15810030116397
19	43043	390.264851498208	1.6708295006572
19	43228	391.935680998865	1.5643323512945
19	43415	393.50001335016	0.28116479763177
19	43429	393.781178147792	1.9776691465143
19	43644	395.758847294306	2.7932536626589
19	43942	398.552100956965	2.1322584664261
20	1775	15.226539943901	4.1215660353955
20	2281	19.348105979296	0.62510802980741
20	2345	19.973214009103	0.49917582067629
20	2382	20.472389829779	0.33540060742592
20	2436	20.807790437205	0.44515688362682
20	2476	21.252947320832	0.58258362052813
20	2546	21.83553094136	3.6228020091058
20	2878	25.458332950466	4.0210604233559
20	3315	29.479393373822	0.53003563383814
20	3354	30.00942900766	0.77676956691604
20	3427	30.786198574576	2.20952882698
20	3624	32.995727401556	0.87857732035326
20	3747	33.874304721909	1.6163841444331
20	3925	35.490688866342	1.8466337663457
20	4124	37.337322632688	0.48063958149984
20	4192	37.817962214188	1.1042133825018
20	4285	38.92217559669	1.4289772472002
20	4429	40.35115284389	3.0197584311835
20	4759	43.370911275073	1.6897639126611
20	4909	45.060675187734	0.88923517109452
20	5007	45.949910358829	0.18486147830616
20	5031	46.134771837135	1.0716545016524
20	5130	47.206426338787	1.1741737745811
20	5249	48.380600113368	1.6470875936949
20	5446	50.027687707063	0.64503149522835
20	5511	50.672719202291	0.63599909678915
20	5574	51.30871829908	0.22380128346346
20	5596	51.532519582543	1.4978984847879
20	5753	53.030418067331	1.2514723369995
20	5896	54.281890404331	0.64568777798548
20	5967	54.927578182316	2.0799557031532
20	6191	57.007533885469	1.7343955484733
20	6397	58.741929433942	9.0812291253093
20	7345	67.823158559251	0.29969515839392
20	7363	68.122853717645	1.8352354167904
20	7550	69.958089134435	5.0807626783033
20	8153	75.038851812738	1.7059161049809
20	8325	76.744767917719	4.5171022124338
20	8816	81.261870130153	0.35481011507102
20	8855	81.616680245224	3.4737797963872
20	9267	85.090460041611	2.6700713006355
20	9583	87.760531342247	0.39794341932732
20	9639	88.158474761574	0.48968551698847
20	9675	88.648160278562	0.7934471540151
20	9746	89.441607432577	4.6584763360305
20	10235	94.100083768607	2.0056730309387
20	10451	96.105756799546	1.8412112458819
20	10600	97.946968045428	0.73429532466071
20	10652	98.681263370089	0.3387735627658
20	10699	99.020036932855	2.0095400526358
20	10920	101.029576985491	1.4615591707989
20	11051	102.49113615629	2.9858590075448
20	11394	105.476995163835	1.4981250379695
20	11527	106.975120201805	0.57867886329133
20	11615	107.553799065096	0.14727414670043
20	11623	107.701073211796	0.46879202018139
20	11681	108.169865231977	0.7820741395607
20	11765	108.951939371538	0.93584024892149
20	11892	109.887779620459	0.33762972702508
20	11955	110.225409347484	0.15644432843475
20	11967	110.381853675919	1.4109083535537
20	12087	111.792762029473	0.47507636258731
20	12138	112.26783839206	1.7537889855402
20	12340	114.0216273776	0.72698132933276
20	12416	114.748608706933	1.1797205022837
20	12568	115.928329209217	5.2518067082228
20	13184	121.18013591744	1.5416791631221
20	13340	122.721815080562	1.4696016542737
20	13477	124.191416734836	1.3768422579062
20	13606	125.568258992742	2.6989152443091
20	13876	128.267174237051	0.89102074962163
20	13966	129.158194986673	2.7737827882888
20	14223	131.931977774962	3.4832957064835
20	14591	135.415273481445	0.27053616561901
20	14638	135.685809647064	1.948657870433
20	14844	137.634467517497	3.2547863787964
20	15235	140.889253896293	0.14301045217315
20	15257	141.032264348466	0.73234762624266
20	15366	141.764611974709	0.18560745448815
20	15382	141.950219429197	4.8531549763478
20	15929	146.803374405545	1.588822370146
20	16084	148.392196775691	0.12049210736268
20	16097	148.512688883054	0.60104857285739
20	16183	149.113737455911	0.61450947201468
20	16306	149.728246927926	0.91259286518705
20	16411	150.640839793113	6.2753253195927
20	17029	156.916165112706	1.8217451252364
20	17243	158.737910237942	0.051128379072886
20	17256	158.789038617015	2.6224565928614
20	17506	161.411495209876	1.0332110700208
20	17624	162.444706279897	0.16265362124991
20	17641	162.607359901147	6.3688006231321
20	18378	168.976160524279	0.92414955650237
20	18495	169.900310080781	0.18790695047173
20	18532	170.088217031253	4.0839007255176
20	19028	174.172117756771	2.743005993215
20	19348	176.915123749986	5.7846515820024
20	19954	182.699775331988	0.002432122557766
20	19955	182.702207454546	0.1862336462997
20	20007	182.888441100846	3.3620107516744
20	20307	186.25045185252	5.4650419310845
20	20911	191.715493783605	1.8648787180375
20	21094	193.580372501642	1.8269851560698
20	21272	195.407357657712	3.702617330923
20	21631	199.109974988635	0.37798370127539
20	21690	199.48795868991	3.9113729959136
20	22065	203.399331685824	1.7832342282122
20	22252	205.182565914036	6.1956348331961
20	22938	211.378200747232	0.62260630008856
20	22997	212.000807047321	0.64588252821703
20	23033	212.646689575538	1.2458260711525
20	23215	213.892515646691	1.8139003506352
20	23402	215.706415997326	4.4103017383688
20	23887	220.116717735695	1.1032721577691
20	23989	221.219989893464	1.9989047571941
20	24212	223.218894650658	0.11450178084325
20	24218	223.333396431501	0.33021537977938
20	24241	223.66361181128	3.4684270212458
20	24661	227.132038832526	0.70054552067989
20	24738	227.832584353206	1.4551253168612
20	24920	229.287709670067	4.1541720349902
20	25397	233.441881705057	2.8722325366503
20	25712	236.314114241707	1.4552478354591
20	25867	237.769362077166	4.0100655001755
20	26304	241.779427577342	0.67789783813158
20	26409	242.457325415474	0.29747467858995
20	26436	242.754800094064	0.34969894965216
20	26478	243.104499043716	1.3725818564461
20	26668	244.477080900162	0.8868256601511
20	26791	245.363906560313	0.39329088853654
20	26822	245.75719744885	0.39431842055081
20	26869	246.151515869401	1.3065799309646
20	27020	247.458095800366	1.3667722565261
20	27171	248.824868056892	1.8369530994923
20	27396	250.661821156384	0.51979875195167
20	27447	251.181619908336	0.38718341937758
20	27502	251.568803327714	0.11356378632854
20	27518	251.682367114043	0.14351079614551
20	27543	251.825877910189	1.4732954719509
20	27736	253.29917338214	3.1134184319278
20	28129	256.412591814068	0.78061774113825
20	28226	257.193209555206	0.98362682324672
20	28350	258.176836378453	0.1119551204623
20	28358	258.288791498915	3.8368955007257
20	28725	262.125686999641	1.1923883988766
20	28876	263.318075398518	1.1759637803869
20	28980	264.494039178905	2.3388875027494
20	29206	266.832926681654	1.5655387284032
20	29350	268.398465410057	3.8013562077586
20	29720	272.199821617816	2.4576973354716
20	30023	274.657518953288	1.3757213909552
20	30145	276.033240344243	0.71598562112638
20	30224	276.749225965369	1.7212469601356
20	30360	278.470472925505	7.4188229476706
20	31281	285.889295873176	0.094924932529695
20	31284	285.984220805706	3.4052982404078
20	31616	289.389519046114	2.7695277261195
20	31977	292.159046772234	3.0674005380731
20	32299	295.226447310307	0.74524956669624
20	32370	295.971696877003	0.55402867973077
20	32420	296.525725556734	3.1115366831577
20	32760	299.637262239892	1.0466597413492
20	32865	300.683921981241	1.0856525870464
20	32947	301.769574568287	0.54530600815072
20	33016	302.314880576438	1.4399295813362
20	33177	303.754810157774	3.9507442868779
20	33579	307.705554444652	1.3824937119146
20	33750	309.088048156567	2.1415985510822
20	33965	311.229646707649	0.86705595090135
20	34079	312.09670265855	1.1930118535068
20	34234	313.289714512057	4.0568713390036
20	34660	317.346585851061	2.0860213412978
20	34869	319.432607192359	0.15055577871461
20	34881	319.583162971074	1.141542540478
20	35029	320.724705511552	5.5315225840833
20	35684	326.256228095635	2.1935824959539
20	36005	328.449810591589	5.9488630636557
20	36809	334.398673655245	0.93225546361825
20	36921	335.330929118863	7.058691873189
20	37680	342.389620992052	0.71590598554287
20	37753	343.105526977595	0.5604342085451
20	37814	343.66596118614	0.15560408499063
20	37828	343.821565271131	0.99791517843373
20	37952	344.819480449565	0.44486033583817
20	38010	345.264340785403	0.86502178464985
20	38117	346.129362570053	1.1709935048307
20	38243	347.300356074884	1.9510238633917
20	38469	349.251379938276	3.9082749364304
20	38902	353.159654874706	1.2112967653895
20	39022	354.370951640096	1.1975206333359
20	39131	355.568472273432	3.4923132646578
20	39568	359.06078553809	2.1323957479807
20	39801	361.193181286071	1.1349061162016
20	39896	362.328087402273	0.87253485789786
20	40007	363.200622260171	1.5122505194987
20	40159	364.71287277967	3.523878014023
20	40613	368.236750793693	1.4574690134975
20	40802	369.694219807191	5.6350008354151
20	41452	375.329220642606	0.063726942481685
20	41459	375.392947585088	0.81373582825793
20	41567	376.206683413346	4.414821357345
20	41948	380.621504770691	0.4612861975169
20	41992	381.082790968208	0.61436509538162
20	42063	381.69715606359	0.01211735557838
20	42064	381.709273419168	0.080786523817847
20	42088	381.790059942986	2.2965185695262
20	42367	384.086578512512	0.091389264605936
20	42368	384.177967777118	2.8190065321754
20	42657	386.996974309293	0.93777095234914
20	42747	387.934745261642	3.7815277482213
20	43209	391.716273009863	0.095382474392017
20	43210	391.811655484255	0.16845800762935
20	43234	391.980113491884	0.66221524114833
20	43329	392.642328733032	2.0500401203974
20	43520	394.692368853429	0.94803797042643
20	43633	395.640406823855	2.5803682987817
20	43895	398.220775122637	0.65566856541513
20	43969	398.876443688052	1.7509272584978
21	2204	18.690433781847	0.11146649995053
21	2212	18.801900281798	1.3830076337731
21	2356	20.184907915571	3.1929889004511
21	2698	23.377896816022	1.6690725976877
21	2859	25.04696941371	0.015540924407109
21	2860	25.062510338117	1.8167691449683
21	3035	26.879279483085	0.44881499570266
21	3090	27.328094478788	0.12548166533627
21	3126	27.453576144124	2.9106257286591
21	3370	30.364201872783	1.2079108102677
21	3482	31.572112683051	1.0115217465994
21	3573	32.58363442965	0.81526305114059
21	3686	33.398897480791	1.8222857268084
21	3889	35.221183207599	3.4777213262382
21	4261	38.698904533837	3.6475254956597
21	4669	42.346430029497	0.22830493439465
21	4697	42.574734963892	3.5440842418287
21	5030	46.118819205721	2.4376707453529
21	5266	48.556489951074	4.0129081815702
21	5713	52.569398132644	0.45092094352495
21	5752	53.020319076169	0.29369825608997
21	5790	53.314017332259	0.54773687456646
21	5876	53.861754206825	3.3114805686582
21	6208	57.173234775483	3.9351159259728
21	6610	61.108350701456	4.8708132583516
21	7152	65.979163959808	0.26719736535674
21	7195	66.246361325165	5.0754529494465
21	7703	71.321814274612	0.066917790017418
21	7705	71.388732064629	2.8451481098332
21	8063	74.233880174462	0.84967943195818
21	8161	75.08355960642	1.031436190508
21	8283	76.114995796928	1.06255450103
21	8382	77.177550297958	2.4100002234088
21	8616	79.587550521367	0.38661252494739
21	8679	79.974163046314	2.0081411180651
21	8903	81.982304164379	2.1921007069258
21	9159	84.174404871305	2.8757535121919
21	9506	87.050158383497	2.1407830211749
21	9715	89.190941404672	0.61346725536352
21	9768	89.804408660036	1.198240136742
21	9911	91.002648796778	1.4643074237272
21	10078	92.466956220505	4.9595127418513
21	10565	97.426468962356	2.8489618772583
21	10832	100.275430839614	3.7412753220188
21	11255	104.016706161633	6.3070220577968
21	11961	110.32372821943	3.4068470699263
21	12309	113.730575289356	1.1907267920186
21	12427	114.921302081375	6.990255258448
21	13235	121.911557339823	0.30016624442031
21	13269	122.211723584243	1.5452262766371
21	13438	123.75694986088	2.0621446014313
21	13634	125.819094462311	0.45393614265836
21	13689	126.273030604969	2.117615076314
21	13892	128.390645681283	2.637525822536
21	14145	131.028171503819	5.2802682705702
21	14707	136.308439774389	6.0053413466772
21	15407	142.313781121066	0.076913274733734
21	15418	142.3906943958	1.5907247013571
21	15612	143.981419097157	0.21688170131367
21	15627	144.198300798471	7.8338706406503
21	16597	152.032171439121	3.0380873483598
21	16852	155.070258787481	1.3109323528227
21	16967	156.381191140304	0.43228756954079
21	17001	156.813478709845	5.1118168571261
21	17572	161.925295566971	1.001525458469
21	17661	162.92682102544	2.5483249017893
21	17937	165.475145927229	0.96730392619613
21	18068	166.442449853425	0.23309462035027
21	18091	166.675544473775	2.6410082514994
21	18426	169.316552725274	0.69357615041215
21	18518	170.010128875686	0.031127737983644
21	18519	170.04125661367	0.20641776195847
21	18558	170.247674375628	1.0852192527172
21	18704	171.332893628345	0.10509621888053
21	18711	171.437989847226	0.95417426959109
21	18839	172.392164116817	0.51176601333491
21	18902	172.903930130152	2.1733855433557
21	19115	175.077315673508	5.3534284616041
21	19677	180.430744135112	0.43674103927294
21	19720	180.867485174385	11.620138600748
21	21012	192.487623775133	1.1012489501375
21	21095	193.588872725271	4.3643209002552
21	21524	197.953193625526	0.76899245140668
21	21605	198.722186076933	0.34363617155786
21	21625	199.065822248491	0.28818881221365
21	21669	199.354011060705	1.1273183189947
21	21755	200.4813293797	0.78511972283579
21	21827	201.266449102536	3.6373755384844
21	22221	204.90382464102	0.16900869776301
21	22244	205.072833338783	1.5842349890287
21	22448	206.657068327812	3.7235926218056
21	22842	210.380660949618	0.7230019776291
21	22904	211.103662927247	0.44768370775692
21	22949	211.551346635004	3.5494706722293
21	23341	215.100817307233	3.2726895231217
21	23677	218.373506830355	1.824014696772
21	23896	220.197521527127	1.263965569077
21	23997	221.461487096204	0.34543230712455
21	24024	221.806919403329	0.37829083204751
21	24082	222.185210235377	0.54878284721404
21	24138	222.733993082591	9.0462105624993
21	25224	231.78020364509	0.4698207255553
21	25259	232.250024370645	6.0165888788131
21	25909	238.266613249458	2.3006633049442
21	26162	240.567276554402	0.41858013152186
21	26208	240.985856685924	1.2358967811946
21	26366	242.221753467119	1.0925152513887
21	26506	243.314268718508	0.64891743233877
21	26604	243.963186150847	0.3352352982032
21	26639	244.29842144905	3.5053877982022
21	27053	247.803809247252	1.153608664625
21	27188	248.957417911877	1.3990364296025
21	27368	250.35645434148	1.194069107969
21	27501	251.550523449449	0.19203661071108
21	27526	251.74256006016	2.9489312812285
21	27891	254.691491341388	0.95845187962528
21	28013	255.649943221013	1.6543649081766
21	28236	257.30430812919	1.4855441011498
21	28392	258.78985223034	3.3397599681102
21	28726	262.12961219845	0.33597039353817
21	28761	262.465582591988	1.8032499735057
21	28943	264.268832565494	1.0056308258172
21	29038	265.274463391311	1.3468856498639
21	29183	266.621349041175	2.0858691950792
21	29375	268.707218236254	0.76944103397015
21	29449	269.476659270224	1.6022957216726
21	29635	271.078954991897	0.0036669390246078
21	29636	271.082621930922	1.0609959802058
21	29718	272.143617911128	0.32967114797041
21	29754	272.473289059098	0.49735124744085
21	29822	272.970640306539	1.2768466313286
21	29970	274.247486937868	1.0672545863613
21	30080	275.314741524229	0.92419353044487
21	30157	276.238935054674	0.61742732620029
21	30226	276.856362380874	1.0819288682336
21	30308	277.938291249108	0.43518753035667
21	30346	278.373478779465	2.9190605958033
21	30688	281.292539375268	1.2567790584066
21	30849	282.549318433675	1.7963161954958
21	31085	284.345634629171	0.25174101901378
21	31137	284.597375648185	2.2925444051892
21	31420	286.889920053374	2.5664534617175
21	31628	289.456373515091	3.5885249747027
21	32065	293.044898489794	2.717627933757
21	32344	295.762526423551	0.45742682757001
21	32389	296.219953251121	1.3993227660551
21	32533	297.619276017176	0.12248648508148
21	32539	297.741762502257	6.4155994552259
21	33217	304.157361957483	2.1559626502105
21	33460	306.313324607694	0.12123869029165
21	33461	306.434563297986	0.69538495977593
21	33517	307.129948257762	0.093575265802087
21	33536	307.223523523564	0.15718833531605
21	33539	307.38071185888	3.6852081841803
21	33942	311.06592004306	1.8295768739607
21	34187	312.895496917021	1.743745852065
21	34403	314.639242769086	0.74403777587053
21	34475	315.383280544957	2.3810336642591
21	34725	317.764314209216	2.8792591013485
21	35016	320.643573310565	1.2823425568062
21	35145	321.925915867371	0.25487785699459
21	35163	322.180793724366	3.1142002214488
21	35567	325.294993945815	2.0772351349033
21	35834	327.372229080718	4.6545507699282
21	36459	332.026779850646	5.6603206429998
21	37194	337.687100493646	3.6110577045048
21	37571	341.298158198151	1.8563455005995
21	37754	343.15450369875	0.35197310405406
21	37802	343.506476802804	0.2421735682909
21	37821	343.748650371095	1.1799022159941
21	37965	344.928552587089	2.463356674886
21	38254	347.391909261975	1.0663652725536
21	38373	348.458274534529	0.27950314209225
21	38429	348.737777676621	0.25573507864762
21	38451	348.993512755269	4.0399449210889
21	38873	353.033457676358	3.005917664018
21	39176	356.039375340376	0.065652390759153
21	39196	356.105027731135	0.86953293398079
21	39330	356.974560665116	2.4256283169148
21	39606	359.400188982031	2.3178247212243
21	39828	361.718013703255	1.157321889526
21	39959	362.875335592781	0.43115475046913
21	40014	363.30649034325	3.217412389309
21	40378	366.523902732559	2.1070248510987
21	40651	368.630927583658	0.31725801690311
21	40685	368.948185600561	5.3275001775218
21	41299	374.275685778083	0.39227454976235
21	41344	374.667960327845	0.4069099914435
21	41414	375.074870319288	4.0957902988385
21	41830	379.170660618127	0.0032636296247796
21	41831	379.173924247752	1.3988972059957
21	41942	380.572821453748	5.1506297674728
21	42518	385.723451221221	0.31595689808519
21	42557	386.039408119306	0.21569841239376
21	42564	386.2551065317	0.80660318010976
21	42666	387.06170971181	0.41253354638808
21	42728	387.474243258198	4.3911821841368
21	43212	391.865425442335	1.8201186943921
21	43427	393.685544136727	3.69189048308
21	43836	397.377434619807	1.9969687507615
21	44037	399.374403370568	1.5808497491086

