file 5648143 1614185350                                         
version 2
run Nonmonitoring-exponential-317-20210224-17:49:09-26847
attr configname Nonmonitoring-exponential
attr datetime 20210224-17:49:09
attr experiment Nonmonitoring-exponential
attr inifile aerocom.ini
attr iterationvars $0=15
attr iterationvarsf 15-
attr measurement $0=15
attr network Aerocom
attr processid 26847
attr repetition 17
attr replication #17
attr resultdir results
attr runnumber 317
attr seedset 17
param **.t 2s
param **.k 15ms
param **.X 0.05s
param **.m 1s
param **.tDistribution "\"exponential\""
param **.operationMode 1
param **.s "70 byte"
param **.dimPoolMax 10000
param **.dimPoolMin 8000
param **.nDL 16
param **.nA 1
param **.DLMaxCapacity 0
param **.trasmitting false

vector 0 Aerocom.aircraft[0].packetGenerator arrivalTime:vector ETV
attr "" ""
attr source computeArrivalTime
vector 1 Aerocom.aircraft[0].linkSelector responseTime:vector ETV
attr "" ""
attr source computeResponseTime
vector 2 Aerocom.aircraft[0].linkSelector waitingTime:vector ETV
attr "" ""
attr source computeWaitingTime
vector 3 Aerocom.aircraft[0].linkSelector queueLength:vector ETV
attr "" ""
attr source computeQueueLength
vector 4 Aerocom.aircraft[0].dataLink[0] actualCapacity:vector ETV
attr "" ""
attr source computeActualCapacity
vector 5 Aerocom.aircraft[0].linkSelector serviceTime:vector ETV
attr "" ""
attr source computeServiceTime
vector 6 Aerocom.aircraft[0].dataLink[13] tDistribution:vector ETV
attr "" ""
attr source computeTDistribution
vector 7 Aerocom.aircraft[0].dataLink[7] tDistribution:vector ETV
attr "" ""
attr source computeTDistribution
vector 8 Aerocom.aircraft[0].dataLink[4] tDistribution:vector ETV
attr "" ""
attr source computeTDistribution
vector 9 Aerocom.aircraft[0].dataLink[9] tDistribution:vector ETV
attr "" ""
attr source computeTDistribution
vector 10 Aerocom.aircraft[0].dataLink[14] tDistribution:vector ETV
attr "" ""
attr source computeTDistribution
vector 11 Aerocom.aircraft[0].dataLink[10] tDistribution:vector ETV
attr "" ""
attr source computeTDistribution
vector 12 Aerocom.aircraft[0].dataLink[8] tDistribution:vector ETV
attr "" ""
attr source computeTDistribution
vector 13 Aerocom.aircraft[0].dataLink[11] tDistribution:vector ETV
attr "" ""
attr source computeTDistribution
vector 14 Aerocom.aircraft[0].dataLink[12] tDistribution:vector ETV
attr "" ""
attr source computeTDistribution
vector 15 Aerocom.aircraft[0].dataLink[5] tDistribution:vector ETV
attr "" ""
attr source computeTDistribution
vector 16 Aerocom.aircraft[0].dataLink[2] tDistribution:vector ETV
attr "" ""
attr source computeTDistribution
vector 17 Aerocom.aircraft[0].dataLink[6] tDistribution:vector ETV
attr "" ""
attr source computeTDistribution
vector 18 Aerocom.aircraft[0].dataLink[1] tDistribution:vector ETV
attr "" ""
attr source computeTDistribution
vector 19 Aerocom.aircraft[0].dataLink[15] tDistribution:vector ETV
attr "" ""
attr source computeTDistribution
vector 20 Aerocom.aircraft[0].dataLink[3] tDistribution:vector ETV
attr "" ""
attr source computeTDistribution
vector 21 Aerocom.aircraft[0].dataLink[0] tDistribution:vector ETV
attr "" ""
attr source computeTDistribution
0	3133 1025832 3446 135648 10.00040126621 399.996839459853 25802 1.57252e-07 0.150176520461 390.00826930139 11.817783296548
1	1028965 1025904 3450 135645 10.003774304609 399.996124514733 25801 0.007011217949 0.071680843512 313.24703495858 4.9601886287304
2	2054869 865960 3450 135645 10.003774304609 399.996124514733 25801 0 0.063614468771 111.9369398299 1.6231350956799
3	2920829 693497 3450 135645 10.003774304609 399.996124514733 25801 0 7 7594 15312
4	3614326 770900 3450 135645 10.003774304609 399.996124514733 25801 8001 9987 232149327 2094982395723
5	4385226 1128840 3450 135645 10.003774304609 399.996124514733 25801 0.007009111845399 0.0087489063867017 201.32148347558 1.5755474368906
6	5514066 8488 3471 135233 10.071800459896 398.760814834148 206 0.0019272717182484 13.822932188692 391.83339170944 1624.2849147746
7	5522554 8298 3487 134269 10.103224705857 395.944754502742 202 0.025340441993845 9.5575510642957 390.00102245298 1359.4756876431
8	5530852 8983 3491 135592 10.121387337542 399.796580171584 218 0.0030524627148021 13.083904131278 394.83258106998 1498.837641793
9	5539835 7812 3497 135400 10.137203598768 399.193152149235 190 0.029123549111745 12.822957303573 391.88107054296 1609.76552282
10	5547647 7815 3553 134998 10.322305868879 398.033395898192 186 0.0094468793398979 12.359025008084 389.95921628794 1621.2600841274
11	5555462 9141 3683 134659 10.755310305651 397.056330951577 217 0.00038232676286066 13.588892008711 390.39411225106 1298.064898685
12	5564603 7794 3781 135149 10.991751965906 398.438795172944 185 0.00077668755408329 11.945448493677 389.12991044028 1599.222433586
13	5572397 6618 3898 135007 11.315444544377 398.069212701259 157 0.0079928818044936 11.132990965168 391.97432162619 1832.5058970764
14	5579015 8104 3943 135115 11.485184210407 398.33156509671 192 0.016984600686832 13.284297110842 390.76959145722 1504.2993319546
15	5587119 9418 4077 135331 11.822365923223 399.034692927011 223 0.0049842499550531 8.7668524807602 390.19317175321 1246.5050420935
16	5596537 8220 4160 135504 12.068794543608 399.544707498773 195 0.0059076031854943 11.16779005104 389.12117403496 1427.6299778497
17	5604757 9149 4211 135498 12.198759643694 399.497589938815 216 0.0052655960887434 13.316470079198 394.79593810675 1458.3523278256
18	5613906 8024 4520 134850 13.174447795144 397.681658667698 190 0.0423578164638 14.869100130746 396.93248996068 1845.3512069781
19	5621930 8152 4751 135123 13.896523541756 398.382559743334 193 0.0013622576696154 9.6505678959916 389.43127253776 1485.897071277
20	5630082 8634 4763 133907 13.912369429391 394.7241747461 204 0.009747799242399 13.33038287231 389.14040332978 1663.364313444
21	5638716 9426 5105 135322 14.64833583821 399.01821425192 223 0.0043701178670738 8.7685259777544 391.08468057393 1321.7103389557

