file 5674622 1614185351                                         
version 2
run Nonmonitoring-exponential-344-20210224-17:49:11-26876
attr configname Nonmonitoring-exponential
attr datetime 20210224-17:49:11
attr experiment Nonmonitoring-exponential
attr inifile aerocom.ini
attr iterationvars $0=15
attr iterationvarsf 15-
attr measurement $0=15
attr network Aerocom
attr processid 26876
attr repetition 44
attr replication #44
attr resultdir results
attr runnumber 344
attr seedset 44
param **.t 2s
param **.k 15ms
param **.X 0.05s
param **.m 1s
param **.tDistribution "\"exponential\""
param **.operationMode 1
param **.s "70 byte"
param **.dimPoolMax 10000
param **.dimPoolMin 8000
param **.nDL 16
param **.nA 1
param **.DLMaxCapacity 0
param **.trasmitting false

vector 0 Aerocom.aircraft[0].linkSelector responseTime:vector ETV
attr "" ""
attr source computeResponseTime
vector 1 Aerocom.aircraft[0].packetGenerator arrivalTime:vector ETV
attr "" ""
attr source computeArrivalTime
vector 2 Aerocom.aircraft[0].linkSelector waitingTime:vector ETV
attr "" ""
attr source computeWaitingTime
vector 3 Aerocom.aircraft[0].linkSelector queueLength:vector ETV
attr "" ""
attr source computeQueueLength
vector 4 Aerocom.aircraft[0].dataLink[10] actualCapacity:vector ETV
attr "" ""
attr source computeActualCapacity
vector 5 Aerocom.aircraft[0].linkSelector serviceTime:vector ETV
attr "" ""
attr source computeServiceTime
vector 6 Aerocom.aircraft[0].dataLink[8] tDistribution:vector ETV
attr "" ""
attr source computeTDistribution
vector 7 Aerocom.aircraft[0].dataLink[3] tDistribution:vector ETV
attr "" ""
attr source computeTDistribution
vector 8 Aerocom.aircraft[0].dataLink[1] tDistribution:vector ETV
attr "" ""
attr source computeTDistribution
vector 9 Aerocom.aircraft[0].dataLink[4] tDistribution:vector ETV
attr "" ""
attr source computeTDistribution
vector 10 Aerocom.aircraft[0].dataLink[14] tDistribution:vector ETV
attr "" ""
attr source computeTDistribution
vector 11 Aerocom.aircraft[0].dataLink[0] tDistribution:vector ETV
attr "" ""
attr source computeTDistribution
vector 12 Aerocom.aircraft[0].dataLink[10] tDistribution:vector ETV
attr "" ""
attr source computeTDistribution
vector 13 Aerocom.aircraft[0].dataLink[11] tDistribution:vector ETV
attr "" ""
attr source computeTDistribution
vector 14 Aerocom.aircraft[0].dataLink[12] tDistribution:vector ETV
attr "" ""
attr source computeTDistribution
vector 15 Aerocom.aircraft[0].dataLink[6] tDistribution:vector ETV
attr "" ""
attr source computeTDistribution
vector 16 Aerocom.aircraft[0].dataLink[9] tDistribution:vector ETV
attr "" ""
attr source computeTDistribution
vector 17 Aerocom.aircraft[0].dataLink[15] tDistribution:vector ETV
attr "" ""
attr source computeTDistribution
vector 18 Aerocom.aircraft[0].dataLink[5] tDistribution:vector ETV
attr "" ""
attr source computeTDistribution
vector 19 Aerocom.aircraft[0].dataLink[2] tDistribution:vector ETV
attr "" ""
attr source computeTDistribution
vector 20 Aerocom.aircraft[0].dataLink[13] tDistribution:vector ETV
attr "" ""
attr source computeTDistribution
vector 21 Aerocom.aircraft[0].dataLink[7] tDistribution:vector ETV
attr "" ""
attr source computeTDistribution
0	3134 1031536 3366 136188 10.001180669251 399.998572342303 25937 0.00700140028 0.063977444216 313.54385868817 4.8430086617369
1	1034670 1031202 3369 136186 10.008529623487 399.996524685696 25937 1.221038e-06 0.172513596879 389.99734706625 11.759601585271
2	2065872 870280 3370 136188 10.008529623487 399.998572342303 25937 0 0.056348016423 110.32776195991 1.5018310476591
3	2936152 697131 3370 136188 10.008529623487 399.998572342303 25937 0 7 7301 13551
4	3633283 774942 3370 136188 10.008529623487 399.998572342303 25937 8019 9998 232440681 2089465716715
5	4408225 1134583 3370 136188 10.008529623487 399.998572342303 25937 0.007001400280056 0.0087292679885272 203.21678091814 1.5971023461486
6	5542808 7924 3431 135290 10.194857542141 397.515383443471 192 0.021637129796992 13.047595454539 391.55310611264 1607.4070026657
7	5550732 8111 3435 134470 10.245506200945 395.056719924826 197 0.033252346247534 12.488207739614 389.80189915355 1454.5777357049
8	5558843 8591 3436 135588 10.251886610188 398.330205810392 208 0.0028519213855821 15.782687287979 391.79417425717 1644.9025258048
9	5567434 7880 3612 135723 10.621313348015 398.697910550802 191 0.0073366923612586 12.881269118443 389.46565501685 1563.6877666379
10	5575314 8132 3759 136136 10.988116723967 399.798336348232 193 0.0034952401060634 13.068196423078 392.15468136192 1534.2436565643
11	5583446 7941 3829 133994 11.231425062468 393.688147119025 188 0.0034686329700166 12.942477341666 389.58125401612 1621.1996974936
12	5591387 9594 3835 135538 11.242845528278 398.163848079526 227 0.0018749920796491 9.1391563935513 390.99824899244 1281.4584989894
13	5600981 8776 3848 135989 11.271741946349 399.343643019389 208 0.018484542765645 12.131216208882 393.20185017082 1398.6384219212
14	5609757 7709 3870 134752 11.337784872752 396.082831929285 183 0.0059988613781224 11.959464813889 393.7956700931 1700.4292116969
15	5617466 7709 4128 135181 11.899013685442 397.194866848063 182 0.0078821443245547 9.2905039141813 390.41419560099 1657.0749639662
16	5625175 8765 4174 136158 11.994956952439 399.912479495663 208 0.022957974659429 8.6474439594497 390.53124764677 1305.1729868107
17	5633940 8545 4588 134796 13.396524824528 396.171711139152 202 0.016953074494708 10.820602256989 390.0964090267 1576.5062273023
18	5642485 7502 4814 135422 14.292579377908 397.8813979345 178 0.016768974838526 10.311400763864 386.32195033369 1599.3161211347
19	5649987 7851 5183 134973 15.42012067529 396.721889805431 186 0.021820396226594 10.633750605466 390.02068861086 1636.186633901
20	5657838 8962 5354 136137 16.021735288476 399.825635791652 212 0.016621745159497 11.382295495326 384.33692224488 1337.3979893324
21	5666800 7821 5369 135788 16.057746326125 398.93024346752 185 0.0008677258983025 12.02123668875 384.04790528431 1659.0090204254

