version 2
run Nonmonitoring-exponential-580-20210224-17:49:33-27097
attr configname Nonmonitoring-exponential
attr datetime 20210224-17:49:33
attr experiment Nonmonitoring-exponential
attr inifile aerocom.ini
attr iterationvars $0=50
attr iterationvarsf 50-
attr measurement $0=50
attr network Aerocom
attr processid 27097
attr repetition 80
attr replication #80
attr resultdir results
attr runnumber 580
attr seedset 80
param **.t 2s
param **.k 50ms
param **.X 0.05s
param **.m 1s
param **.tDistribution "\"exponential\""
param **.operationMode 1
param **.s "70 byte"
param **.dimPoolMax 10000
param **.dimPoolMin 8000
param **.nDL 16
param **.nA 1
param **.DLMaxCapacity 0
param **.trasmitting false

vector 0 Aerocom.aircraft[0].dataLink[14] tDistribution:vector ETV
attr "" ""
attr source computeTDistribution
vector 1 Aerocom.aircraft[0].packetGenerator arrivalTime:vector ETV
attr "" ""
attr source computeArrivalTime
vector 2 Aerocom.aircraft[0].linkSelector waitingTime:vector ETV
attr "" ""
attr source computeWaitingTime
vector 3 Aerocom.aircraft[0].linkSelector queueLength:vector ETV
attr "" ""
attr source computeQueueLength
vector 4 Aerocom.aircraft[0].dataLink[11] actualCapacity:vector ETV
attr "" ""
attr source computeActualCapacity
vector 5 Aerocom.aircraft[0].linkSelector serviceTime:vector ETV
attr "" ""
attr source computeServiceTime
vector 6 Aerocom.aircraft[0].linkSelector responseTime:vector ETV
attr "" ""
attr source computeResponseTime
vector 7 Aerocom.aircraft[0].dataLink[13] tDistribution:vector ETV
attr "" ""
attr source computeTDistribution
vector 8 Aerocom.aircraft[0].dataLink[9] tDistribution:vector ETV
attr "" ""
attr source computeTDistribution
vector 9 Aerocom.aircraft[0].dataLink[2] tDistribution:vector ETV
attr "" ""
attr source computeTDistribution
vector 10 Aerocom.aircraft[0].dataLink[6] tDistribution:vector ETV
attr "" ""
attr source computeTDistribution
vector 11 Aerocom.aircraft[0].dataLink[11] tDistribution:vector ETV
attr "" ""
attr source computeTDistribution
vector 12 Aerocom.aircraft[0].dataLink[7] tDistribution:vector ETV
attr "" ""
attr source computeTDistribution
vector 13 Aerocom.aircraft[0].dataLink[4] tDistribution:vector ETV
attr "" ""
attr source computeTDistribution
vector 14 Aerocom.aircraft[0].dataLink[8] tDistribution:vector ETV
attr "" ""
attr source computeTDistribution
vector 15 Aerocom.aircraft[0].dataLink[0] tDistribution:vector ETV
attr "" ""
attr source computeTDistribution
vector 16 Aerocom.aircraft[0].dataLink[1] tDistribution:vector ETV
attr "" ""
attr source computeTDistribution
vector 17 Aerocom.aircraft[0].dataLink[12] tDistribution:vector ETV
attr "" ""
attr source computeTDistribution
vector 18 Aerocom.aircraft[0].dataLink[10] tDistribution:vector ETV
attr "" ""
attr source computeTDistribution
vector 19 Aerocom.aircraft[0].dataLink[5] tDistribution:vector ETV
attr "" ""
attr source computeTDistribution
vector 20 Aerocom.aircraft[0].dataLink[15] tDistribution:vector ETV
attr "" ""
attr source computeTDistribution
vector 21 Aerocom.aircraft[0].dataLink[3] tDistribution:vector ETV
attr "" ""
attr source computeTDistribution
0	973	10.016140711004	2.3073364396252
0	1221	12.323477150629	2.8293100298606
0	1529	15.15278718049	4.2386993898405
0	2013	19.39148657033	2.0175387271815
0	2271	21.409025297511	0.74611465827578
0	2356	22.155139955787	0.52192854741785
0	2397	22.677068503205	0.18217091340091
0	2409	22.859239416606	2.0397195925156
0	2621	24.898959009122	0.91020554612792
0	2731	25.80916455525	0.54942874903075
0	2790	26.358593304281	6.1352191462594
0	3445	32.49381245054	0.31806540813287
0	3488	32.811877858673	4.5234212478427
0	4020	37.335299106516	5.3476747255963
0	4572	42.682973832112	0.92435899393113
0	4645	43.607332826043	1.027723592826
0	4756	44.635056418869	5.6268133291674
0	5386	50.261869748036	0.28634629423692
0	5414	50.548216042273	1.8620270286822
0	5581	52.410243070955	0.65364731586439
0	5667	53.063890386819	1.2874410640392
0	5848	54.351331450858	2.4853342717342
0	6122	56.836665722592	3.6956694682512
0	6536	60.532335190843	1.0414954643586
0	6655	61.573830655202	4.8892219211968
0	7198	66.463052576399	0.19396559152859
0	7220	66.657018167928	0.99180322666178
0	7338	67.64882139459	1.4165017616397
0	7475	69.06532315623	0.8862986788894
0	7569	69.951621835119	3.0960629572529
0	7914	73.047684792372	6.3234153420651
0	8545	79.371100134437	0.24921188396933
0	8561	79.620312018406	0.81023575339699
0	8628	80.430547771803	0.62113790523211
0	8687	81.051685677035	1.296408066823
0	8819	82.348093743858	0.80302771577738
0	8904	83.151121459635	1.2303883154258
0	9041	84.381509775061	0.26567436039111
0	9050	84.647184135452	3.8168796343633
0	9471	88.464063769815	0.761497925454
0	9576	89.225561695269	5.549344802543
0	10087	94.774906497812	0.075086473041925
0	10091	94.849992970854	1.2940654984064
0	10211	96.14405846926	2.1153078555908
0	10459	98.259366324851	0.34202357622053
0	10476	98.601389901072	5.6691582315881
0	11080	104.27054813266	0.52043786378986
0	11131	104.79098599645	0.19758741092443
0	11169	104.988573407374	6.4248588988879
0	11937	111.413432306262	2.8067448232112
0	12241	114.220177129473	1.5940535379143
0	12427	115.814230667387	2.7861167030554
0	12731	118.600347370442	0.28752366753097
0	12772	118.887871037973	1.4109065668439
0	12902	120.298777604817	0.18885962610216
0	12922	120.487637230919	2.8540652879096
0	13260	123.341702518829	0.095262196469747
0	13266	123.436964715299	0.0084795486156959
0	13267	123.445444263915	1.350535629916
0	13387	124.795979893831	0.553341542166
0	13465	125.349321435997	2.9923851706543
0	13781	128.341706606651	1.7195054216805
0	13958	130.061212028331	1.8952120941008
0	14198	131.956424122432	0.95325516383648
0	14303	132.909679286268	0.34977761046729
0	14341	133.259456896735	0.60852376014037
0	14404	133.867980656875	0.079954724293903
0	14421	133.947935381169	1.1230486620086
0	14535	135.070984043178	4.7779576789583
0	15116	139.848941722136	5.2363189633078
0	15655	145.085260685444	1.1307717733288
0	15776	146.216032458773	0.51433339023616
0	15831	146.730365849009	0.51557604520932
0	15902	147.245941894218	2.7199995594528
0	16251	149.965941453671	4.9357601440415
0	16699	154.901701597712	1.7421561387262
0	16914	156.643857736438	1.3783357683306
0	17046	158.022193504769	1.0794111005231
0	17137	159.101604605292	0.62961070643031
0	17201	159.731215311722	4.679932158351
0	17714	164.411147470073	4.5126948176604
0	18109	168.923842287733	1.5264319513404
0	18259	170.450274239073	3.8376745532308
0	18735	174.287948792304	0.0032940396232231
0	18736	174.291242831927	0.55127630165822
0	18811	174.842519133585	0.72113158277492
0	18884	175.56365071636	3.3737229577882
0	19160	178.937373674148	0.70162722639399
0	19193	179.639000900542	0.71987321441657
0	19268	180.358874114959	2.4642116134347
0	19620	182.823085728394	4.7531055699931
0	20102	187.576191298387	3.7209270236907
0	20540	191.297118322078	2.6262648420578
0	20800	193.923383164136	0.050747439223115
0	20801	193.974130603359	1.5110684595273
0	20967	195.485199062886	3.0546519309907
0	21246	198.539850993877	6.6886644705
0	21987	205.228515464377	2.4750065709132
0	22237	207.70352203529	15.997841277834
0	24031	223.701363313124	3.4722405052575
0	24409	227.173603818381	0.82468780157016
0	24494	227.998291619951	0.18821334227458
0	24512	228.186504962226	0.40755264987267
0	24559	228.594057612099	0.64789922712526
0	24659	229.241956839224	3.9993889303161
0	25104	233.24134576954	2.5107629048246
0	25382	235.752108674365	2.0679617339534
0	25592	237.820070408318	0.025475179967043
0	25596	237.845545588285	3.3399879569358
0	25994	241.185533545221	0.0032641370917413
0	25995	241.188797682313	3.197746966338
0	26301	244.386544648651	0.91929816093261
0	26411	245.305842809584	3.1623988608035
0	26761	248.468241670388	4.5536882894458
0	27249	253.021929959834	3.6437440459214
0	27699	256.665674005755	0.30706363861068
0	27732	256.972737644366	1.0066545456179
0	27808	257.979392189984	1.8950045291445
0	28029	259.874396719128	3.5816026380118
0	28366	263.45599935714	1.1064350592747
0	28488	264.562434416415	0.69290238028865
0	28557	265.255336796704	3.4701397486139
0	28967	268.725476545318	0.74761965035578
0	29049	269.473096195674	0.14930738066463
0	29066	269.622403576339	3.3404714221685
0	29495	272.962874998508	0.54001049239734
0	29554	273.502885490905	0.37901192937063
0	29598	273.881897420276	0.98680700212536
0	29661	274.868704422401	2.018982035267
0	29902	276.887686457668	2.4095251325538
0	30121	279.297211590222	0.50651738182819
0	30168	279.80372897205	0.75922452798156
0	30229	280.562953500032	2.9145487287015
0	30594	283.477502228734	3.7144405875507
0	31059	287.191942816285	0.34071827576882
0	31087	287.532661092054	0.2375378225023
0	31119	287.770198914556	2.2376399434058
0	31367	290.007838857962	0.66512097451746
0	31449	290.672959832479	3.9832877933675
0	31882	294.656247625847	3.7621498754679
0	32311	298.418397501315	5.7473721879599
0	32884	304.165769689275	0.1860371120044
0	32911	304.351806801279	4.1317839751003
0	33377	308.483590776379	1.3351885642465
0	33573	309.818779340626	0.10306099271937
0	33595	309.921840333345	3.2458063991837
0	33872	313.167646732529	0.39089735626684
0	33937	313.558544088796	0.97691283662427
0	34037	314.53545692542	0.57398196374083
0	34104	315.109438889161	1.2256250631005
0	34209	316.335063952261	2.213762985661
0	34482	318.548826937922	0.066952173649458
0	34499	318.615779111571	1.6802272175726
0	34631	320.296006329144	0.25819235109831
0	34654	320.554198680242	2.6589328705796
0	34920	323.213131550822	2.1153799072901
0	35139	325.328511458112	1.212908614006
0	35232	326.541420072118	2.1945533316538
0	35477	328.735973403772	1.0095786100962
0	35565	329.745552013868	5.5368550882927
0	36131	335.282407102161	2.3185454013748
0	36335	337.600952503536	2.2213165238397
0	36579	339.822269027376	1.6318655375647
0	36722	341.454134564941	0.9535808948098
0	36801	342.407715459751	0.12098469683366
0	36807	342.528700156585	0.37896493930083
0	36857	342.907665095886	0.99091550711082
0	36955	343.898580602997	1.059418772277
0	37079	344.957999375274	5.2640665705772
0	37671	350.222065945851	2.6650132287896
0	37952	352.887079174641	6.8786536868738
0	38767	359.765732861515	3.2094260315691
0	39072	362.975158893084	1.3934321879011
0	39217	364.368591080985	2.7072533133665
0	39484	367.075844394351	0.0097196549368964
0	39485	367.085564049288	0.22802616314049
0	39502	367.313590212428	0.87407034735769
0	39650	368.187660559786	1.8326127336139
0	39877	370.0202732934	1.4085999917838
0	40029	371.428873285184	2.1419578782121
0	40227	373.570831163396	2.0434047757314
0	40511	375.614235939127	2.2468870879469
0	40681	377.861123027074	0.23184482430667
0	40682	378.092967851381	0.22711422280229
0	40707	378.320082074183	0.28421405524727
0	40720	378.60429612943	1.3207689428565
0	40861	379.925065072287	3.6603029019395
0	41232	383.585367974227	2.5212188749516
0	41553	386.106586849179	0.19948347508982
0	41575	386.306070324269	3.6587319697065
0	41980	389.964802293976	4.736161259232
0	42426	394.700963553208	2.9694243436922
0	42707	397.6703878969	5.4374944184632
1	974	10.026431737336	0.0465782482
1	979	10.073009985536	0.052577269241
1	984	10.125587254777	0.007103676331
1	986	10.132690931108	0.110304208707
1	994	10.242995139815	0.002912603807
1	996	10.245907743622	0.048746385221
1	1004	10.294654128843	0.032296788701
1	1009	10.326950917544	0.11117208999
1	1014	10.438123007534	0.001194263734
1	1016	10.439317271268	0.052171238074
1	1024	10.491488509342	0.103459755085
1	1031	10.594948264427	0.125750738608
1	1039	10.720699003035	0.018839594404
1	1044	10.739538597439	0.070240581081
1	1049	10.80977917852	0.037960346779
1	1054	10.847739525299	0.008301944096
1	1059	10.856041469395	0.013570390754
1	1064	10.869611860149	0.091100035034
1	1073	10.960711895183	0.009601097257
1	1078	10.97031299244	0.032089027397
1	1083	11.002402019837	0.036220630148
1	1089	11.038622649985	0.030245272542
1	1094	11.068867922527	0.038466260595
1	1099	11.107334183122	0.037855513535
1	1104	11.145189696657	0.068299464573
1	1109	11.21348916123	0.09040680658
1	1115	11.30389596781	0.030715219928
1	1121	11.334611187738	0.067278343071
1	1127	11.401889530809	0.060459508492
1	1132	11.462349039301	0.036557943562
1	1137	11.498906982863	0.010179958849
1	1142	11.509086941712	0.080062068128
1	1147	11.58914900984	0.099880672728
1	1153	11.689029682568	0.014680543729
1	1159	11.703710226297	0.007406046505
1	1161	11.711116272802	0.10682847123
1	1171	11.817944744032	0.028620212149
1	1176	11.846564956181	0.129412741728
1	1182	11.975977697909	0.066881132221
1	1188	12.04285883013	0.020280021276
1	1193	12.063138851406	0.004101487668
1	1195	12.067240339074	0.033829524862
1	1203	12.101069863936	0.01013065001
1	1209	12.111200513946	0.004334110474
1	1212	12.11553462442	0.2717361796
1	1223	12.38727080402	0.031023737585
1	1228	12.418294541605	0.09862023304
1	1234	12.516914774645	0.026705472973
1	1239	12.543620247618	0.0415408973
1	1244	12.585161144918	0.008610468124
1	1249	12.593771613042	0.079910026803
1	1255	12.673681639845	0.003737189352
1	1257	12.677418829197	0.05046735808
1	1265	12.727886187277	0.192005963597
1	1270	12.919892150874	0.05250365127
1	1277	12.972395802144	0.082266468914
1	1282	13.054662271058	0.075826238668
1	1287	13.130488509726	0.012849016443
1	1292	13.143337526169	0.082497361082
1	1297	13.225834887251	0.077434271596
1	1302	13.303269158847	0.065362983103
1	1308	13.36863214195	0.012728964211
1	1313	13.381361106161	0.112261892324
1	1318	13.493622998485	0.008249590596
1	1323	13.501872589081	0.000587911734
1	1325	13.502460500815	0.016171995017
1	1333	13.518632495832	0.015475026264
1	1339	13.534107522096	0.000899395352
1	1341	13.535006917448	0.053709068422
1	1349	13.58871598587	0.000921618534
1	1351	13.589637604404	0.020023534355
1	1359	13.609661138759	0.052046784373
1	1364	13.661707923132	0.025879932846
1	1369	13.687587855978	0.059089832354
1	1374	13.746677688332	0.003591952899
1	1378	13.750269641231	0.012844530449
1	1386	13.76311417168	0.049182896791
1	1391	13.812297068471	0.011198522936
1	1397	13.823495591407	0.104532321294
1	1402	13.928027912701	0.069006843356
1	1407	13.997034756057	0.012673033625
1	1412	14.009707789682	0.019644571808
1	1417	14.02935236149	0.011540553199
1	1422	14.040892914689	0.061671741978
1	1427	14.102564656667	0.132290673271
1	1432	14.234855329938	0.044419867191
1	1439	14.279275197129	0.006945663359
1	1441	14.286220860488	0.122804766108
1	1449	14.409025626596	0.083711739363
1	1454	14.492737365959	0.095753199729
1	1461	14.588490565688	0.089666172894
1	1466	14.678156738582	0.028794656122
1	1471	14.706951394704	0.031072468906
1	1476	14.73802386361	0.054780921252
1	1482	14.792804784862	0.079847922641
1	1487	14.872652707503	0.001629209189
1	1489	14.874281916692	0.03698975462
1	1498	14.911271671312	0.00564334757
1	1500	14.916915018882	0.12559947158
1	1509	15.042514490462	0.040163083498
1	1514	15.08267757396	0.010195681177
1	1519	15.092873255137	0.027660077041
1	1524	15.120533332178	0.048991708191
1	1530	15.169525040369	0.017990646797
1	1535	15.187515687166	0.023300149715
1	1541	15.210815836881	0.034306010855
1	1546	15.245121847736	0.033585756736
1	1551	15.278707604472	0.005895867023
1	1553	15.284603471495	0.053981033358
1	1561	15.338584504853	0.019481826268
1	1566	15.358066331121	0.014016540034
1	1571	15.372082871155	0.028320445022
1	1577	15.400403316177	0.072836272707
1	1582	15.473239588884	0.008896179924
1	1587	15.482135768808	0.031497384693
1	1592	15.513633153501	0.01186452398
1	1597	15.525497677481	0.073922000135
1	1602	15.599419677616	0.016274503071
1	1607	15.615694180687	0.00631605305
1	1609	15.622010233737	0.026401115082
1	1617	15.648411348819	0.076382174296
1	1622	15.724793523115	0.018762831132
1	1627	15.743556354247	0.160232115367
1	1633	15.903788469614	0.001995910519
1	1635	15.905784380133	0.025377763535
1	1643	15.931162143668	0.119256758994
1	1650	16.050418902662	0.016150765588
1	1655	16.06656966825	0.006341462517
1	1657	16.072911130767	0.077380227033
1	1665	16.1502913578	0.032255690166
1	1670	16.182547047966	0.038294202499
1	1675	16.220841250465	0.048736797282
1	1681	16.269578047747	0.097213293779
1	1686	16.366791341526	0.081145367177
1	1691	16.447936708703	0.075382472098
1	1696	16.523319180801	0.024668598829
1	1701	16.54798777963	0.114911886654
1	1707	16.662899666284	0.039073736171
1	1712	16.701973402455	0.012540433877
1	1717	16.714513836332	0.072085282114
1	1722	16.786599118446	0.024320080331
1	1727	16.810919198777	0.006169391068
1	1729	16.817088589845	0.027826481005
1	1737	16.84491507085	0.013468285143
1	1742	16.858383355993	0.096938742677
1	1748	16.95532209867	0.002662984315
1	1750	16.957985082985	0.070071716988
1	1758	17.028056799973	0.00085855816
1	1760	17.028915358133	0.016232342549
1	1768	17.045147700682	0.303381956559
1	1774	17.348529657241	0.139228163816
1	1779	17.487757821057	0.014136412584
1	1784	17.501894233641	0.000580019111
1	1786	17.502474252752	0.011203172344
1	1791	17.513677425096	0.034411297391
1	1799	17.548088722487	0.0200088495
1	1804	17.568097571987	0.06138279391
1	1810	17.629480365897	0.062590936177
1	1815	17.692071302074	0.016162525555
1	1820	17.708233827629	0.078592841859
1	1825	17.786826669488	0.006152935244
1	1827	17.792979604732	0.009512650031
1	1833	17.802492254763	0.023246377748
1	1841	17.825738632511	0.017515968506
1	1846	17.843254601017	0.03668184803
1	1851	17.879936449047	0.036971609813
1	1856	17.91690805886	0.046390953215
1	1861	17.963299012075	0.040114389701
1	1866	18.003413401776	0.005062751233
1	1868	18.008476153009	0.080117354409
1	1876	18.088593507418	0.003927905921
1	1878	18.092521413339	0.063541293413
1	1887	18.156062706752	0.043643067905
1	1893	18.199705774657	0.069896279743
1	1900	18.2696020544	0.06876587406
1	1906	18.33836792846	0.040130646316
1	1911	18.378498574776	0.031908215142
1	1916	18.410406789918	0.05206741192
1	1921	18.462474201838	0.041710198212
1	1928	18.50418440005	0.008464058557
1	1933	18.512648458607	0.036522921132
1	1939	18.549171379739	0.010740200311
1	1944	18.55991158005	0.049360378159
1	1949	18.609271958209	0.001642476322
1	1951	18.610914434531	0.020269471969
1	1959	18.6311839065	0.0243418453
1	1964	18.6555257518	0.154605614286
1	1971	18.810131366086	0.052690810657
1	1976	18.862822176743	0.030639556812
1	1981	18.893461733555	0.018009274366
1	1986	18.911471007921	0.211936322041
1	1993	19.123407329962	0.160974079994
1	2003	19.284381409956	0.047766913738
1	2008	19.332148323694	0.061113973248
1	2014	19.393262296942	0.030158910988
1	2020	19.42342120793	0.025950202461
1	2025	19.449371410391	0.014623405346
1	2030	19.463994815737	0.001523981841
1	2032	19.465518797578	0.05483372923
1	2040	19.520352526808	0.011985349644
1	2045	19.532337876452	0.002655181495
1	2047	19.534993057947	0.0400790208
1	2055	19.575072078747	0.000883711464
1	2057	19.575955790211	0.073376658778
1	2065	19.649332448989	0.107376501373
1	2070	19.756708950362	0.084167280056
1	2075	19.840876230418	0.00130353716
1	2077	19.842179767578	0.024962369703
1	2085	19.867142137281	0.013250902606
1	2090	19.880393039887	0.023491201953
1	2095	19.90388424184	0.019036241373
1	2100	19.922920483213	0.122116638346
1	2105	20.045037121559	0.032416341082
1	2110	20.077453462641	0.011200995942
1	2115	20.088654458583	0.022444314365
1	2122	20.111098772948	0.001513113257
1	2124	20.112611886205	0.043008337749
1	2132	20.155620223954	0.00077303358
1	2134	20.156393257534	0.050555117383
1	2142	20.206948374917	0.139887658083
1	2148	20.346836033	0.082765488155
1	2155	20.429601521155	0.061712339395
1	2161	20.49131386055	0.008082835553
1	2166	20.499396696103	0.024231546158
1	2171	20.523628242261	0.135005710675
1	2177	20.658633952936	0.000454252619
1	2179	20.659088205555	0.061185464573
1	2187	20.720273670128	0.100778649707
1	2192	20.821052319835	0.008966105596
1	2197	20.830018425431	0.039449014838
1	2202	20.869467440269	0.037120221002
1	2207	20.906587661271	0.004021857922
1	2209	20.910609519193	0.059079372558
1	2218	20.969688891751	0.044889676853
1	2223	21.014578568604	0.006846155138
1	2225	21.021424723742	0.047313810287
1	2233	21.068738534029	0.09132427609
1	2239	21.160062810119	0.021501581347
1	2244	21.181564391466	0.006781411086
1	2246	21.188345802552	0.00795046144
1	2251	21.196296263992	0.035120108608
1	2259	21.2314163726	0.128953029478
1	2265	21.360369402078	0.051300786571
1	2272	21.411670188649	0.02358593186
1	2277	21.435256120509	0.019547985068
1	2282	21.454804105577	0.011694504107
1	2287	21.466498609684	0.082518485713
1	2292	21.549017095397	0.000402174559
1	2294	21.549419269956	0.023359867468
1	2302	21.572779137424	0.009277662748
1	2307	21.582056800172	0.052212000613
1	2312	21.634268800785	0.020530911118
1	2317	21.654799711903	0.072057361828
1	2323	21.726857073731	0.03219826957
1	2328	21.759055343301	0.165462550651
1	2334	21.924517893952	0.103650419518
1	2340	22.02816831347	0.004955312277
1	2342	22.033123625747	0.101690489815
1	2351	22.134814115562	0.043081720415
1	2357	22.177895835977	0.155216733011
1	2362	22.333112568988	0.025882058333
1	2367	22.358994627321	0.143883763892
1	2372	22.502878391213	0.033467899501
1	2377	22.536346290714	0.084093904112
1	2382	22.620440194826	0.004645567198
1	2384	22.625085762024	0.03409591641
1	2392	22.659181678434	0.157774544754
1	2399	22.816956223188	0.018222855528
1	2404	22.835179078716	0.177514901909
1	2414	23.012693980625	0.033274914679
1	2419	23.045968895304	0.050242622696
1	2424	23.096211518	0.023640355325
1	2429	23.119851873325	0.046755760913
1	2434	23.166607634238	0.081854788074
1	2439	23.248462422312	0.010489818262
1	2444	23.258952240574	0.011463969708
1	2449	23.270416210282	0.017301002886
1	2455	23.287717213168	0.025059725532
1	2461	23.3127769387	0.103443976054
1	2467	23.416220914754	0.013585435087
1	2472	23.429806349841	0.105867519761
1	2478	23.535673869602	0.044296136858
1	2483	23.57997000646	0.013356447719
1	2488	23.593326454179	0.082550850707
1	2494	23.675877304886	0.05923896688
1	2500	23.735116271766	0.019617430415
1	2505	23.754733702181	0.007540248565
1	2507	23.762273950746	0.062947234374
1	2515	23.82522118512	0.013971618733
1	2520	23.839192803853	0.270003563375
1	2527	24.109196367228	0.014117971994
1	2532	24.123314339222	0.008566485692
1	2537	24.131880824914	0.001322623565
1	2539	24.133203448479	0.009817058277
1	2544	24.143020506756	0.096251606008
1	2552	24.239272112764	0.03256683492
1	2557	24.271838947684	0.00918214788
1	2562	24.281021095564	0.021332834103
1	2567	24.302353929667	0.149314995404
1	2572	24.451668925071	0.05878686658
1	2578	24.510455791651	0.002006421034
1	2580	24.512462212685	0.029840602151
1	2588	24.542302814836	0.023942004341
1	2593	24.566244819177	0.122266910225
1	2600	24.688511729402	0.061537327362
1	2605	24.750049056764	0.014756356677
1	2610	24.764805413441	0.003447338553
1	2612	24.768252751994	0.175281289494
1	2622	24.943534041488	0.070323240289
1	2628	25.013857281777	0.002497991586
1	2630	25.016355273363	0.117060356196
1	2639	25.133415629559	0.013798028428
1	2644	25.147213657987	0.000690358861
1	2646	25.147904016848	0.084310812767
1	2654	25.232214829615	0.057969478402
1	2660	25.290184308017	0.008896483242
1	2665	25.299080791259	0.138359235531
1	2671	25.43744002679	0.058289359863
1	2677	25.495729386653	0.054808024243
1	2683	25.550537410896	0.002342957845
1	2685	25.552880368741	0.052613487892
1	2693	25.605493856633	0.031086026615
1	2698	25.636579883248	0.046716294906
1	2704	25.683296178154	0.031078936925
1	2709	25.714375115079	0.02624801738
1	2715	25.740623132459	0.003163873618
1	2717	25.743787006077	0.028957567099
1	2726	25.772744573176	0.072530321605
1	2732	25.845274894781	0.075412180124
1	2739	25.920687074905	0.048592597729
1	2744	25.969279672634	0.033750813865
1	2749	26.003030486499	0.012374400142
1	2754	26.015404886641	0.083053682038
1	2759	26.098458568679	0.080931516112
1	2765	26.179390084791	0.012394216647
1	2770	26.191784301438	0.066521634341
1	2777	26.258305935779	0.070695409234
1	2784	26.329001345013	0.205519166198
1	2791	26.534520511211	0.117209583585
1	2796	26.651730094796	0.017179285856
1	2801	26.668909380652	0.002618135325
1	2803	26.671527515977	0.034929942628
1	2811	26.706457458605	0.22057117874
1	2818	26.927028637345	0.027964146062
1	2823	26.954992783407	0.025116904371
1	2828	26.980109687778	0.058569111981
1	2833	27.038678799759	0.037858658849
1	2838	27.076537458608	0.002504436193
1	2840	27.079041894801	0.028013146677
1	2849	27.107055041478	0.018858651553
1	2855	27.125913693031	0.029337395222
1	2860	27.155251088253	0.042008199176
1	2865	27.197259287429	0.054119200785
1	2870	27.251378488214	0.004837048378
1	2872	27.256215536592	0.013256634354
1	2880	27.269472170946	0.155358419617
1	2885	27.424830590563	0.084356445414
1	2890	27.509187035977	0.039260116933
1	2895	27.54844715291	0.243968266453
1	2901	27.792415419363	0.027740263918
1	2906	27.820155683281	0.033276384202
1	2911	27.853432067483	0.053974505434
1	2917	27.907406572917	0.021916906789
1	2922	27.929323479706	0.018140622777
1	2927	27.947464102483	0.024111030346
1	2932	27.971575132829	0.072929628169
1	2937	28.044504760998	0.158712927231
1	2943	28.203217688229	0.05713594597
1	2948	28.260353634199	0.041037000893
1	2953	28.301390635092	0.159732730656
1	2959	28.461123365748	0.050275570112
1	2964	28.51139893586	0.106788273433
1	2969	28.618187209293	0.104860306299
1	2976	28.723047515592	0.049322677718
1	2981	28.77237019331	0.068312911802
1	2986	28.840683105112	0.053562213094
1	2991	28.894245318206	0.135174772117
1	2996	29.029420090323	0.006044234376
1	2998	29.035464324699	0.06238936298
1	3006	29.097853687679	0.038255888467
1	3011	29.136109576146	0.024005705264
1	3016	29.16011528141	0.008521814741
1	3019	29.168637096151	0.104935987933
1	3031	29.273573084084	0.005770382073
1	3033	29.279343466157	0.012517229898
1	3041	29.291860696055	0.005827349001
1	3043	29.297688045056	0.024414163347
1	3051	29.322102208403	0.008718448579
1	3056	29.330820656982	0.133942886952
1	3064	29.464763543934	0.000763594191
1	3066	29.465527138125	0.010941221406
1	3071	29.476468359531	0.071674976801
1	3079	29.548143336332	0.021394604911
1	3086	29.569537941243	0.110940577536
1	3093	29.680478518779	0.031971801497
1	3098	29.712450320276	0.00670292851
1	3100	29.719153248786	0.179605200165
1	3112	29.898758448951	0.026466734487
1	3118	29.925225183438	0.053395230306
1	3123	29.978620413744	0.019887999182
1	3128	29.998508412926	0.103076978123
1	3136	30.101585391049	0.018412415678
1	3141	30.119997806727	0.009890865541
1	3146	30.129888672268	0.000618706429
1	3148	30.130507378697	0.035502768821
1	3156	30.166010147518	0.021157449237
1	3162	30.187167596755	0.002179584937
1	3164	30.189347181692	0.026155040923
1	3173	30.215502222615	0.001701850301
1	3175	30.217204072916	0.007698602352
1	3180	30.224902675268	0.013194808074
1	3185	30.238097483342	0.044219748241
1	3194	30.282317231583	0.14930237173
1	3202	30.431619603313	0.069956836349
1	3207	30.501576439662	0.019970838327
1	3212	30.521547277989	0.013633936152
1	3217	30.535181214141	0.008170122557
1	3219	30.543351336698	0.009932451805
1	3227	30.553283788503	0.058725333026
1	3232	30.612009121529	0.031919911168
1	3237	30.643929032697	0.00494307529
1	3239	30.648872107987	0.008084115458
1	3244	30.656956223445	0.045627824335
1	3253	30.70258404778	0.00858396126
1	3256	30.71116800904	0.053057746539
1	3264	30.764225755579	0.095149952766
1	3269	30.859375708345	0.080799384862
1	3274	30.940175093207	0.0091914666
1	3279	30.949366559807	0.027716509816
1	3284	30.977083069623	0.153721450585
1	3292	31.130804520208	0.023496513657
1	3297	31.154301033865	0.116732860156
1	3304	31.271033894021	0.00857235059
1	3306	31.279606244611	0.000350537323
1	3311	31.279956781934	0.013820520195
1	3316	31.293777302129	0.056185838931
1	3324	31.34996314106	0.079350467682
1	3329	31.429313608742	0.092870858007
1	3335	31.522184466749	0.139506531657
1	3342	31.661690998406	0.012831477835
1	3347	31.674522476241	0.008911975337
1	3352	31.683434451578	0.001505495715
1	3354	31.684939947293	0.003008841303
1	3356	31.687948788596	0.012185832843
1	3361	31.700134621439	0.046956801166
1	3373	31.747091422605	0.074745807251
1	3378	31.821837229856	0.087752602497
1	3384	31.909589832353	0.010880076962
1	3389	31.920469909315	0.027350969839
1	3394	31.947820879154	0.098085994703
1	3399	32.045906873857	0.18808348746
1	3404	32.233990361317	0.028927311817
1	3410	32.262917673134	0.007927461524
1	3412	32.270845134658	0.112726529479
1	3420	32.383571664137	0.037850796505
1	3425	32.421422460642	0.013326599706
1	3430	32.434749060348	0.01582571041
1	3435	32.450574770758	0.015360413908
1	3440	32.465935184666	0.069935764899
1	3446	32.535870949565	0.007122079178
1	3448	32.542993028743	0.027351391326
1	3456	32.570344420069	0.014147427652
1	3461	32.584491847721	0.048124410238
1	3466	32.632616257959	0.002692153078
1	3468	32.635308411037	0.145826689934
1	3476	32.781135100971	0.012418199219
1	3481	32.79355330019	0.017470939696
1	3486	32.811024239886	0.032426471168
1	3492	32.843450711054	0.001322574388
1	3494	32.844773285442	0.056567639413
1	3502	32.901340924855	0.015249139959
1	3507	32.916590064814	0.013817212137
1	3512	32.930407276951	0.01014856223
1	3517	32.940555839181	0.013443370192
1	3522	32.953999209373	0.001268724561
1	3524	32.955267933934	0.004901946308
1	3526	32.960169880242	0.100424453186
1	3537	33.060594333428	0.019504537039
1	3542	33.080098870467	0.140436870918
1	3551	33.220535741385	0.104207703936
1	3557	33.324743445321	0.025659676549
1	3562	33.35040312187	0.059931228303
1	3567	33.410334350173	0.046141781104
1	3572	33.456476131277	0.005771882124
1	3574	33.462248013401	0.010698095746
1	3582	33.472946109147	0.006357619066
1	3584	33.479303728213	0.016463000307
1	3592	33.49576672852	0.071404563581
1	3598	33.567171292101	0.031478245125
1	3603	33.598649537226	0.012043531432
1	3608	33.610693068658	0.020522805216
1	3613	33.631215873874	0.029636855728
1	3618	33.660852729602	0.153594814736
1	3625	33.814447544338	0.061904220442
1	3630	33.87635176478	0.046743992549
1	3635	33.923095757329	0.074340424967
1	3640	33.997436182296	0.007211261688
1	3642	34.004647443984	0.158925340824
1	3651	34.163572784808	0.021098930901
1	3656	34.184671715709	0.004356506849
1	3658	34.189028222558	0.029338516657
1	3667	34.218366739215	0.097045103796
1	3672	34.315411843011	0.154591513917
1	3677	34.470003356928	0.024666541025
1	3682	34.494669897953	0.102204936185
1	3687	34.596874834138	0.061046243307
1	3692	34.657921077445	0.033321127754
1	3697	34.691242205199	0.007960640001
1	3702	34.6992028452	0.006606877291
1	3704	34.705809722491	0.075127971395
1	3713	34.780937693886	0.017474404797
1	3718	34.798412098683	0.048992208127
1	3723	34.84740430681	0.023164997731
1	3728	34.870569304541	0.031759760871
1	3733	34.902329065412	0.074913939487
1	3739	34.977243004899	0.087125765015
1	3745	35.064368769914	0.06973989862
1	3751	35.134108668534	0.038902991548
1	3757	35.173011660082	0.014419063271
1	3762	35.187430723353	0.036043703675
1	3767	35.223474427028	0.097917642251
1	3772	35.321392069279	0.041841095295
1	3777	35.363233164574	0.021089791096
1	3782	35.38432295567	0.073019364118
1	3787	35.457342319788	0.001611348705
1	3789	35.458953668493	0.000204720917
1	3791	35.45915838941	0.008970137413
1	3796	35.468128526823	0.018342315149
1	3804	35.486470841972	0.029316523305
1	3813	35.515787365277	0.005066601849
1	3815	35.520853967126	0.246567654497
1	3829	35.767421621623	0.005916596263
1	3831	35.773338217886	0.00125217627
1	3833	35.774590394156	0.027611764113
1	3845	35.802202158269	0.001497857885
1	3847	35.803700016154	0.010358475358
1	3852	35.814058491512	0.003852449837
1	3854	35.817910941349	0.045292454633
1	3865	35.863203395982	0.013704886281
1	3870	35.876908282263	0.017525875472
1	3875	35.894434157735	0.014421238266
1	3880	35.908855396001	0.064245012142
1	3886	35.973100408143	0.105993486467
1	3891	36.07909389461	0.095334189308
1	3896	36.174428083918	0.010836860399
1	3901	36.185264944317	0.101482473711
1	3907	36.286747418028	0.083023369299
1	3912	36.369770787327	0.10387497665
1	3917	36.473645763977	0.031693541052
1	3922	36.505339305029	0.103231736893
1	3928	36.608571041922	0.027727456233
1	3934	36.636298498155	0.016027316308
1	3939	36.652325814463	0.006394456714
1	3941	36.658720271177	0.053288949796
1	3950	36.712009220973	0.067900596199
1	3956	36.779909817172	0.028966722507
1	3961	36.808876539679	0.120578803345
1	3966	36.929455343024	0.00096329816
1	3968	36.930418641184	0.001845251352
1	3970	36.932263892536	0.103544794142
1	3982	37.035808686678	0.066899785071
1	3987	37.102708471749	0.014424244725
1	3992	37.117132716474	0.100398005379
1	3998	37.217530721853	0.026485571175
1	4003	37.244016293028	0.042187859692
1	4008	37.28620415272	0.010527486212
1	4014	37.296731638932	0.128470744629
1	4023	37.425202383561	0.055066437613
1	4028	37.480268821174	0.012931684014
1	4033	37.493200505188	0.175809994813
1	4039	37.669010500001	0.065004453075
1	4045	37.734014953076	0.080577923506
1	4050	37.814592876582	0.068660253721
1	4056	37.883253130303	0.048363271724
1	4061	37.931616402027	0.009419690819
1	4066	37.941036092846	0.005517884013
1	4068	37.946553976859	0.000959115153
1	4070	37.947513092012	0.057935214945
1	4081	38.005448306957	0.18542024684
1	4086	38.190868553797	0.010513864736
1	4092	38.201382418533	0.035801268015
1	4097	38.237183686548	0.009927545502
1	4102	38.24711123205	0.029601252289
1	4107	38.276712484339	0.003393391136
1	4109	38.280105875475	0.047005306033
1	4117	38.327111181508	0.015112038192
1	4122	38.3422232197	0.003093179991
1	4124	38.345316399691	0.054266762864
1	4132	38.399583162555	0.0709456198
1	4138	38.470528782355	0.007503945176
1	4140	38.478032727531	0.021570767566
1	4148	38.499603495097	0.009446013078
1	4153	38.509049508175	0.036855352676
1	4158	38.545904860851	0.041128276638
1	4163	38.587033137489	0.08057965469
1	4168	38.667612792179	0.015989498608
1	4173	38.683602290787	0.005235388477
1	4175	38.688837679264	0.093035253905
1	4183	38.781872933169	0.018146320302
1	4188	38.800019253471	0.005953539608
1	4191	38.805972793079	0.002060610267
1	4193	38.808033403346	0.036853401179
1	4204	38.844886804525	0.004432432443
1	4206	38.849319236968	0.04019932317
1	4214	38.889518560138	0.132334296589
1	4220	39.021852856727	0.012742286548
1	4225	39.034595143275	0.011507748878
1	4230	39.046102892153	0.026552942352
1	4235	39.072655834505	0.01047109987
1	4240	39.083126934375	0.096713302405
1	4247	39.17984023678	0.016082211655
1	4253	39.195922448435	0.06271232776
1	4258	39.258634776195	0.023141099151
1	4263	39.281775875346	0.042985333839
1	4269	39.324761209185	0.099460873571
1	4276	39.424222082756	0.054578501791
1	4281	39.478800584547	0.148048712621
1	4287	39.626849297168	0.112754073794
1	4294	39.739603370962	0.004185820208
1	4296	39.74378919117	0.084831799349
1	4304	39.828620990519	0.111283938424
1	4310	39.939904928943	0.103580838017
1	4316	40.04348576696	0.058017930131
1	4322	40.101503697091	0.161983143214
1	4330	40.263486840305	0.011554224848
1	4335	40.275041065153	0.126267899811
1	4340	40.401308964964	0.043303009916
1	4345	40.44461197488	0.028023108633
1	4350	40.472635083513	0.069325104452
1	4355	40.541960187965	0.006596077993
1	4357	40.548556265958	0.032047387291
1	4365	40.580603653249	0.012290575045
1	4370	40.592894228294	0.025125390744
1	4376	40.618019619038	0.068523061653
1	4381	40.686542680691	0.014494951298
1	4386	40.701037631989	0.016199797766
1	4392	40.717237429755	0.062692789734
1	4398	40.779930219489	0.018469478272
1	4403	40.798399697761	0.055719315395
1	4408	40.854119013156	0.227153618333
1	4414	41.081272631489	0.022673569424
1	4419	41.103946200913	0.001735837594
1	4421	41.105682038507	0.096228249084
1	4429	41.201910287591	0.024002337795
1	4434	41.225912625386	0.085914147232
1	4439	41.311826772618	0.034574650916
1	4444	41.346401423534	0.00793829277
1	4446	41.354339716304	0.109682852423
1	4454	41.464022568727	0.015983127954
1	4459	41.480005696681	0.026465118229
1	4465	41.50647081491	0.04564065422
1	4470	41.55211146913	0.220166283971
1	4477	41.772277753101	0.169104190738
1	4484	41.941381943839	0.022626482971
1	4489	41.96400842681	0.000652100464
1	4491	41.964660527274	0.036651152444
1	4499	42.001311679718	0.069634213355
1	4504	42.070945893073	0.013166399894
1	4509	42.084112292967	0.136693723301
1	4514	42.220806016268	0.036374072087
1	4520	42.257180088355	0.027673654183
1	4525	42.284853742538	0.012975942533
1	4530	42.297829685071	0.115868828396
1	4536	42.413698513467	0.020362222072
1	4541	42.434060735539	0.15782274908
1	4546	42.591883484619	0.00667682673
1	4548	42.598560311349	0.002441561815
1	4553	42.601001873164	0.030545309062
1	4561	42.631547182226	0.042217157792
1	4567	42.673764340018	0.020062710554
1	4573	42.693827050572	0.029862776099
1	4578	42.723689826671	0.007546815636
1	4580	42.731236642307	0.125018510687
1	4589	42.856255152994	0.028060655106
1	4594	42.8843158081	0.034698257202
1	4599	42.919014065302	0.006153178881
1	4601	42.925167244183	0.086042636583
1	4610	43.011209880766	0.174788940145
1	4615	43.185998820911	0.004710136436
1	4617	43.190708957347	0.081047046313
1	4625	43.27175600366	0.146688257525
1	4631	43.418444261185	0.006497353587
1	4634	43.424941614772	0.185467113949
1	4646	43.610408728721	0.02766462896
1	4651	43.638073357681	0.009283993778
1	4656	43.647357351459	0.006636690009
1	4658	43.653994041468	0.068091761196
1	4666	43.722085802664	0.08176026823
1	4672	43.803846070894	0.003444052109
1	4674	43.807290123003	0.015784169355
1	4682	43.823074292358	0.005315717586
1	4684	43.828390009944	0.067681961107
1	4693	43.896071971051	0.005079140595
1	4695	43.901151111646	0.004570652805
1	4700	43.905721764451	0.011122404206
1	4705	43.916844168657	0.206501760837
1	4714	44.123345929494	0.002355413026
1	4716	44.12570134252	0.153920404297
1	4725	44.279621746817	0.015868306573
1	4730	44.29549005339	0.12978831619
1	4736	44.42527836958	0.082833379823
1	4741	44.508111749403	0.100328636189
1	4748	44.608440385592	0.021011043534
1	4754	44.629451429126	0.016370993928
1	4760	44.645822423054	0.011334259041
1	4765	44.657156682095	0.00113842941
1	4767	44.658295111505	0.066055261995
1	4775	44.7243503735	0.027007951573
1	4780	44.751358325073	0.04511265581
1	4786	44.796470980883	0.008643199767
1	4791	44.80511418065	9.316587e-05
1	4793	44.80520734652	0.011161534552
1	4799	44.816368881072	0.004553611141
1	4801	44.820922492213	0.045720814442
1	4812	44.866643306655	0.031321521243
1	4817	44.897964827898	0.136551541556
1	4824	45.034516369454	0.079136620346
1	4829	45.1136529898	0.111979845393
1	4835	45.225632835193	0.053194869004
1	4840	45.278827704197	0.053987444891
1	4846	45.332815149088	0.028362766454
1	4851	45.361177915542	0.050760811921
1	4857	45.411938727463	0.022412362255
1	4862	45.434351089718	0.193914760753
1	4868	45.628265850471	0.075896668153
1	4874	45.704162518624	0.001309883248
1	4876	45.705472401872	0.141520603405
1	4885	45.846993005277	0.027941907026
1	4890	45.874934912303	0.070905942577
1	4895	45.94584085488	0.001135682933
1	4897	45.946976537813	0.097075340266
1	4905	46.044051878079	0.013627299517
1	4910	46.057679177596	0.001336890929
1	4912	46.059016068525	0.051746870284
1	4920	46.110762938809	0.016000289428
1	4925	46.126763228237	0.177052554136
1	4933	46.303815782373	0.041421440369
1	4938	46.345237222742	0.045940501311
1	4943	46.391177724053	0.138348625297
1	4950	46.52952634935	0.062941946975
1	4955	46.592468296325	0.047233529353
1	4960	46.639701825678	0.012871782212
1	4965	46.65257360789	0.070845334645
1	4970	46.723418942535	0.005196537982
1	4972	46.728615480517	0.083325611324
1	4981	46.811941091841	0.006859343913
1	4984	46.818800435754	0.02326143156
1	4992	46.842061867314	0.055055488184
1	4997	46.897117355498	0.083327285311
1	5002	46.980444640809	0.044074532842
1	5008	47.024519173651	0.015471272246
1	5014	47.039990445897	0.031260658294
1	5019	47.071251104191	0.006127460784
1	5021	47.077378564975	0.000430407027
1	5023	47.077808972002	0.00353709631
1	5028	47.081346068312	0.110879192589
1	5040	47.192225260901	0.002395181708
1	5042	47.194620442609	0.022518692298
1	5050	47.217139134907	0.012267414618
1	5055	47.229406549525	0.004513982176
1	5057	47.233920531701	0.064153104604
1	5066	47.298073636305	0.012802683741
1	5071	47.310876320046	0.259664830146
1	5080	47.570541150192	0.102568044577
1	5085	47.673109194769	0.020102430519
1	5090	47.693211625288	0.105600099524
1	5096	47.798811724812	0.007299535729
1	5098	47.806111260541	0.018630446279
1	5106	47.82474170682	0.050241883886
1	5113	47.874983590706	0.037261777601
1	5118	47.912245368307	0.036849962833
1	5123	47.94909533114	0.00786215595
1	5125	47.95695748709	0.10996206749
1	5133	48.06691955458	0.012507445199
1	5138	48.079426999779	0.114574076269
1	5143	48.194001076048	0.047963624186
1	5148	48.241964700234	0.00880565305
1	5153	48.250770353284	0.054112508433
1	5158	48.304882861717	0.126681026537
1	5165	48.431563888254	0.006874787757
1	5167	48.438438676011	0.077272288597
1	5175	48.515710964608	0.000346398548
1	5177	48.516057363156	0.08180756022
1	5187	48.597864923376	0.019832260398
1	5192	48.617697183774	0.009129528473
1	5197	48.626826712247	0.047145264571
1	5203	48.673971976818	0.0439275153
1	5208	48.717899492118	0.046221629323
1	5213	48.764121121441	0.074706968284
1	5218	48.838828089725	0.144698952162
1	5226	48.983527041887	0.034651337482
1	5231	49.018178379369	0.042129035503
1	5236	49.060307414872	0.063857551984
1	5242	49.124164966856	0.041710944346
1	5248	49.165875911202	0.007393640012
1	5253	49.173269551214	0.013079719601
1	5258	49.186349270815	0.013577556019
1	5263	49.199926826834	0.060504119011
1	5268	49.260430945845	0.009260500625
1	5273	49.26969144647	0.120535235773
1	5279	49.390226682243	0.00605292311
1	5281	49.396279605353	0.173009729085
1	5291	49.569289334438	0.020140099205
1	5296	49.589429433643	0.024060531476
1	5301	49.613489965119	0.00965682727
1	5306	49.623146792389	0.027900619083
1	5311	49.651047411472	0.040885729
1	5316	49.691933140472	0.017815966226
1	5321	49.709749106698	0.16363341541
1	5328	49.873382522108	0.030326847375
1	5333	49.903709369483	0.008088120939
1	5338	49.911797490422	0.182968397066
1	5343	50.094765887488	0.076151782346
1	5349	50.170917669834	0.006442955903
1	5351	50.177360625737	0.003497528335
1	5356	50.180858154072	0.00850181424
1	5361	50.189359968312	0.027086320908
1	5370	50.21644628922	0.019170812031
1	5375	50.235617101251	0.015782469423
1	5381	50.251399570674	0.029598688594
1	5387	50.280998259268	0.061057829929
1	5393	50.342056089197	0.052678967283
1	5399	50.39473505648	0.0261875173
1	5404	50.42092257378	0.052084007211
1	5409	50.473006580991	0.17768010144
1	5415	50.650686682431	0.12771157722
1	5420	50.778398259651	0.035123037278
1	5425	50.813521296929	0.038993837403
1	5430	50.852515134332	0.004553840899
1	5432	50.857068975231	0.000710938234
1	5434	50.857779913465	0.005595492694
1	5439	50.863375406159	0.060169780178
1	5450	50.923545186337	0.007373784158
1	5452	50.930918970495	0.102297198993
1	5462	51.033216169488	0.062112071219
1	5467	51.095328240707	0.029419166447
1	5472	51.124747407154	0.162530280942
1	5477	51.287277688096	0.049474930773
1	5482	51.336752618869	0.092479934611
1	5488	51.42923255348	0.008948217333
1	5493	51.438180770813	0.034559420201
1	5498	51.472740191014	0.090881748742
1	5504	51.563621939756	0.053631920322
1	5509	51.617253860078	0.059644516666
1	5515	51.676898376744	0.02089674708
1	5520	51.697795123824	0.011767047605
1	5525	51.709562171429	0.062075635642
1	5531	51.771637807071	0.131482793712
1	5537	51.903120600783	0.113746102823
1	5542	52.016866703606	0.016524260091
1	5547	52.033390963697	0.050035918881
1	5553	52.083426882578	0.03607561472
1	5558	52.119502497298	0.125205452277
1	5564	52.244707949575	0.010823584068
1	5569	52.255531533643	0.06885921578
1	5574	52.324390749423	0.103873862824
1	5582	52.428264612247	0.129958091793
1	5587	52.55822270404	0.037923189963
1	5592	52.596145894003	0.015049148872
1	5597	52.611195042875	0.050346657781
1	5602	52.661541700656	0.0137042255
1	5608	52.675245926156	0.004874259923
1	5610	52.680120186079	0.069711514292
1	5618	52.749831700371	0.019831902243
1	5624	52.769663602614	0.071739843441
1	5630	52.841403446055	0.004201319564
1	5632	52.845604765619	0.003722558806
1	5637	52.849327324425	0.035970919677
1	5645	52.885298244102	0.006054816286
1	5647	52.891353060388	0.00223896137
1	5652	52.893592021758	0.061184321675
1	5662	52.954776343433	0.15462385525
1	5669	53.109400198683	0.03234744137
1	5674	53.141747640053	0.010481911599
1	5679	53.152229551652	0.08621809184
1	5685	53.238447643492	0.076352201875
1	5690	53.314799845367	0.041103912622
1	5695	53.355903757989	0.016194869634
1	5700	53.372098627623	0.006905019959
1	5702	53.379003647582	0.004413397813
1	5707	53.383417045395	0.064755223139
1	5716	53.448172268534	0.007233848552
1	5718	53.455406117086	0.010368217175
1	5726	53.465774334261	0.053450844146
1	5731	53.519225178407	0.04514026102
1	5736	53.564365439427	0.060351405743
1	5742	53.62471684517	0.07655034689
1	5748	53.70126719206	0.042286430416
1	5754	53.743553622476	0.037652734053
1	5759	53.781206356529	0.085379401147
1	5764	53.866585757676	0.026851885191
1	5769	53.893437642867	0.073251582952
1	5776	53.966689225819	0.070887380797
1	5783	54.037576606616	0.036794769882
1	5788	54.074371376498	0.002610600742
1	5790	54.07698197724	0.040399521473
1	5798	54.117381498713	0.004446951614
1	5800	54.121828450327	0.007593471232
1	5805	54.129421921559	0.0289993393
1	5813	54.158421260859	0.021251540742
1	5818	54.179672801601	0.000813597869
1	5820	54.18048639947	0.003417883506
1	5822	54.183904282976	0.007947798457
1	5827	54.191852081433	0.016081123704
1	5835	54.207933205137	0.025566303444
1	5843	54.233499508581	0.201006244461
1	5849	54.434505753042	0.00196493434
1	5851	54.436470687382	0.020440533186
1	5859	54.456911220568	0.116979688158
1	5866	54.573890908726	0.054752018226
1	5871	54.628642926952	0.030709021597
1	5876	54.659351948549	0.056495008199
1	5881	54.715846956748	0.000438178404
1	5883	54.716285135152	0.125179088043
1	5891	54.841464223195	0.010574792023
1	5896	54.852039015218	0.075208811576
1	5901	54.927247826794	0.017938987683
1	5906	54.945186814477	0.010145339335
1	5911	54.955332153812	0.019253904464
1	5916	54.974586058276	0.00106335177
1	5918	54.975649410046	0.100057267479
1	5928	55.075706677525	0.01412014003
1	5933	55.089826817555	0.009708695871
1	5938	55.099535513426	0.03794943145
1	5944	55.137484944876	0.147982050035
1	5950	55.285466994911	0.049706397712
1	5955	55.335173392623	0.008079950272
1	5960	55.343253342895	0.058595990886
1	5967	55.401849333781	0.062223838814
1	5973	55.464073172595	0.037081733812
1	5978	55.501154906407	0.117053594477
1	5983	55.618208500884	0.024611527676
1	5988	55.64282002856	0.003771497805
1	5990	55.646591526365	0.098233138187
1	5998	55.744824664552	0.149754016328
1	6005	55.89457868088	0.031592439042
1	6010	55.926171119922	0.006986036309
1	6012	55.933157156231	0.01029912484
1	6020	55.943456281071	0.089913386474
1	6026	56.033369667545	0.009539073822
1	6031	56.042908741367	0.083709384365
1	6037	56.126618125732	0.05071648122
1	6042	56.177334606952	0.08443782559
1	6048	56.261772432542	0.044022725712
1	6053	56.305795158254	0.057297727396
1	6058	56.36309288565	0.003027231408
1	6060	56.366120117058	0.004923579553
1	6065	56.371043696611	0.016310690342
1	6073	56.387354386953	0.107062565484
1	6080	56.494416952437	0.083737431645
1	6087	56.578154384082	0.002777808499
1	6089	56.580932192581	0.099596950277
1	6097	56.680529142858	0.076621341665
1	6102	56.757150484523	0.015263650438
1	6107	56.772414134961	0.014177260797
1	6112	56.786591395758	0.020989192059
1	6117	56.807580587817	0.048765480048
1	6123	56.856346067865	0.104844059583
1	6128	56.961190127448	0.064547916466
1	6133	57.025738043914	0.022584387824
1	6138	57.048322431738	0.060864370137
1	6143	57.109186801875	0.035357489944
1	6148	57.144544291819	0.0376491612
1	6153	57.182193453019	0.051963117458
1	6159	57.234156570477	0.043581302586
1	6164	57.277737873063	0.004100459073
1	6166	57.281838332136	0.071890975742
1	6174	57.353729307878	0.033868685633
1	6179	57.387597993511	0.047967003421
1	6184	57.435564996932	0.073350097276
1	6190	57.508915094208	0.107517165812
1	6199	57.61643226002	0.061151760398
1	6204	57.677584020418	0.067012806343
1	6209	57.744596826761	0.092406901411
1	6216	57.837003728172	0.000958813708
1	6218	57.83796254188	0.000709547644
1	6220	57.838672089524	0.008394447963
1	6225	57.847066537487	0.034043095061
1	6237	57.881109632548	0.049646759328
1	6242	57.930756391876	0.007391429422
1	6244	57.938147821298	0.012540699839
1	6252	57.950688521137	0.002683321054
1	6254	57.953371842191	0.019207964692
1	6262	57.972579806883	0.052340616479
1	6267	58.024920423362	0.031811015872
1	6272	58.056731439234	0.05324869224
1	6277	58.109980131474	0.031898262697
1	6282	58.141878394171	0.02543662896
1	6287	58.167315023131	0.02640081345
1	6292	58.193715836581	0.077361299291
1	6297	58.271077135872	0.010691347125
1	6302	58.281768482997	0.05101173005
1	6308	58.332780213047	0.007885810851
1	6310	58.340666023898	0.003117993687
1	6315	58.343784017585	0.013113237837
1	6323	58.356897255422	0.027659955668
1	6328	58.38455721109	0.075086992868
1	6333	58.459644203958	0.008367348661
1	6338	58.468011552619	0.00323475497
1	6340	58.471246307589	0.013438679995
1	6349	58.484684987584	0.074052893351
1	6354	58.558737880935	0.178323422367
1	6361	58.737061303302	0.057070075991
1	6366	58.794131379293	0.026385604432
1	6371	58.820516983725	0.118291153613
1	6376	58.938808137338	0.011406270186
1	6381	58.950214407524	0.368038470692
1	6391	59.318252878216	0.154357124038
1	6397	59.472610002254	0.056730268557
1	6402	59.529340270811	0.002753378691
1	6404	59.532093649502	0.08930804917
1	6412	59.621401698672	0.034094129252
1	6417	59.655495827924	0.098525099738
1	6423	59.754020927662	0.010103003003
1	6428	59.764123930665	0.023797089464
1	6433	59.787921020129	0.009222979599
1	6438	59.797143999728	0.155221516317
1	6444	59.952365516045	0.010022804508
1	6449	59.962388320553	0.003317707081
1	6451	59.965706027634	0.005187986223
1	6456	59.970894013857	0.13933260541
1	6464	60.110226619267	0.074948452777
1	6470	60.185175072044	0.019810174008
1	6475	60.204985246052	0.009669475017
1	6480	60.214654721069	0.060326313553
1	6486	60.274981034622	0.014173102422
1	6491	60.289154137044	0.004924692525
1	6493	60.294078829569	0.045858035538
1	6501	60.339936865107	0.016986283348
1	6506	60.356923148455	0.011597257318
1	6511	60.368520405773	0.02347429963
1	6516	60.391994705403	0.011455646076
1	6521	60.403450351479	0.079883467862
1	6526	60.483333819341	0.017617258124
1	6531	60.500951077465	0.050698059335
1	6537	60.5516491368	0.032115463438
1	6544	60.583764600238	0.035579751511
1	6549	60.619344351749	0.038292428843
1	6554	60.657636780592	0.00177801249
1	6556	60.659414793082	0.00796189236
1	6561	60.667376685442	0.033479706324
1	6569	60.700856391766	0.008557251247
1	6574	60.709413643013	0.132697887313
1	6580	60.842111530326	0.008805509052
1	6585	60.850917039378	0.154048076424
1	6591	61.004965115802	0.022986873853
1	6596	61.027951989655	0.042581011905
1	6601	61.07053300156	0.060336377946
1	6606	61.130869379506	0.066906710987
1	6612	61.197776090493	0.083196211994
1	6620	61.280972302487	0.081454200387
1	6627	61.362426502874	0.020254502383
1	6632	61.382681005257	0.077901672135
1	6638	61.460582677392	0.001166971644
1	6640	61.461749649036	0.03189707081
1	6649	61.493646719846	0.13319508568
1	6656	61.626841805526	0.022510813171
1	6661	61.649352618697	0.078780832446
1	6666	61.728133451143	0.015965404972
1	6671	61.744098856115	0.012563389565
1	6676	61.75666224568	0.007685376649
1	6678	61.764347622329	0.003498921483
1	6683	61.767846543812	0.01300116138
1	6688	61.780847705192	0.077367597913
1	6697	61.858215303105	0.003871643736
1	6699	61.862086946841	0.000906996915
1	6701	61.862993943756	0.276759461824
1	6713	62.13975340558	0.013268184235
1	6718	62.153021589815	0.011475960363
1	6723	62.164497550178	0.00967930651
1	6728	62.174176856688	0.077670827287
1	6734	62.251847683975	0.137709887275
1	6741	62.38955757125	0.087117180395
1	6746	62.476674751645	0.03497329225
1	6752	62.511648043895	0.05887298467
1	6757	62.570521028565	0.007646719088
1	6759	62.578167747653	0.029226932614
1	6767	62.607394680267	0.034957486301
1	6772	62.642352166568	0.033326721525
1	6777	62.675678888093	0.004296573521
1	6779	62.679975461614	0.014375207008
1	6788	62.694350668622	0.042187068893
1	6793	62.736537737515	0.064937039284
1	6798	62.801474776799	0.080131917981
1	6803	62.88160669478	0.085024753867
1	6810	62.966631448647	0.024838835953
1	6815	62.9914702846	0.062472342253
1	6820	63.053942626853	0.150828774106
1	6825	63.204771400959	0.005597098688
1	6827	63.210368499647	0.019418655856
1	6835	63.229787155503	0.003643560763
1	6837	63.233430716266	0.041946746197
1	6846	63.275377462463	0.00837063594
1	6848	63.283748098403	0.022295047876
1	6856	63.306043146279	0.010514134672
1	6861	63.316557280951	0.05213576273
1	6866	63.368693043681	0.010413117713
1	6871	63.379106161394	0.006364526495
1	6874	63.385470687889	0.12414163279
1	6882	63.509612320679	0.03561300763
1	6888	63.545225328309	0.036192503055
1	6893	63.581417831364	0.061804936044
1	6898	63.643222767408	0.191240733415
1	6904	63.834463500823	0.029974738465
1	6909	63.864438239288	0.004179834929
1	6911	63.868618074217	0.111358525579
1	6919	63.979976599796	0.09129591005
1	6924	64.071272509846	0.032495079967
1	6929	64.103767589813	0.003234600893
1	6931	64.107002190706	0.006368165633
1	6936	64.113370356339	0.045706139858
1	6944	64.159076496197	0.205507441921
1	6950	64.364583938118	0.047906581104
1	6955	64.412490519222	0.038568892588
1	6960	64.45105941181	0.012177206274
1	6965	64.463236618084	0.115744530234
1	6970	64.578981148318	0.048790497338
1	6975	64.627771645656	0.028390782476
1	6980	64.656162428132	0.013137157925
1	6985	64.669299586057	0.081125754112
1	6990	64.750425340169	0.062368281795
1	6996	64.812793621964	0.09331046778
1	7001	64.906104089744	0.027703926516
1	7006	64.93380801626	0.017717296594
1	7011	64.951525312854	0.023626024432
1	7016	64.975151337286	0.042873943847
1	7022	65.018025281133	0.045788862764
1	7027	65.063814143897	0.063562081785
1	7032	65.127376225682	0.019606107449
1	7038	65.146982333131	0.035351147999
1	7043	65.18233348113	0.068463540608
1	7048	65.250797021738	0.004307018266
1	7050	65.255104040004	0.035379883412
1	7058	65.290483923416	0.019194702987
1	7063	65.309678626403	0.001556368258
1	7065	65.311234994661	0.115217491876
1	7073	65.426452486537	0.040374553436
1	7078	65.466827039973	0.019620156819
1	7084	65.486447196792	0.00291035748
1	7086	65.489357554272	0.027869051562
1	7095	65.517226605834	0.017316827331
1	7100	65.534543433165	0.053235116349
1	7106	65.587778549514	0.077992166532
1	7111	65.665770716046	0.00086196181
1	7113	65.666632677856	0.040043183714
1	7121	65.70667586157	0.067144638865
1	7126	65.773820500435	0.021905306314
1	7132	65.795725806749	0.075375783142
1	7138	65.871101589891	0.017398735917
1	7143	65.888500325808	0.149479917056
1	7150	66.037980242864	0.003880733705
1	7152	66.041860976569	0.013316984239
1	7160	66.055177960808	0.040174776882
1	7166	66.09535273769	0.149047965678
1	7173	66.244400703368	0.015404857867
1	7178	66.259805561235	0.100240217897
1	7183	66.360045779132	0.010370663175
1	7188	66.370416442307	0.020816621278
1	7193	66.391233063585	0.077913956514
1	7199	66.469147020099	0.019294672084
1	7204	66.488441692183	0.07370789913
1	7210	66.562149591313	0.067328087428
1	7215	66.629477678741	0.108065433592
1	7221	66.737543112333	0.023608352631
1	7226	66.761151464964	0.075410925391
1	7232	66.836562390355	0.02733881073
1	7237	66.863901201085	0.035516293565
1	7242	66.89941749465	0.041004823462
1	7247	66.940422318112	0.010083923169
1	7252	66.950506241281	0.012443727876
1	7257	66.962949969157	0.039089976405
1	7262	67.002039945562	0.009099438875
1	7267	67.011139384437	0.103430156465
1	7274	67.114569540902	0.041942553358
1	7279	67.15651209426	0.06940650493
1	7285	67.22591859919	0.036199197959
1	7291	67.262117797149	0.1016971362
1	7296	67.363814933349	0.001483241422
1	7298	67.365298174771	0.04763553381
1	7306	67.412933708581	0.000814477648
1	7308	67.413748186229	0.04544915826
1	7316	67.459197344489	0.085077721644
1	7323	67.544275066133	0.016767861428
1	7328	67.561042927561	0.076555851846
1	7333	67.637598779407	0.046832036217
1	7339	67.684430815624	0.017201364385
1	7344	67.701632180009	0.12043699805
1	7349	67.822069178059	0.029990644355
1	7354	67.852059822414	0.079726576813
1	7361	67.931786399227	0.051317436765
1	7367	67.983103835992	0.020876527911
1	7372	68.003980363903	0.022644079772
1	7377	68.026624443675	0.064613779178
1	7382	68.091238222853	0.004793915479
1	7384	68.096032138332	0.172274698723
1	7393	68.268306837055	0.028483391282
1	7401	68.296790228337	0.049487374498
1	7406	68.346277602835	0.019755252591
1	7411	68.366032855426	0.009284828081
1	7416	68.375317683507	0.091143693769
1	7421	68.466461377276	0.155511274407
1	7426	68.621972651683	0.049898876657
1	7431	68.67187152834	0.001074850942
1	7433	68.672946379282	0.081177000747
1	7442	68.754123380029	0.030887191174
1	7447	68.785010571203	0.017304394027
1	7452	68.80231496523	0.0331427378
1	7458	68.83545770303	0.025095613731
1	7463	68.860553316761	0.015584592811
1	7468	68.876137909572	0.260719858025
1	7476	69.136857767597	0.10104094308
1	7481	69.237898710677	0.076822585964
1	7486	69.314721296641	0.005238300885
1	7488	69.319959597526	0.007258365487
1	7493	69.327217963013	0.011912246052
1	7501	69.339130209065	0.085641446696
1	7506	69.424771655761	0.138488991356
1	7511	69.563260647117	0.064137653531
1	7518	69.627398300648	0.00192805457
1	7520	69.629326355218	0.061519119313
1	7528	69.690845474531	0.037215110714
1	7534	69.728060585245	0.071740589753
1	7541	69.799801174998	0.019928806517
1	7546	69.819729981515	0.049590275141
1	7552	69.869320256656	0.008328119105
1	7557	69.877648375761	0.006135304378
1	7559	69.883783680139	0.060448197696
1	7567	69.944231877835	0.040668807601
1	7573	69.984900685436	0.029001451141
1	7579	70.013902136577	0.00384727157
1	7581	70.017749408147	0.03323170283
1	7589	70.050981110977	0.003005827732
1	7591	70.053986938709	0.030060842922
1	7599	70.084047781631	0.008074557717
1	7604	70.092122339348	0.038115429332
1	7610	70.13023776868	0.001921295646
1	7612	70.132159064326	0.112026887198
1	7620	70.244185951524	0.069282520543
1	7625	70.313468472067	0.037913915981
1	7632	70.351382388048	0.014579714644
1	7637	70.365962102692	0.009304496029
1	7642	70.375266598721	0.081183169152
1	7648	70.456449767873	0.031760620735
1	7653	70.488210388608	0.022352023916
1	7658	70.510562412524	0.014182179453
1	7663	70.524744591977	0.093853873844
1	7670	70.618598465821	0.115372278345
1	7676	70.733970744166	0.020842210506
1	7681	70.754812954672	0.038699936762
1	7686	70.793512891434	0.075678202126
1	7691	70.86919109356	0.019552558452
1	7696	70.888743652012	0.047114339332
1	7701	70.935857991344	0.047162243464
1	7706	70.983020234808	0.064355569801
1	7711	71.047375804609	0.045217753958
1	7716	71.092593558567	0.022753452944
1	7721	71.115347011511	0.088533363669
1	7728	71.20388037518	0.021669241649
1	7733	71.225549616829	0.01571433232
1	7738	71.241263949149	0.081506972182
1	7744	71.322770921331	0.095179476274
1	7750	71.417950397605	0.002309659176
1	7752	71.420260056781	0.003881629499
1	7754	71.42414168628	0.051954537836
1	7765	71.476096224116	0.064977964868
1	7771	71.541074188984	0.040429661933
1	7776	71.581503850917	0.019687999426
1	7781	71.601191850343	0.032938936491
1	7787	71.634130786834	0.005396142151
1	7789	71.639526928985	0.05102314176
1	7797	71.690550070745	0.191341808189
1	7802	71.881891878934	0.036874628694
1	7807	71.918766507628	0.067725266002
1	7813	71.98649177363	0.091183498007
1	7818	72.077675271637	0.068347582611
1	7824	72.146022854248	0.037147782893
1	7831	72.183170637141	0.004883105151
1	7833	72.188053742292	0.060333197096
1	7843	72.248386939388	0.050804050341
1	7848	72.299190989729	0.095477566967
1	7853	72.394668556696	0.112151176216
1	7859	72.506819732912	0.050191377542
1	7865	72.557011110454	0.00043696962
1	7867	72.557448080074	0.006450389442
1	7869	72.563898469516	0.027443934416
1	7880	72.591342403932	0.089124174012
1	7885	72.680466577944	0.008312872352
1	7890	72.688779450296	7.019871e-06
1	7892	72.688786470167	0.175281170861
1	7902	72.864067641028	0.114504702503
1	7907	72.978572343531	0.127737946824
1	7915	73.106310290355	0.03112428167
1	7920	73.137434572025	0.058024271056
1	7926	73.195458843081	0.019476174634
1	7931	73.214935017715	0.018884455574
1	7936	73.233819473289	0.055377892366
1	7941	73.289197365655	0.074235650006
1	7946	73.363433015661	0.058513125366
1	7951	73.421946141027	0.118121320275
1	7956	73.540067461302	0.17429293907
1	7961	73.714360400372	0.085923702017
1	7968	73.800284102389	0.08034607535
1	7973	73.880630177739	0.044215409705
1	7979	73.924845587444	0.028158913489
1	7984	73.953004500933	0.03240593952
1	7989	73.985410440453	0.038795563093
1	7994	74.024206003546	0.007544914259
1	7996	74.031750917805	0.021654015223
1	8004	74.053404933028	0.019958667207
1	8010	74.073363600235	0.104612537119
1	8016	74.177976137354	0.003311419229
1	8018	74.181287556583	0.10055230596
1	8026	74.281839862543	0.119942723355
1	8031	74.401782585898	0.092009615582
1	8037	74.49379220148	0.022613362021
1	8042	74.516405563501	0.010937565263
1	8047	74.527343128764	0.015145802375
1	8053	74.542488931139	0.009573316657
1	8058	74.552062247796	0.093315800509
1	8065	74.645378048305	0.008507287232
1	8070	74.653885335537	0.111729273952
1	8075	74.765614609489	0.003761999911
1	8078	74.7693766094	0.132102009784
1	8086	74.901478619184	0.1017554489
1	8091	75.003234068084	0.003778085877
1	8093	75.007012153961	0.013679648357
1	8101	75.020691802318	0.029809160868
1	8106	75.050500963186	0.056146082713
1	8111	75.106647045899	0.026709210335
1	8117	75.133356256234	0.025902972685
1	8122	75.159259228919	0.026615515353
1	8127	75.185874744272	0.007322181531
1	8130	75.193196925803	0.048279635073
1	8138	75.241476560876	0.262914964991
1	8145	75.504391525867	0.200819580781
1	8150	75.705211106648	0.010641209216
1	8155	75.715852315864	0.076296457174
1	8160	75.792148773038	0.023951465015
1	8165	75.816100238053	0.031637733169
1	8171	75.847737971222	0.020315292594
1	8176	75.868053263816	0.009931652959
1	8181	75.877984916775	0.016441438389
1	8187	75.894426355164	0.031066686328
1	8193	75.925493041492	0.079729788316
1	8198	76.005222829808	0.035074386285
1	8203	76.040297216093	0.024076146478
1	8208	76.064373362571	0.044225788382
1	8213	76.108599150953	0.009163141896
1	8218	76.117762292849	0.001050169656
1	8220	76.118812462505	0.004757238593
1	8222	76.123569701098	0.070346960281
1	8234	76.193916661379	0.003992656101
1	8236	76.19790931748	0.011467896457
1	8241	76.209377213937	0.008876855747
1	8246	76.218254069684	0.076582512136
1	8254	76.29483658182	0.078568755443
1	8259	76.373405337263	0.081224651691
1	8265	76.454629988954	0.120067848501
1	8270	76.574697837455	0.169928558423
1	8276	76.744626395878	0.036096439484
1	8282	76.780722835362	0.019912369217
1	8287	76.800635204579	0.032236505573
1	8292	76.832871710152	0.11102014366
1	8299	76.943891853812	0.031038552149
1	8304	76.974930405961	0.003899570607
1	8306	76.978829976568	0.007950034466
1	8311	76.986780011034	0.001375154934
1	8313	76.988155165968	0.215293916938
1	8326	77.203449082906	0.038887790826
1	8331	77.242336873732	0.007999304337
1	8333	77.250336178069	0.090882712061
1	8344	77.34121889013	0.171824479398
1	8352	77.513043369528	0.031564383014
1	8357	77.544607752542	0.042768820051
1	8363	77.587376572593	0.019620085998
1	8368	77.606996658591	0.039495316419
1	8373	77.64649197501	0.059566215912
1	8378	77.706058190922	0.292587928235
1	8386	77.998646119157	0.061614229018
1	8391	78.060260348175	0.020212874015
1	8396	78.08047322219	0.015235076319
1	8401	78.095708298509	0.009455346834
1	8406	78.105163645343	0.015279259546
1	8411	78.120442904889	0.023026489448
1	8416	78.143469394337	0.057209881027
1	8423	78.200679275364	0.122357118993
1	8428	78.323036394357	0.065448167014
1	8434	78.388484561371	0.319918603937
1	8441	78.708403165308	0.025619832525
1	8446	78.734022997833	0.044893425378
1	8451	78.778916423211	0.030627538333
1	8456	78.809543961544	0.014738010449
1	8461	78.824281971993	0.029277140833
1	8466	78.853559112826	0.038039856738
1	8471	78.891598969564	0.006340491606
1	8473	78.89793946117	0.033742783801
1	8481	78.931682244971	0.123261389346
1	8487	79.054943634317	0.038861430956
1	8492	79.093805065273	0.003066908056
1	8494	79.096871973329	0.005154317709
1	8499	79.102026291038	0.07642174245
1	8507	79.178448033488	0.052062072505
1	8512	79.230510105993	0.023357459616
1	8517	79.253867565609	0.008140326226
1	8522	79.262007891835	0.017559575996
1	8527	79.279567467831	0.039676772224
1	8534	79.319244240055	0.041220754371
1	8540	79.360464994426	0.055552538887
1	8546	79.416017533313	0.01295789956
1	8551	79.428975432873	0.155279550691
1	8556	79.584254983564	0.095859318563
1	8562	79.680114302127	0.1497362698
1	8567	79.829850571927	0.063487663726
1	8573	79.893338235653	0.011809284003
1	8578	79.905147519656	0.0255266961
1	8583	79.930674215756	0.043280927082
1	8588	79.973955142838	0.042757688501
1	8593	80.016712831339	0.003990499698
1	8595	80.020703331037	0.042649321693
1	8603	80.06335265273	0.085883799681
1	8608	80.149236452411	0.012434555027
1	8613	80.161671007438	0.023712680768
1	8618	80.185383688206	0.219947797196
1	8623	80.405331485402	0.054076059156
1	8629	80.459407544558	0.021150807806
1	8634	80.480558352364	0.035935142083
1	8639	80.516493494447	0.023711193568
1	8644	80.540204688015	0.027697603571
1	8649	80.567902291586	0.019201281586
1	8654	80.587103573172	0.199616880934
1	8659	80.786720454106	0.105059758854
1	8665	80.89178021296	0.127031293811
1	8672	81.018811506771	0.010880319447
1	8677	81.029691826218	0.009912920695
1	8682	81.039604746913	0.12891339978
1	8688	81.168518146693	0.023476578324
1	8693	81.191994725017	0.078786507735
1	8698	81.270781232752	0.011495220213
1	8703	81.282276452965	0.010855850276
1	8708	81.293132303241	0.001882474144
1	8710	81.295014777385	0.088705336683
1	8719	81.383720114068	0.029968501404
1	8724	81.413688615472	0.009348997586
1	8729	81.423037613058	0.029899000583
1	8734	81.452936613641	0.24374904243
1	8739	81.696685656071	0.031498713034
1	8745	81.728184369105	0.041234742396
1	8751	81.769419111501	0.076405619845
1	8757	81.845824731346	0.055521379047
1	8762	81.901346110393	0.021817479078
1	8767	81.923163589471	0.021876652289
1	8772	81.94504024176	0.050693377386
1	8777	81.995733619146	0.006615446946
1	8780	82.002349066092	0.019053710251
1	8789	82.021402776343	0.01853245745
1	8795	82.039935233793	0.059327122245
1	8801	82.099262356038	0.025792521827
1	8807	82.125054877865	0.008670779394
1	8812	82.133725657259	0.309988036616
1	8822	82.443713693875	0.187237088102
1	8829	82.630950781977	0.035062542931
1	8834	82.666013324908	0.012505591223
1	8839	82.678518916131	0.043031692743
1	8844	82.721550608874	0.033815055012
1	8850	82.755365663886	0.05319316464
1	8857	82.808558828526	0.01357454738
1	8862	82.822133375906	0.061978279044
1	8867	82.88411165495	0.068756819185
1	8872	82.952868474135	0.116326242362
1	8877	83.069194716497	0.033309225028
1	8882	83.102503941525	0.01454316857
1	8887	83.117047110095	0.007801327515
1	8892	83.12484843761	0.006691591792
1	8895	83.131540029402	0.090981448091
1	8905	83.222521477493	0.000749218676
1	8907	83.223270696169	0.015160367091
1	8915	83.23843106326	0.006984164945
1	8917	83.245415228205	0.010699211451
1	8925	83.256114439656	0.022928430216
1	8930	83.279042869872	0.009475393928
1	8935	83.2885182638	0.166288202939
1	8941	83.454806466739	0.01855429187
1	8946	83.473360758609	0.021874218782
1	8951	83.495234977391	0.096600577588
1	8958	83.591835554979	0.145806058155
1	8964	83.737641613134	0.028692475045
1	8969	83.766334088179	0.021207234812
1	8974	83.787541322991	0.010019565911
1	8979	83.797560888902	0.100115210488
1	8985	83.89767609939	0.028522760135
1	8990	83.926198859525	0.000759046791
1	8992	83.926957906316	0.026245031396
1	9000	83.953202937712	0.000673043073
1	9002	83.953875980785	0.0805286579
1	9010	84.034404638685	0.069180161251
1	9016	84.103584799936	0.136628706454
1	9021	84.24021350639	0.012114907227
1	9026	84.252328413617	0.040981101113
1	9031	84.29330951473	0.06957643276
1	9036	84.36288594749	0.27299201114
1	9045	84.63587795863	0.031613764088
1	9052	84.667491722718	0.018683080714
1	9057	84.686174803432	0.014271453322
1	9062	84.700446256754	0.046762987632
1	9067	84.747209244386	0.028797202197
1	9072	84.776006446583	0.046345691795
1	9078	84.822352138378	0.054503920784
1	9083	84.876856059162	0.038845715776
1	9088	84.915701774938	0.268637325916
1	9096	85.184339100854	0.021377292274
1	9101	85.205716393128	0.066327864079
1	9106	85.272044257207	0.101482904439
1	9111	85.373527161646	0.01557091735
1	9116	85.389098078996	0.004170121683
1	9118	85.393268200679	0.153262935571
1	9126	85.54653113625	0.168625218545
1	9131	85.715156354795	0.004215908925
1	9133	85.71937226372	0.013114998518
1	9141	85.732487262238	0.101945133409
1	9147	85.834432395647	0.084163533377
1	9153	85.918595929024	0.185127663996
1	9160	86.10372359302	0.004451117704
1	9162	86.108174710724	0.016874777438
1	9170	86.125049488162	0.130873464406
1	9175	86.255922952568	0.016850201906
1	9180	86.272773154474	0.04200281311
1	9185	86.314775967584	0.019253785533
1	9190	86.334029753117	0.11516735998
1	9196	86.449197113097	0.004752079687
1	9198	86.453949192784	0.02109530861
1	9206	86.475044501394	0.003338722622
1	9208	86.478383224016	0.135877612477
1	9217	86.614260836493	0.11317060677
1	9222	86.727431443263	0.008445077053
1	9227	86.735876520316	0.015827014092
1	9232	86.751703534408	0.057936135468
1	9237	86.809639669876	0.016905963598
1	9242	86.826545633474	0.031238723381
1	9247	86.857784356855	0.020522466368
1	9252	86.878306823223	0.003090767049
1	9254	86.881397590272	0.035128279106
1	9262	86.916525869378	0.079800018097
1	9267	86.996325887475	0.036839780359
1	9272	87.033165667834	0.038565234484
1	9277	87.071730902318	0.038241815197
1	9283	87.109972717515	0.015052460514
1	9288	87.125025178029	0.037808019953
1	9293	87.162833197982	0.014029200417
1	9298	87.176862398399	0.019629935755
1	9305	87.196492334154	0.041114011923
1	9311	87.237606346077	0.093475690478
1	9317	87.331082036555	0.025104206045
1	9322	87.3561862426	0.015712057098
1	9327	87.371898299698	0.016826698939
1	9332	87.388724998637	0.002310030055
1	9334	87.391035028692	0.031279799827
1	9342	87.422314828519	0.034822722702
1	9347	87.457137551221	0.031831091673
1	9352	87.488968642894	0.094808957103
1	9359	87.583777599997	0.008103349063
1	9364	87.59188094906	0.008674465883
1	9369	87.600555414943	0.137907985135
1	9376	87.738463400078	0.007886127511
1	9381	87.746349527589	0.005395313177
1	9384	87.751744840766	0.011793144173
1	9393	87.763537984939	0.151267765997
1	9400	87.914805750936	0.00336847315
1	9402	87.918174224086	0.101052972256
1	9410	88.019227196342	0.012638472404
1	9415	88.031865668746	0.040175549435
1	9420	88.072041218181	0.061137772286
1	9425	88.133178990467	0.054979688055
1	9431	88.188158678522	0.021847618773
1	9436	88.210006297295	0.018403410648
1	9441	88.228409707943	0.068577687606
1	9446	88.296987395549	0.120305830064
1	9453	88.417293225613	0.029216287888
1	9458	88.446509513501	0.006507973829
1	9461	88.45301748733	0.005317277848
1	9466	88.458334765178	0.053431512572
1	9476	88.51176627775	0.041308565946
1	9481	88.553074843696	0.092170423296
1	9488	88.645245266992	0.018336189641
1	9493	88.663581456633	0.031963240377
1	9498	88.69554469701	0.002955325567
1	9500	88.698500022577	0.032179409992
1	9509	88.730679432569	0.054275519408
1	9514	88.784954951977	0.01556152418
1	9519	88.800516476157	0.01411969952
1	9524	88.814636175677	0.051458410823
1	9529	88.8660945865	0.033363815856
1	9534	88.899458402356	0.030589002225
1	9539	88.930047404581	0.00487285672
1	9542	88.934920261301	0.001006019815
1	9544	88.935926281116	0.034612049068
1	9555	88.970538330184	0.024746946288
1	9560	88.995285276472	0.151266658469
1	9566	89.146551934941	0.051102005431
1	9571	89.197653940372	0.10434108815
1	9577	89.301995028522	0.012113674992
1	9582	89.314108703514	0.026691237697
1	9587	89.340799941211	0.009087052196
1	9593	89.349886993407	0.00438867909
1	9595	89.354275672497	0.040895054053
1	9603	89.39517072655	0.02406184192
1	9608	89.41923256847	0.028264142572
1	9613	89.447496711042	0.092641934514
1	9618	89.540138645556	0.006426879083
1	9620	89.546565524639	0.075691238431
1	9628	89.62225676307	0.053978029587
1	9634	89.676234792657	0.188001498698
1	9639	89.864236291355	0.020630522615
1	9644	89.88486681397	0.085416333008
1	9649	89.970283146978	0.011080844199
1	9654	89.981363991177	0.065340866369
1	9659	90.046704857546	0.014692047858
1	9664	90.061396905404	0.010822506751
1	9669	90.072219412155	0.117164684351
1	9674	90.189384096506	0.08153182588
1	9679	90.270915922386	0.036695559104
1	9684	90.30761148149	0.009179494382
1	9689	90.316790975872	0.000275164341
1	9691	90.317066140213	0.028107011256
1	9699	90.345173151469	0.067256427238
1	9704	90.412429578707	0.006233699659
1	9706	90.418663278366	0.121510319185
1	9716	90.540173597551	0.02806191733
1	9721	90.568235514881	0.015016951935
1	9726	90.583252466816	0.138056386004
1	9732	90.72130885282	0.033197968276
1	9738	90.754506821096	0.019972522002
1	9743	90.774479343098	0.06885932694
1	9749	90.843338670038	0.122077068968
1	9754	90.965415739006	0.104888184572
1	9759	91.070303923578	0.012594642645
1	9764	91.082898566223	0.042126481556
1	9770	91.125025047779	0.097473190826
1	9776	91.222498238605	0.017524053616
1	9781	91.240022292221	0.000341880398
1	9783	91.240364172619	0.069719792014
1	9792	91.310083964633	0.001743577034
1	9794	91.311827541667	0.028816844007
1	9803	91.340644385674	0.029928720271
1	9808	91.370573105945	0.013778206359
1	9813	91.384351312304	0.144393170001
1	9818	91.528744482305	0.00494131898
1	9820	91.533685801285	0.120669932271
1	9828	91.654355733556	0.124341195581
1	9835	91.778696929137	0.037321635989
1	9840	91.816018565126	0.011036584818
1	9845	91.827055149944	0.089173432469
1	9852	91.916228582413	0.04486205881
1	9859	91.961090641223	0.021592122188
1	9864	91.982682763411	0.124289590546
1	9869	92.106972353957	0.041027779609
1	9877	92.148000133566	0.150937680175
1	9884	92.298937813741	0.005626296634
1	9887	92.304564110375	0.023833360361
1	9895	92.328397470736	0.291605244452
1	9901	92.620002715188	0.001124976715
1	9903	92.621127691903	0.012674102855
1	9908	92.633801794758	0.024042234441
1	9916	92.657844029199	0.020981910078
1	9922	92.678825939277	0.001593801602
1	9924	92.680419740879	0.072081323714
1	9933	92.752501064593	0.025902816221
1	9938	92.778403880814	0.015373464398
1	9943	92.793777345212	0.077226847028
1	9948	92.87100419224	0.140776963721
1	9955	93.011781155961	0.00213910572
1	9957	93.013920261681	0.121438980979
1	9965	93.13535924266	0.013132234213
1	9970	93.148491476873	0.057785706791
1	9976	93.206277183664	0.009538821413
1	9981	93.215816005077	0.011318608069
1	9987	93.227134613146	0.079123286333
1	9992	93.306257899479	0.025700846162
1	9997	93.331958745641	0.14343718456
1	10004	93.475395930201	0.079037766637
1	10009	93.554433696838	0.051369122107
1	10014	93.605802818945	0.129306032866
1	10019	93.735108851811	0.041038544266
1	10024	93.776147396077	0.066362569717
1	10030	93.842509965794	0.279850994616
1	10036	94.12236096041	0.084677938462
1	10042	94.207038898872	0.006337105439
1	10044	94.213376004311	0.127496533065
1	10052	94.340872537376	0.164757461393
1	10057	94.505629998769	0.00698095007
1	10059	94.512610948839	0.007670958287
1	10064	94.520281907126	0.072782360802
1	10072	94.593064267928	0.144533619582
1	10080	94.73759788751	0.034670024687
1	10085	94.772267912197	0.106201305344
1	10092	94.878469217541	0.012540693121
1	10097	94.891009910662	0.090472420856
1	10102	94.981482331518	0.018459358217
1	10108	94.999941689735	0.029042999868
1	10113	95.028984689603	0.042724687066
1	10119	95.071709376669	0.067720503969
1	10126	95.139429880638	0.14242508847
1	10132	95.281854969108	0.016969444618
1	10137	95.298824413726	0.002753519287
1	10139	95.301577933013	0.099773674182
1	10150	95.401351607195	0.010923755685
1	10155	95.41227536288	0.078890812144
1	10160	95.491166175024	0.085789505749
1	10167	95.576955680773	0.151323249287
1	10174	95.72827893006	0.002829700143
1	10176	95.731108630203	0.214135322344
1	10184	95.945243952547	0.019951361372
1	10189	95.965195313919	0.025837226299
1	10195	95.991032540218	0.073517038637
1	10201	96.064549578855	0.016897413942
1	10206	96.081446992797	0.069275374869
1	10212	96.150722367666	0.033974615516
1	10217	96.184696983182	0.092583331998
1	10222	96.27728031518	0.066495847808
1	10227	96.343776162988	0.005749562139
1	10229	96.349525725127	0.104540653957
1	10237	96.454066379084	0.049667669132
1	10243	96.503734048216	0.037249157364
1	10248	96.54098320558	0.021954698214
1	10253	96.562937903794	0.063441160121
1	10259	96.626379063915	0.016565296513
1	10264	96.642944360428	0.088183792266
1	10269	96.731128152694	0.052060608399
1	10275	96.783188761093	0.087431114447
1	10280	96.87061987554	0.086733548716
1	10285	96.957353424256	0.123285397029
1	10291	97.080638821285	0.102810958905
1	10298	97.18344978019	0.021906218709
1	10303	97.205355998899	0.096732670542
1	10308	97.302088669441	0.110077600401
1	10315	97.412166269842	0.006885738906
1	10317	97.419052008748	0.003904448718
1	10322	97.422956457466	0.067430892518
1	10330	97.490387349984	0.01233785
1	10336	97.502725199984	0.012034109967
1	10341	97.514759309951	0.020211982062
1	10346	97.534971292013	0.011656596152
1	10351	97.546627888165	0.052855925788
1	10356	97.599483813953	0.000784204977
1	10358	97.60026801893	0.004501396109
1	10360	97.604769415039	0.006445725178
1	10365	97.611215140217	0.126409305436
1	10376	97.737624445653	0.059131002475
1	10382	97.796755448128	0.013518263198
1	10387	97.810273711326	0.00320355433
1	10389	97.813477265656	0.128584418468
1	10397	97.942061684124	0.048854513311
1	10403	97.990916197435	0.014562132945
1	10408	98.00547833038	0.020573549487
1	10413	98.026051879867	0.011170650901
1	10418	98.037222530768	0.117035832231
1	10424	98.154258362999	0.015891161582
1	10429	98.170149524581	0.002497727578
1	10431	98.172647252159	0.011886300435
1	10436	98.184533552594	0.034401330811
1	10444	98.218934883405	0.015748445972
1	10449	98.234683329377	0.007485183856
1	10451	98.242168513233	0.162355678073
1	10461	98.404524191306	0.06482242821
1	10466	98.469346619516	0.047375574228
1	10471	98.516722193744	0.121835845614
1	10478	98.638558039358	0.008980296132
1	10483	98.64753833549	0.061744315304
1	10490	98.709282650794	0.029946139832
1	10495	98.739228790626	0.02691176404
1	10501	98.766140554666	0.02091952002
1	10506	98.787060074686	0.037019332915
1	10511	98.824079407601	0.02920916776
1	10516	98.853288575361	0.042035141828
1	10521	98.895323717189	0.017164538491
1	10526	98.91248825568	0.003655986729
1	10528	98.916144242409	0.051117959229
1	10537	98.967262201638	0.021687092243
1	10542	98.988949293881	0.015421327103
1	10547	99.004370620984	0.03430371851
1	10552	99.038674339494	0.08478463671
1	10558	99.123458976204	0.02484510745
1	10563	99.148304083654	0.009289761505
1	10568	99.157593845159	0.025379193477
1	10573	99.182973038636	0.060677859458
1	10578	99.243650898094	0.066520061702
1	10583	99.310170959796	0.135256132562
1	10589	99.445427092358	0.026359480791
1	10594	99.471786573149	0.193776491109
1	10599	99.665563064258	0.019933716967
1	10604	99.685496781225	0.019114822191
1	10609	99.704611603416	0.140981535371
1	10614	99.845593138787	0.048718592797
1	10619	99.894311731584	0.140517798806
1	10626	100.03482953039	0.089451576676
1	10631	100.124281107066	0.118740714021
1	10637	100.243021821087	0.03436752377
1	10642	100.277389344857	0.027631708694
1	10647	100.305021053551	0.02906199416
1	10653	100.334083047711	0.087747660594
1	10658	100.421830708305	0.071131429852
1	10664	100.492962138157	0.125683457937
1	10670	100.618645596094	0.024966193089
1	10676	100.643611789183	0.015645277282
1	10681	100.659257066465	0.03256960642
1	10686	100.691826672885	0.047619704496
1	10691	100.739446377381	0.021466301435
1	10696	100.760912678816	0.045138339804
1	10703	100.80605101862	0.023528188959
1	10708	100.829579207579	0.047281769532
1	10713	100.876860977111	0.029682458351
1	10718	100.906543435462	0.010039207591
1	10723	100.916582643053	0.029429159585
1	10728	100.946011802638	0.11118855731
1	10734	101.057200359948	0.143098943925
1	10739	101.200299303873	0.008076258373
1	10744	101.208375562246	0.017401266541
1	10750	101.225776828787	0.039564566438
1	10757	101.265341395225	0.082394129117
1	10762	101.347735524342	0.010879394086
1	10767	101.358614918428	0.168337032441
1	10774	101.526951950869	0.053130493767
1	10779	101.580082444636	0.002917385591
[...]
19	15549	143.600692579553	1.4971345292276
19	15661	145.097827108781	1.3874590508383
19	15808	146.485286159619	1.1340838000092
19	15950	147.619369959628	3.3922569351693
19	16342	151.011626894797	2.1012038318314
19	16555	153.112830726628	0.36838217399709
19	16590	153.481212900625	2.2462192647534
19	16776	155.727432165378	0.18162259053335
19	16800	155.909054755911	0.28367824599514
19	16827	156.192733001906	0.50390131152608
19	16921	156.696634313432	1.7110987323301
19	17077	158.407733045762	0.44352080914781
19	17107	158.85125385491	0.22800886074074
19	17133	159.079262715651	0.62462743061472
19	17196	159.703890146266	2.2413836284756
19	17470	161.945273774742	1.0871847340525
19	17556	163.032458508794	2.1882413515571
19	17777	165.220699860351	0.52331908605402
19	17810	165.744018946405	2.2362693393696
19	18038	167.980288285775	0.9576532241732
19	18110	168.937941509948	1.6962359917276
19	18277	170.634177501676	3.4971827791528
19	18704	174.131360280829	0.2327377499147
19	18753	174.364098030744	0.013403576754127
19	18759	174.377501607498	0.19843801758648
19	18772	174.575939625084	3.4405880100417
19	19065	178.016527635126	4.8074748710968
19	19621	182.824002506223	0.68008222693384
19	19682	183.504084733157	0.87487485582873
19	19766	184.378959588986	1.3710054125791
19	19919	185.749965001565	0.35190675101423
19	19952	186.101871752579	7.9141148723884
19	20812	194.015986624967	0.83999557125545
19	20867	194.855982196222	0.64772656653797
19	20968	195.50370876276	6.5634831957713
19	21618	202.067191958531	1.1096572844584
19	21739	203.176849242989	2.2745557534656
19	22000	205.451404996455	11.687388405228
19	23278	217.138793401683	7.9362304617329
19	24161	225.075023863416	0.3073396827579
19	24199	225.382363546174	1.1762483874362
19	24335	226.55861193361	6.160467803189
19	25058	232.719079736799	5.4213284080208
19	25639	238.14040814482	2.402779696888
19	25920	240.543187841708	1.8743905627758
19	26126	242.417578404484	0.87443472455748
19	26201	243.292013129041	1.5169308654
19	26340	244.808943994441	0.58786996436832
19	26413	245.396813958809	4.9250367371118
19	26967	250.321850695921	5.4173331318114
19	27565	255.739183827732	0.8052340889276
19	27688	256.54441791666	2.9599621091404
19	27983	259.5043800258	0.1574982971256
19	28000	259.661878322926	0.031753803400024
19	28001	259.693632126326	6.0657124341915
19	28623	265.759344560517	0.64243226446504
19	28695	266.401776824982	4.2199757367474
19	29194	270.621752561729	1.5410383098353
19	29393	272.162790871564	1.6824590506156
19	29595	273.84524992218	0.35358914860673
19	29618	274.198839070787	2.5182663889089
19	29885	276.717105459696	5.8087667047336
19	30461	282.52587216443	3.3877598074985
19	30937	285.913631971929	8.8339682815331
19	31898	294.747600253462	0.31800784498371
19	31939	295.065608098446	0.84896130652503
19	32055	295.914569404971	2.4484470294646
19	32309	298.363016434436	2.2959703906939
19	32536	300.65898682513	1.5694133192007
19	32707	302.228400144331	0.84484695646397
19	32778	303.073247100795	0.97140228608285
19	32871	304.044649386878	5.1672990275767
19	33489	309.211948414455	2.2020439684633
19	33720	311.413992382918	2.043292128384
19	33914	313.457284511302	1.0993826417156
19	34043	314.556667153018	9.1901197062148
19	34960	323.746786859233	1.0317787361592
19	35087	324.778565595392	3.8388406490713
19	35470	328.617406244463	0.39327154242761
19	35514	329.010677786891	1.2410265540455
19	35628	330.251704340937	0.20290422293326
19	35664	330.45460856387	2.3457520203594
19	35873	332.800360584229	0.39701262312708
19	35918	333.197373207356	2.9266797256208
19	36225	336.124052932977	0.90992753520901
19	36282	337.033980468186	1.571369318154
19	36461	338.60534978634	1.6415031260415
19	36606	340.246852912382	0.82357424063851
19	36680	341.070427153021	1.5576618277423
19	36825	342.628088980763	1.63207554581
19	36989	344.260164526573	1.3616299107453
19	37179	345.621794437318	1.9540598034017
19	37375	347.57585424072	0.97886120415598
19	37481	348.554715444876	1.4224630310626
19	37638	349.977178475939	0.35402604835884
19	37672	350.331204524298	0.88220468100064
19	37797	351.213409205299	5.9667669177732
19	38441	357.180176123072	0.46329886282614
19	38494	357.643474985898	3.7793695894474
19	38946	361.422844575345	0.36818385855254
19	38990	361.791028433898	0.16654346886068
19	39018	361.957571902759	0.019444062582024
19	39019	361.977015965341	0.49595176390693
19	39046	362.472967729248	1.5665335178992
19	39170	364.039501247147	4.6159257281657
19	39718	368.655426975313	1.4385950282579
19	39893	370.094022003571	3.6884272101467
19	40263	373.782449213718	0.10752127728801
19	40285	373.889970491006	0.66377320938453
19	40372	374.553743700391	0.37303355655136
19	40402	374.926777256942	0.86899443426353
19	40530	375.795771691206	0.71556065494546
19	40580	376.511332346151	4.2996094096769
19	40958	380.810941755828	4.337308695487
19	41440	385.148250451315	1.8538549817301
19	41640	387.002105433045	0.28892118578547
19	41692	387.29102661883	0.4223240906608
19	41738	387.713350709491	6.4818275130359
19	42372	394.195178222527	4.1487545819389
19	42772	398.343932804466	1.156187511551
19	42897	399.500120316017	1.1507768317566
20	1230	12.418900997072	5.7587810823776
20	1892	18.17768207945	0.5533950135007
20	1969	18.731077092951	3.2670206770583
20	2339	21.998097770009	1.3001286163577
20	2460	23.298226386367	2.0457487621457
20	2670	25.343975148513	0.75499404168773
20	2761	26.098969190201	3.1529325019231
20	3028	29.251901692124	0.30482965754919
20	3081	29.556731349673	6.0673798906021
20	3824	35.624111240275	0.029930511872722
20	3826	35.654041752148	0.31494368067381
20	3885	35.968985432822	0.2848833454046
20	3906	36.253868778227	1.6039014412875
20	4055	37.857770219515	2.8461787872284
20	4388	40.703949006743	0.33713589439565
20	4413	41.041084901139	3.0706592819865
20	4713	44.111744183126	4.2260616838096
20	5163	48.337805866936	2.6503747524403
20	5460	50.988180619376	1.3521707706661
20	5579	52.340351390042	1.3933570236391
20	5753	53.733708413681	1.265883671152
20	5926	54.999592084833	0.23623059187878
20	5949	55.235822676712	0.96187472253002
20	6047	56.197697399242	1.5581025761808
20	6214	57.755799975423	1.3854326785085
20	6390	59.141232653931	0.51998227748015
20	6419	59.661214931411	1.6184905605106
20	6619	61.279705491922	0.055271488298417
20	6625	61.33497698022	1.5965915802285
20	6808	62.931568560449	0.44800298005818
20	6873	63.379571540507	1.6062269368525
20	7021	64.985798477359	1.159774662815
20	7172	66.145573140174	1.7099756050554
20	7356	67.855548745229	0.41463062203119
20	7395	68.27017936726	0.54639016452313
20	7457	68.816569531783	1.1733759911272
20	7575	69.98994552291	1.2977608552662
20	7743	71.287706378176	0.68381352082363
20	7812	71.971519899	2.5664560324692
20	8052	74.537975931469	1.2941510290597
20	8170	75.832126960529	1.0164584940274
20	8297	76.848585454556	0.27137342544763
20	8324	77.119958880004	3.8290777391196
20	8670	80.949036619124	2.694442134918
20	8963	83.643478754042	4.0483894939353
20	9375	87.691868247977	1.2421444109142
20	9541	88.934012658891	2.3996669852395
20	9802	91.333679644131	0.77717997517467
20	9872	92.110859619306	5.6523373675048
20	10381	97.763196986811	6.0199938805945
20	11029	103.783190867405	1.3393906388618
20	11191	105.122581506267	3.2167544759277
20	11629	108.339335982195	0.23315024485352
20	11646	108.572486227049	1.1925645036685
20	11771	109.765050730717	0.087446090303472
20	11773	109.85249682102	0.49576484965834
20	11799	110.348261670678	8.9807983865599
20	12799	119.329060057238	0.67540479113145
20	12863	120.004464848369	1.2147310105109
20	12993	121.21919585888	1.7005506466026
20	13222	122.919746505483	0.2928962879582
20	13249	123.212642793441	3.7499271415215
20	13673	126.962569934962	1.5645803506405
20	13795	128.527150285603	0.91462288978861
20	13874	129.441773175392	1.5041397635442
20	14031	130.945912938936	1.0918658692159
20	14209	132.037778808152	3.6549585460685
20	14637	135.692737354221	0.34851242870741
20	14677	136.041249782928	2.3961545604342
20	14911	138.437404343362	2.9709950535205
20	15299	141.408399396883	0.61189454779055
20	15386	142.020293944674	3.6148271431384
20	15712	145.635121087812	2.3781007356654
20	15997	148.013221823477	0.084177036420559
20	16008	148.097398859898	0.66037518192765
20	16102	148.757774041826	1.6033211898238
20	16285	150.36109523165	8.0369498127369
20	17076	158.398045044387	0.98053839254881
20	17169	159.378583436936	2.8730035871351
20	17480	162.251587024071	2.6563884237002
20	17756	164.907975447771	0.63989522048175
20	17794	165.547870668253	0.43873954930726
20	17822	165.98661021756	0.54756802904354
20	17879	166.534178246604	5.0399598271591
20	18351	171.574138073763	1.3364084407351
20	18591	172.910546514498	0.46286614900586
20	18614	173.373412663504	5.4892931518013
20	19153	178.862705815305	0.86231594426539
20	19205	179.72502175957	2.389152035954
20	19533	182.114173795524	6.8546804624544
20	20293	188.968854257978	0.63103403255432
20	20339	189.599888290532	2.7350258989152
20	20632	192.334914189447	0.33859270060647
20	20670	192.673506890053	0.44633132568922
20	20716	193.119838215742	0.26487136395275
20	20742	193.384709579695	6.1278704878536
20	21356	199.512580067549	13.319994824956
20	22758	212.832574892505	1.1229565841321
20	22901	213.955531476637	0.3306047809329
20	22938	214.28613625757	0.12876691901516
20	22956	214.414903176585	2.9220579008918
20	23295	217.336961077477	0.99607131850762
20	23397	218.333032395985	6.043441743042
20	24101	224.376474139027	1.8910381312087
20	24312	226.267512270236	4.9091278770504
20	24874	231.176640147286	1.5087258762217
20	25054	232.685366023508	0.87565606780139
20	25135	233.561022091309	0.088860917693563
20	25142	233.649883009003	0.69622146920101
20	25227	234.346104478204	1.8256684379351
20	25418	236.171772916139	4.9401337664914
20	25986	241.11190668263	2.2412527865262
20	26208	243.353159469156	3.0279676525153
20	26527	246.381127121671	1.2777375788794
20	26667	247.65886470055	1.4780130967417
20	26821	249.136877797292	3.8652517779949
20	27248	253.002129575287	3.9487992102044
20	27731	256.950928785491	2.2254782263459
20	27940	259.176407011837	6.668162340848
20	28644	265.844569352685	0.26234973420421
20	28661	266.106919086889	2.9900385627472
20	28998	269.096957649636	0.44669045824491
20	29050	269.543648107881	3.819758953699
20	29537	273.36340706158	6.8063283521239
20	30196	280.169735413704	1.5993175257088
20	30353	281.769052939413	0.27284064252807
20	30374	282.041893581941	0.09229620261408
20	30385	282.134189784555	0.90329263678838
20	30541	283.037482421343	1.9934157413921
20	30822	285.030898162735	0.36480453506794
20	30899	285.395702697803	0.71082943203716
20	30961	286.10653212984	1.0922040108307
20	31060	287.198736140671	0.58261039896652
20	31122	287.781346539638	0.54181687877018
20	31175	288.323163418408	0.43905929745537
20	31207	288.762222715863	1.4667630541656
20	31415	290.228985770029	0.269919196291
20	31434	290.49890496632	2.5841861876814
20	31655	293.083091154001	2.6844327675418
20	32033	295.767523921543	0.9631794355976
20	32119	296.730703357141	0.94140008253859
20	32220	297.67210343968	1.3752671643021
20	32378	299.047370603982	0.89884980035395
20	32491	299.946220404336	2.0151205576885
20	32681	301.961340962024	1.04188431475
20	32777	303.003225276774	4.3906283305193
20	33272	307.393853607293	1.1723719755787
20	33391	308.566225582872	2.8575739390586
20	33721	311.423799521931	1.0230600792147
20	33804	312.446859601146	7.4349998875259
20	34588	319.881859488672	5.8588056733255
20	35170	325.740665161998	1.7133001849047
20	35337	327.453965346903	0.91491440288618
20	35423	328.368879749789	0.58788165146601
20	35500	328.956761401255	2.1808948739504
20	35710	331.137656275205	0.33807476128749
20	35741	331.475731036492	1.166045380748
20	35863	332.64177641724	0.11406157546362
20	35871	332.755837992704	5.7870884715608
20	36455	338.542926464265	9.0111167082436
20	37374	347.554043172509	0.2370761625944
20	37405	347.791119335103	0.5663051712645
20	37469	348.357424506368	2.6170351919236
20	37747	350.974459698292	6.2776337547066
20	38459	357.252093452999	7.6477501178686
20	39263	364.899843570868	7.2175416208056
20	40100	372.117385191674	2.030283224922
20	40309	374.147668416596	0.54723903189884
20	40383	374.694907448495	4.8945031586577
20	40824	379.589410607153	0.94962546217003
20	40927	380.539036069323	0.75015816776825
20	41010	381.289194237091	17.175890700501
20	42793	398.465084937592	1.7365433884191
21	1497	14.892663064878	1.0517570309556
21	1648	15.944420095834	3.4622926050515
21	2019	19.406712700886	3.4857659524935
21	2411	22.89247865338	0.48263452027237
21	2466	23.375113173652	0.46726865751483
21	2522	23.842381831167	1.2589860252742
21	2638	25.101367856441	4.0602695824055
21	3018	29.161637438846	0.56108425280358
21	3105	29.72272169165	1.9953051635522
21	3369	31.718026855202	1.423464348117
21	3550	33.141491203319	4.489714553439
21	4038	37.631205756758	2.1050080575098
21	4293	39.736213814268	0.24378081322937
21	4315	39.979994627497	4.4185419877
21	4735	44.398536615197	0.40990785716548
21	4795	44.808444472362	1.4755536786853
21	4932	46.283998151047	0.5169754124325
21	4980	46.80097356348	1.0277631842437
21	5108	47.828736747724	3.8100248909902
21	5514	51.638761638714	2.3391357281803
21	5781	53.977897366894	3.5472828219757
21	6196	57.52518018887	1.0791650361578
21	6359	58.604345225028	0.50362270330284
21	6388	59.107967928331	2.1210075354997
21	6617	61.228975463831	0.20023797002916
21	6637	61.42921343386	0.78197803398552
21	6733	62.211191467846	3.263799385759
21	7080	65.474990853605	0.31994902431505
21	7131	65.79493987792	5.3351066311792
21	7727	71.130046509099	1.0824940477963
21	7841	72.212540556895	2.2104042774023
21	8036	74.422944834297	2.7590004767225
21	8325	77.181945311019	0.54630674865841
21	8383	77.728252059677	4.3722276310287
21	8803	82.100479690706	2.2933181135971
21	9042	84.393797804303	0.64751363325664
21	9094	85.04131143756	6.0874107205515
21	9772	91.128722158112	4.4020788260697
21	10165	95.530800984182	5.6918438088339
21	10749	101.222644793016	3.4988354191824
21	11111	104.721480212198	3.3403911094951
21	11593	108.061871321693	0.84802773357928
21	11667	108.909899055272	0.62930998482149
21	11740	109.539209040093	1.4474316772547
21	11869	110.986640717348	0.47470260443999
21	11944	111.461343321788	3.3388270089319
21	12281	114.80017033072	0.58481210938099
21	12365	115.384982440101	0.67495243893925
21	12450	116.05993487904	1.5032160252904
21	12595	117.56315090433	2.1505701131042
21	12832	119.713721017434	0.84141189856968
21	12934	120.555132916004	2.0127684536673
21	13155	122.567901369671	2.0790163330689
21	13374	124.64691770274	0.65072787279791
21	13448	125.297645575538	0.51540414890745
21	13543	125.813049724445	0.26235991537638
21	13569	126.075409639821	8.9357664284244
21	14532	135.011176068245	0.86707243615269
21	14665	135.878248504398	1.3651121459368
21	14797	137.243360650335	1.5902303833762
21	14960	138.833591033711	0.64679820139133
21	15059	139.480389235102	3.8640921133367
21	15526	143.344481348439	3.2450079833583
21	15824	146.589489331797	0.848910541493
21	15932	147.43839987329	1.840140049836
21	16171	149.278539923126	0.40140824641184
21	16214	149.679948169538	6.9729963891278
21	16917	156.652944558666	1.2458916831271
21	17040	157.898836241793	5.2464234609675
21	17574	163.145259702761	2.2030143958727
21	17788	165.348274098634	1.0555682987148
21	17870	166.403842397349	1.6971238604562
21	18045	168.100966257805	2.8225805023067
21	18316	170.923546760112	4.4313625826657
21	18855	175.354909342778	1.7281724188615
21	18996	177.08308176164	0.51994130220736
21	19024	177.603023063847	3.6356460248853
21	19378	181.238669088732	6.1297908652933
21	20085	187.368459954025	0.63558174999635
21	20171	188.004041704021	3.3782626567587
21	20546	191.38230436078	1.8155393515253
21	20727	193.197843712305	1.9867110530797
21	20924	195.184554765385	1.7790018678153
21	21124	196.9635566332	2.2849111812562
21	21334	199.248467814456	0.30815339232902
21	21362	199.556621206785	1.366006423348
21	21507	200.922627630133	2.8530328759292
21	21799	203.775660506062	1.365538421478
21	21976	205.14119892754	0.14277388003929
21	21989	205.283972807579	0.30137827362907
21	22011	205.585351081208	1.010745731394
21	22102	206.596096812602	1.5222871937225
21	22279	208.118384006324	0.8453544236338
21	22361	208.963738429958	4.351963382275
21	22836	213.315701812233	1.0457810137555
21	22944	214.361482825988	3.7304050100814
21	23373	218.091887836069	1.7104827284499
21	23556	219.802370564519	2.6475913626031
21	23859	222.449961927122	1.1841706650096
21	24014	223.634132592132	0.0021488853849792
21	24015	223.636281477517	0.075915614836601
21	24032	223.712197092354	1.1011958987426
21	24136	224.813392991097	0.95331744035903
21	24238	225.766710431456	1.3711697576355
21	24408	227.137880189092	1.9197805550584
21	24620	229.05766074415	1.5129955712618
21	24805	230.570656315412	0.29616367378468
21	24828	230.866819989197	3.4283410342212
21	25222	234.295161023418	0.96350651112754
21	25310	235.258667534546	1.4049310372379
21	25467	236.663598571784	0.46954856627867
21	25519	237.133147138063	1.4109434874748
21	25690	238.544090625538	1.1201722279521
21	25833	239.66426285349	0.50195377295142
21	25889	240.166216626441	2.8686541823901
21	26174	243.034870808831	1.8024479411791
21	26349	244.83731875001	4.1353863036947
21	26807	248.972705053705	0.32101582995262
21	26855	249.293720883658	0.4893088024753
21	26921	249.783029686133	5.4415233238226
21	27519	255.224553009956	6.0335989823017
21	28179	261.258151992258	0.75944221728939
21	28218	262.017594209547	5.6530503788044
21	28834	267.670644588351	0.36859703894835
21	28865	268.039241627299	1.8203321520125
21	29104	269.859573779312	0.088201463415122
21	29117	269.947775242727	2.0250542274041
21	29386	271.972829470131	0.40739321767131
21	29425	272.380222687802	2.8417108337506
21	29692	275.221933521553	1.4840562504674
21	29882	276.70598977202	0.11064974180833
21	29895	276.816639513828	5.7166932762932
21	30462	282.533332790121	1.4421810031004
21	30660	283.975513793221	1.7018859259898
21	30920	285.677399719211	0.22491698527449
21	30936	285.902316704485	2.5011795915456
21	31183	288.403496296031	1.4656755293641
21	31338	289.869171825395	3.3834994653851
21	31700	293.25267129078	0.320354601686
21	31751	293.573025892466	1.6680974098438
21	31952	295.24112330231	3.2591718976573
21	32317	298.500295199967	0.032413804442469
21	32320	298.532709004409	0.36959572204854
21	32361	298.902304726458	0.39175115090423
21	32419	299.294055877362	4.7790177834717
21	32872	304.073073660834	3.5689893235709
21	33289	307.642062984405	2.2642780548771
21	33594	309.906341039282	0.69690143494818
21	33663	310.60324247423	6.2569370550677
21	34274	316.860179529298	2.3862818925753
21	34541	319.246461421873	0.36967416657295
21	34574	319.616135588446	0.35880997444776
21	34603	319.974945562894	4.570307407871
21	35059	324.545252970765	5.9242666199298
21	35668	330.469519590695	0.35119884948149
21	35686	330.820718440176	1.4529464225989
21	35840	332.273664862775	0.35981636271665
21	35862	332.633481225492	7.2139468041125
21	36580	339.847428029604	0.27734639244602
21	36598	340.12477442205	2.6302428948674
21	36830	342.755017316917	7.1974857900845
21	37637	349.952503107001	2.0777965195998
21	37868	352.030299626601	6.5730756991333
21	38645	358.603375325734	2.8336402406535
21	38953	361.437015566387	0.39606934826041
21	38996	361.833084914647	0.86237407928924
21	39054	362.695458993936	0.11641235946506
21	39066	362.811871353401	12.933214837443
21	40528	375.745086190844	1.2901549879245
21	40627	377.035241178768	0.72583361238795
21	40679	377.761074791156	5.6613841271192
21	41215	383.422458918275	1.577956790825
21	41419	385.0004157091	0.17617446134075
21	41441	385.176590170441	1.5239494937463
21	41613	386.700539664187	0.33230744832982
21	41642	387.032847112517	0.19399059328551
21	41676	387.226837705803	0.63378037149237
21	41759	387.860618077295	2.1035413024033
21	41979	389.964159379698	1.1498653444529
21	42073	391.114024724151	2.4324138466435
21	42304	393.546438570794	2.1936600521502
21	42522	395.740098622944	0.058489268989371
21	42534	395.798587891933	2.1203014627843
21	42734	397.918889354717	3.1472001470062

