file 1735823 1614185372                                         
version 2
run Nonmonitoring-exponential-576-20210224-17:49:32-27097
attr configname Nonmonitoring-exponential
attr datetime 20210224-17:49:32
attr experiment Nonmonitoring-exponential
attr inifile aerocom.ini
attr iterationvars $0=50
attr iterationvarsf 50-
attr measurement $0=50
attr network Aerocom
attr processid 27097
attr repetition 76
attr replication #76
attr resultdir results
attr runnumber 576
attr seedset 76
param **.t 2s
param **.k 50ms
param **.X 0.05s
param **.m 1s
param **.tDistribution "\"exponential\""
param **.operationMode 1
param **.s "70 byte"
param **.dimPoolMax 10000
param **.dimPoolMin 8000
param **.nDL 16
param **.nA 1
param **.DLMaxCapacity 0
param **.trasmitting false

vector 0 Aerocom.aircraft[0].packetGenerator arrivalTime:vector ETV
attr "" ""
attr source computeArrivalTime
vector 1 Aerocom.aircraft[0].linkSelector waitingTime:vector ETV
attr "" ""
attr source computeWaitingTime
vector 2 Aerocom.aircraft[0].linkSelector queueLength:vector ETV
attr "" ""
attr source computeQueueLength
vector 3 Aerocom.aircraft[0].dataLink[13] actualCapacity:vector ETV
attr "" ""
attr source computeActualCapacity
vector 4 Aerocom.aircraft[0].linkSelector serviceTime:vector ETV
attr "" ""
attr source computeServiceTime
vector 5 Aerocom.aircraft[0].linkSelector responseTime:vector ETV
attr "" ""
attr source computeResponseTime
vector 6 Aerocom.aircraft[0].dataLink[3] tDistribution:vector ETV
attr "" ""
attr source computeTDistribution
vector 7 Aerocom.aircraft[0].dataLink[9] tDistribution:vector ETV
attr "" ""
attr source computeTDistribution
vector 8 Aerocom.aircraft[0].dataLink[0] tDistribution:vector ETV
attr "" ""
attr source computeTDistribution
vector 9 Aerocom.aircraft[0].dataLink[1] tDistribution:vector ETV
attr "" ""
attr source computeTDistribution
vector 10 Aerocom.aircraft[0].dataLink[14] tDistribution:vector ETV
attr "" ""
attr source computeTDistribution
vector 11 Aerocom.aircraft[0].dataLink[15] tDistribution:vector ETV
attr "" ""
attr source computeTDistribution
vector 12 Aerocom.aircraft[0].dataLink[12] tDistribution:vector ETV
attr "" ""
attr source computeTDistribution
vector 13 Aerocom.aircraft[0].dataLink[10] tDistribution:vector ETV
attr "" ""
attr source computeTDistribution
vector 14 Aerocom.aircraft[0].dataLink[2] tDistribution:vector ETV
attr "" ""
attr source computeTDistribution
vector 15 Aerocom.aircraft[0].dataLink[6] tDistribution:vector ETV
attr "" ""
attr source computeTDistribution
vector 16 Aerocom.aircraft[0].dataLink[13] tDistribution:vector ETV
attr "" ""
attr source computeTDistribution
vector 17 Aerocom.aircraft[0].dataLink[5] tDistribution:vector ETV
attr "" ""
attr source computeTDistribution
vector 18 Aerocom.aircraft[0].dataLink[7] tDistribution:vector ETV
attr "" ""
attr source computeTDistribution
vector 19 Aerocom.aircraft[0].dataLink[11] tDistribution:vector ETV
attr "" ""
attr source computeTDistribution
vector 20 Aerocom.aircraft[0].dataLink[8] tDistribution:vector ETV
attr "" ""
attr source computeTDistribution
vector 21 Aerocom.aircraft[0].dataLink[4] tDistribution:vector ETV
attr "" ""
attr source computeTDistribution
0	3134 305242 1167 43120 10.007825967916 399.92837534737 7759 4.02769e-06 0.603174137707 390.05646120234 39.52107852033
1	308376 220847 1168 43121 10.007825967916 399.92837534737 7759 0 0.02231962303 5.717109116671 0.037900406240854
2	529223 205259 1168 43121 10.007825967916 399.92837534737 7759 0 2 116 126
3	734482 228536 1168 43121 10.007825967916 399.92837534737 7759 8018 9986 69883505 630956714951
4	963018 336134 1168 43121 10.007825967916 399.92837534737 7759 0.0070098137392349 0.0087303566974308 60.450808422639 0.47214455171228
5	1299152 305279 1171 43122 10.015854411545 399.93619919894 7759 0.007010515774 0.030359131471 66.167917539333 0.59971284302025
6	1604431 7838 1202 42940 10.164476979408 398.524182566091 193 0.028583880424494 9.3051724943592 392.54206359262 1527.2039726383
7	1612269 8147 1218 43126 10.383123246919 399.955061334198 200 0.0017764767599749 10.217246598047 389.84475821249 1519.7774219314
8	1620416 8977 1228 42982 10.442123572724 398.927055302758 220 0.001880591323333 8.5346799496115 391.44104288157 1333.8972798622
9	1629393 8786 1245 42865 10.501724474759 397.948006159335 215 0.010836134972959 7.9082298317324 391.798435658 1300.2464935638
10	1638179 8295 1256 42828 10.596060479375 397.800490096096 199 0.0093825235337535 9.7470947964604 389.88261889297 1447.9280062913
11	1646474 7471 1262 42914 10.62255921471 398.34706452672 179 0.002229143289639 10.311098525651 391.48302262496 1740.2811114677
12	1653945 8607 1343 43031 11.121100835425 399.272466204212 206 0.013824213674632 9.0971571331558 390.22936050464 1351.4816167089
13	1662552 8659 1349 42659 11.144116940888 396.511993573634 207 0.0015218328052889 10.734242998226 391.21373731013 1532.6997947319
14	1671211 8015 1350 43066 11.169290246559 399.586526372914 192 0.014173641711227 10.013570120635 389.0575813643 1509.7941650491
15	1679226 8245 1424 42814 11.742352914263 397.659450739718 197 0.0029007789338575 11.409882302441 391.27257742094 1528.3881256244
16	1687471 9646 1430 43047 11.791823930588 399.382546113087 230 0.00020965915098245 16.536315624634 391.68897009959 1516.8891996718
17	1697117 7550 1455 43125 12.062272952319 399.941198847658 181 0.0016119632144951 8.7543515655507 388.83823298255 1380.7738521955
18	1704667 7858 1489 43084 12.321672378451 399.657993060131 188 0.021017532333205 8.9944709700817 389.67660642937 1515.5409170613
19	1712525 8331 1542 43003 12.790965296503 399.006648891412 199 0.0013868577616093 9.7824586816418 389.87174778753 1433.7544710202
20	1720856 7631 1628 43119 13.481749001081 399.911702150143 183 0.023972286328774 9.100613820929 394.40656218636 1505.0266657648
21	1728487 7335 1722 42881 14.116524638121 398.026532988204 176 0.0035986077498489 12.230398616211 386.59720785756 1652.8698081099

