version 2
run Nonmonitoring-exponential-540-20210224-17:49:32-27070
attr configname Nonmonitoring-exponential
attr datetime 20210224-17:49:32
attr experiment Nonmonitoring-exponential
attr inifile aerocom.ini
attr iterationvars $0=50
attr iterationvarsf 50-
attr measurement $0=50
attr network Aerocom
attr processid 27070
attr repetition 40
attr replication #40
attr resultdir results
attr runnumber 540
attr seedset 40
param **.t 2s
param **.k 50ms
param **.X 0.05s
param **.m 1s
param **.tDistribution "\"exponential\""
param **.operationMode 1
param **.s "70 byte"
param **.dimPoolMax 10000
param **.dimPoolMin 8000
param **.nDL 16
param **.nA 1
param **.DLMaxCapacity 0
param **.trasmitting false

vector 0 Aerocom.aircraft[0].dataLink[14] tDistribution:vector ETV
attr "" ""
attr source computeTDistribution
vector 1 Aerocom.aircraft[0].dataLink[5] tDistribution:vector ETV
attr "" ""
attr source computeTDistribution
vector 2 Aerocom.aircraft[0].packetGenerator arrivalTime:vector ETV
attr "" ""
attr source computeArrivalTime
vector 3 Aerocom.aircraft[0].linkSelector waitingTime:vector ETV
attr "" ""
attr source computeWaitingTime
vector 4 Aerocom.aircraft[0].linkSelector queueLength:vector ETV
attr "" ""
attr source computeQueueLength
vector 5 Aerocom.aircraft[0].dataLink[6] actualCapacity:vector ETV
attr "" ""
attr source computeActualCapacity
vector 6 Aerocom.aircraft[0].linkSelector serviceTime:vector ETV
attr "" ""
attr source computeServiceTime
vector 7 Aerocom.aircraft[0].linkSelector responseTime:vector ETV
attr "" ""
attr source computeResponseTime
vector 8 Aerocom.aircraft[0].dataLink[12] tDistribution:vector ETV
attr "" ""
attr source computeTDistribution
vector 9 Aerocom.aircraft[0].dataLink[10] tDistribution:vector ETV
attr "" ""
attr source computeTDistribution
vector 10 Aerocom.aircraft[0].dataLink[3] tDistribution:vector ETV
attr "" ""
attr source computeTDistribution
vector 11 Aerocom.aircraft[0].dataLink[11] tDistribution:vector ETV
attr "" ""
attr source computeTDistribution
vector 12 Aerocom.aircraft[0].dataLink[1] tDistribution:vector ETV
attr "" ""
attr source computeTDistribution
vector 13 Aerocom.aircraft[0].dataLink[8] tDistribution:vector ETV
attr "" ""
attr source computeTDistribution
vector 14 Aerocom.aircraft[0].dataLink[13] tDistribution:vector ETV
attr "" ""
attr source computeTDistribution
vector 15 Aerocom.aircraft[0].dataLink[4] tDistribution:vector ETV
attr "" ""
attr source computeTDistribution
vector 16 Aerocom.aircraft[0].dataLink[0] tDistribution:vector ETV
attr "" ""
attr source computeTDistribution
vector 17 Aerocom.aircraft[0].dataLink[6] tDistribution:vector ETV
attr "" ""
attr source computeTDistribution
vector 18 Aerocom.aircraft[0].dataLink[15] tDistribution:vector ETV
attr "" ""
attr source computeTDistribution
vector 19 Aerocom.aircraft[0].dataLink[9] tDistribution:vector ETV
attr "" ""
attr source computeTDistribution
vector 20 Aerocom.aircraft[0].dataLink[2] tDistribution:vector ETV
attr "" ""
attr source computeTDistribution
vector 21 Aerocom.aircraft[0].dataLink[7] tDistribution:vector ETV
attr "" ""
attr source computeTDistribution
0	1050	10.011938856429	8.3686952241252
0	1897	18.380634080554	0.96025172510089
0	2022	19.340885805655	2.9379932843699
0	2300	22.278879090025	0.40166600170614
0	2312	22.680545091731	0.15513506282866
0	2327	22.83568015456	0.5192032134731
0	2364	23.354883368033	0.20215875654313
0	2386	23.557042124576	5.1667356971206
0	2948	28.723777821697	1.0904072009382
0	3057	29.814185022635	1.6569880811576
0	3234	31.471173103793	0.56266260459957
0	3297	32.033835708393	0.50463765421924
0	3340	32.538473362612	3.1491918785484
0	3559	35.68766524116	1.4729188246473
0	3733	37.160584065807	0.071047562971996
0	3734	37.231631628779	2.3771369027665
0	3989	39.608768531545	1.1631885856807
0	4080	40.771957117226	3.0015515901123
0	4381	43.773508707338	1.6199065468974
0	4546	45.393415254235	1.757883784509
0	4751	47.151299038744	1.234284365529
0	4885	48.385583404273	0.81412284254777
0	4950	49.199706246821	0.29311494499574
0	4988	49.492821191817	0.69214239133467
0	5057	50.184963583152	2.7565791601383
0	5378	52.94154274329	2.0592128141239
0	5593	55.000755557414	0.1796777979814
0	5616	55.180433355395	1.2684478120336
0	5755	56.448881167429	0.23170946754732
0	5781	56.680590634976	1.058197245705
0	5925	57.738787880681	0.2641579278011
0	5946	58.002945808482	3.9870278106709
0	6382	61.989973619153	1.6774445608803
0	6566	63.667418180033	4.3728142671667
0	7021	68.0402324472	1.2277325665021
0	7201	69.267965013702	3.2974329320483
0	7608	72.56539794575	4.9743562686791
0	8054	77.539754214429	5.1752979524893
0	8597	82.715052166918	10.20432764257
0	9654	92.919379809488	0.45782733661811
0	9679	93.377207146106	0.86118705073615
0	9809	94.238394196842	5.069239575492
0	10275	99.307633772334	2.6321252765894
0	10554	101.939759048923	0.86799489859075
0	10618	102.807753947514	1.1122880114441
0	10719	103.920041958958	0.26966889677587
0	10730	104.189710855734	5.4730546551788
0	11382	109.662765510913	1.2992903670952
0	11494	110.962055878008	0.16432020206165
0	11525	111.12637608007	1.8623046602882
0	11719	112.988680740358	4.8146315120992
0	12141	117.803312252457	1.7804921362249
0	12325	119.583804388682	0.62670161292848
0	12390	120.21050600161	0.65782089555332
0	12480	120.868326897163	0.34884615136966
0	12546	121.217173048533	2.3529030911945
0	12849	123.570076139728	0.5753111067862
0	12898	124.145387246514	0.68223485939508
0	12948	124.827622105909	2.9358751481139
0	13252	127.763497254023	0.40822336110774
0	13297	128.171720615131	1.2128587504836
0	13407	129.384579365615	0.98406608219958
0	13524	130.368645447815	7.8905079389755
0	14323	138.259153386791	3.5228726012095
0	14694	141.782025988001	0.26277529150025
0	14727	142.044801279501	0.26959880746253
0	14757	142.314400086964	1.3583185108819
0	14930	143.672718597846	3.0887600321389
0	15313	146.761478629985	2.5353418391834
0	15565	149.296820469168	7.7391233929853
0	16496	157.035943862153	0.69495671114509
0	16566	157.730900573298	2.8026129281102
0	16888	160.533513501408	1.6355078158522
0	17128	162.16902131726	1.1561499106354
0	17215	163.325171227895	0.68701676906515
0	17317	164.01218799696	1.6467840730477
0	17519	165.658972070008	0.48727605225623
0	17545	166.146248122264	4.3228099743677
0	18039	170.469058096632	0.96433840852697
0	18192	171.433396505159	0.45870141837128
0	18244	171.89209792353	4.6540621442641
0	18829	176.546160067794	1.9511830792455
0	19061	178.497343147039	0.20428680785997
0	19073	178.701629954899	1.0101445683108
0	19149	179.71177452321	3.9271938802759
0	19564	183.638968403486	1.1560289080054
0	19695	184.794997311491	4.6151906502431
0	20144	189.410187961734	0.36289043978923
0	20174	189.773078401523	0.57622900900526
0	20248	190.349307410528	3.9198725894971
0	20788	194.269180000025	0.12361704735564
0	20814	194.392797047381	3.0783213036811
0	21104	197.471118351062	3.0342398792471
0	21383	200.505358230309	2.7786289450201
0	21659	203.283987175329	0.05448917746677
0	21665	203.338476352796	2.4010172563373
0	21888	205.739493609133	5.9752368277967
0	22495	211.71473043693	2.3390491593506
0	22752	214.053779596281	0.23880946445643
0	22768	214.292589060737	0.44390217509537
0	22810	214.736491235832	0.72662587388881
0	22908	215.463117109721	7.4525111643226
0	23657	222.915628274044	1.3573337090951
0	23855	224.272961983139	1.242341293381
0	24008	225.51530327652	5.4296811345949
0	24546	230.944984411115	3.9044905051352
0	24940	234.84947491625	1.9055096574764
0	25151	236.754984573726	0.72842360075928
0	25230	237.483408174485	0.7285905099378
0	25331	238.211998684423	0.89527450571862
0	25440	239.107273190142	0.36527821249801
0	25483	239.47255140264	2.2026869800452
0	25679	241.675238382685	2.1935077817413
0	25886	243.868746164426	0.32846399327807
0	25930	244.197210157704	0.61078598654831
0	25966	244.807996144252	5.6366602501817
0	26621	250.444656394434	2.9038985128755
0	27000	253.34855490731	0.23938681183021
0	27024	253.58794171914	1.4682615316998
0	27160	255.05620325084	0.76677271877367
0	27230	255.822975969614	0.86283423529822
0	27331	256.685810204912	0.055344133807695
0	27332	256.74115433872	0.7135087732961
0	27390	257.454663112016	4.3636392662049
0	27835	261.818302378221	0.41431891935128
0	27860	262.232621297572	0.061006864303678
0	27872	262.293628161876	0.2107044509451
0	27883	262.504332612821	0.493646341045
0	27916	262.997978953866	0.43382134263244
0	27954	263.431800296498	0.16357293902537
0	27996	263.595373235523	6.6655233303494
0	28775	270.260896565872	2.7301504661147
0	29094	272.991047031987	0.51349858024899
0	29139	273.504545612236	4.1556072773952
0	29566	277.660152889631	5.2057137401497
0	30138	282.865866629781	2.8438412499342
0	30417	285.709707879715	1.1307918607487
0	30513	286.840499740464	0.30507495890617
0	30556	287.14557469937	0.37400559766838
0	30592	287.519580297038	0.59520910512518
0	30645	288.114789402163	0.064120325154418
0	30651	288.178909727317	1.5457883953768
0	30817	289.724698122694	3.3683963960912
0	31247	293.093094518785	1.5719973288656
0	31370	294.665091847651	0.0054145980244246
0	31371	294.670506445675	0.51029738571365
0	31430	295.180803831389	0.95804369519117
0	31529	296.13884752658	0.90411299392979
0	31615	297.04296052051	1.2387518041398
0	31758	298.28171232465	0.89403417318525
0	31861	299.175746497835	1.2126574200476
0	31996	300.388403917883	0.43280279593785
0	32059	300.821206713821	8.2696809661925
0	32940	309.090887680014	1.4113994848852
0	33094	310.502287164899	1.6966793574573
0	33280	312.198966522356	0.29260993747945
0	33317	312.491576459835	5.4749693867205
0	33920	317.966545846556	2.3496139981311
0	34161	320.316159844687	0.031497589557085
0	34167	320.347657434244	3.3840326592079
0	34476	323.731690093452	1.5469024347634
0	34633	325.278592528215	4.7223586591401
0	35136	330.000951187355	1.1138328909308
0	35274	331.114784078286	1.7111435822833
0	35425	332.825927660569	0.22190790444227
0	35454	333.047835565011	1.0405031279642
0	35540	334.088338692975	4.0043131433834
0	35982	338.092651836358	1.2351367006406
0	36096	339.327788536999	0.58406050244759
0	36143	339.911849039447	1.1203195865605
0	36283	341.032168626008	3.3533507243119
0	36595	344.38551935032	1.1956699433196
0	36720	345.58118929364	0.42449818978243
0	36755	346.005687483422	0.2718615771382
0	36787	346.27754906056	4.0866558418551
0	37279	350.364204902415	0.91549999195201
0	37389	351.279704894367	1.4779381663526
0	37594	352.75764306072	1.3303290995813
0	37742	354.087972160301	2.8033917886869
0	38070	356.891363948988	3.5455144853098
0	38406	360.436878434298	0.75683533704356
0	38521	361.193713771342	1.004946659722
0	38663	362.198660431064	0.75970808277389
0	38735	362.958368513838	0.39181587155322
0	38760	363.350184385391	2.163889489713
0	39010	365.514073875104	0.24777090429918
0	39053	365.761844779403	0.91201308359806
0	39138	366.673857863001	0.29126033106571
0	39167	366.965118194067	0.45338808925934
0	39186	367.418506283326	2.0329517993238
0	39360	369.45145808265	0.12345114377663
0	39372	369.574909226427	0.94006133553652
0	39449	370.514970561964	0.38114488583134
0	39486	370.896115447795	4.6653609705693
0	40042	375.561476418364	2.5449050993864
0	40281	378.10638151775	0.14740733702257
0	40293	378.253788854773	1.0130389648151
0	40433	379.266827819588	0.91770454788051
0	40533	380.184532367469	0.1994868600041
0	40544	380.384019227473	1.6503799751615
0	40685	382.034399202635	8.9426204526709
0	41732	390.977019655306	0.38500772722338
0	41756	391.362027382529	0.20050561521662
0	41772	391.562532997746	2.0464164583898
0	41984	393.608949456136	6.8343864472232
1	1051	10.080049702041	2.0068607748593
1	1263	12.0869104769	2.0782025816133
1	1462	14.165113058513	0.23929393759346
1	1493	14.404406996106	0.16760814959673
1	1528	14.572015145703	4.1045064851303
1	1927	18.676521630833	3.7640329506289
1	2302	22.440554581462	1.3894523088913
1	2407	23.830006890353	0.088973042171755
1	2409	23.918979932525	0.26399598232102
1	2446	24.182975914846	3.3403311022477
1	2848	27.523307017094	1.4034406952762
1	2980	28.92674771237	3.8052881972031
1	3347	32.732035909573	0.46968407945208
1	3373	33.201719989025	2.9437338681662
1	3600	36.145453857191	2.7481148876895
1	3886	38.89356874488	1.8476211783261
1	4069	40.741189923206	4.0478822419384
1	4509	44.789072165144	1.3094239737159
1	4619	46.09849613886	4.9937408500259
1	5164	51.092236988886	0.59639494639926
1	5234	51.688631935285	0.53437157947046
1	5332	52.223003514755	0.98445129045033
1	5426	53.207454805205	0.84134941805451
1	5523	54.04880422326	0.031595120787423
1	5524	54.080399344047	1.8238738813852
1	5677	55.904273225432	0.060966316305034
1	5688	55.965239541737	0.26186064239013
1	5722	56.227100184127	3.4978585881369
1	6129	59.724958772264	3.9938864493002
1	6567	63.718845221564	0.53773402165823
1	6630	64.256579243222	2.3140442969288
1	6898	66.570623540151	1.6170766201126
1	7039	68.187700160264	0.68975786427242
1	7159	68.877458024536	1.5412809807718
1	7339	70.418739005308	6.5314163837035
1	7987	76.950155389011	6.0594778061537
1	8629	83.009633195165	1.3125060164104
1	8808	84.322139211575	3.1326089268053
1	9129	87.45474813838	0.64064234415076
1	9210	88.095390482531	2.3397261952871
1	9421	90.435116677818	0.82275311750757
1	9484	91.257869795326	0.93812895831261
1	9581	92.195998753639	0.58539427713034
1	9642	92.781393030769	13.620948674559
1	10974	106.402341705328	1.4704423478588
1	11132	107.872784053187	5.5555707608806
1	11762	113.428354814068	1.9018101958702
1	11950	115.330165009938	0.92925637786162
1	12024	116.2594213878	4.5906689004718
1	12474	120.850090288272	3.2348417376022
1	12889	124.084932025874	0.28850879889375
1	12916	124.373440824768	2.9059095427773
1	13210	127.279350367545	2.7279112340244
1	13475	130.007261601569	1.5480098187269
1	13624	131.555271420296	0.46497564268418
1	13663	132.02024706298	1.4062443942702
1	13812	133.42649145725	2.6162106847451
1	14126	136.042702141995	3.2411855635265
1	14402	139.283887705522	0.089852524143353
1	14416	139.373740229665	0.32743978828621
1	14452	139.701180017951	0.15097675667951
1	14465	139.852156774631	4.4548717844552
1	15019	144.307028559086	0.6736113375166
1	15103	144.980639896603	4.5594823189332
1	15583	149.540122215536	2.6562722346419
1	15881	152.196394450178	1.5598017384892
1	16063	153.756196188667	1.4809188884299
1	16254	155.237115077097	1.3155337074167
1	16446	156.552648784514	0.84357009283841
1	16535	157.396218877352	0.96877433187231
1	16652	158.364993209224	0.18580399919722
1	16669	158.550797208421	1.3891249398213
1	16835	159.939922148242	1.5766651041377
1	17016	161.51658725238	0.29411102296386
1	17068	161.810698275344	3.6668611535277
1	17501	165.477559428872	0.15327530914517
1	17518	165.630834738017	2.141666416186
1	17759	167.772501154203	0.56553134360014
1	17823	168.338032497803	1.8603237608021
1	18021	170.198356258605	1.0683669270032
1	18163	171.266723185608	0.48534073661861
1	18225	171.752063922227	0.15431450164631
1	18245	171.906378423873	0.81082062699902
1	18353	172.717199050872	4.599232461137
1	18914	177.316431512009	1.1492035088614
1	19055	178.46563502087	2.6971483279612
1	19262	181.162783348831	2.1428466798651
1	19496	183.305630028696	4.9903702128855
1	20054	188.296000241582	2.1565799022226
1	20255	190.452580143805	0.33046267929635
1	20322	190.783042823101	0.091740971234052
1	20328	190.874783794335	0.43583892198791
1	20380	191.310622716323	0.33502310379171
1	20421	191.645645820115	1.7404804852568
1	20670	193.386126305372	4.1721996630192
1	21111	197.558325968391	0.083611009577696
1	21122	197.641936977969	2.1016441470023
1	21337	199.743581124971	2.5175384676121
1	21547	202.261119592583	2.4002586583654
1	21797	204.661378250948	0.62386747016527
1	21847	205.285245721113	2.7832214029379
1	22140	208.068467124051	4.2063395933053
1	22543	212.274806717356	1.8849192794094
1	22754	214.159725996765	1.8427242845517
1	22949	216.002450281317	4.6381150136807
1	23414	220.640565294998	0.28480223093843
1	23437	220.925367525936	4.4950830607532
1	23996	225.420450586689	1.8768278199735
1	24182	227.297278406663	4.5272036328862
1	24633	231.824482039549	1.311435838049
1	24772	233.135917877598	0.75110158152328
1	24853	233.887019459121	0.55950228124618
1	24907	234.446521740367	1.8044683018392
1	25077	236.250990042206	1.7487881417573
1	25304	237.999778183963	1.9022778676266
1	25521	239.90205605159	0.68625643897058
1	25578	240.588312490561	6.1771927630405
1	26183	246.765505253602	6.8021619490258
1	27018	253.567667202628	0.025460556169666
1	27025	253.593127758798	1.6624321350118
1	27172	255.25555989381	3.9057889753287
1	27540	259.161348869139	1.7259595450512
1	27722	260.88730841419	0.8802688318622
1	27828	261.767577246052	5.6572071126889
1	28432	267.424784358741	1.3085579851173
1	28565	268.733342343858	0.23142438551927
1	28594	268.964766729377	4.8127906240271
1	29153	273.777557353404	3.2030604869584
1	29510	276.980617840362	1.2995480693671
1	29656	278.280165909729	6.0480070595606
1	30288	284.32817296929	0.40413301320279
1	30338	284.732305982493	0.40107878534051
1	30380	285.133384767834	3.4740410952889
1	30689	288.607425863123	2.2755379175863
1	31010	290.882963780709	1.4201663165537
1	31172	292.303130097263	7.7605197110145
1	31968	300.063649808278	0.025312051001123
1	31969	300.088961859279	1.7882920419684
1	32209	301.877253901247	3.5034696632675
1	32547	305.380723564514	5.2336304922239
1	33125	310.614354056738	0.14656713436823
1	33137	310.760921191106	0.78389802514473
1	33229	311.544819216251	0.5263319398807
1	33273	312.071151156132	0.7054136309394
1	33350	312.776564787071	1.9010980349927
1	33569	314.677662822064	0.19328624757943
1	33589	314.870949069643	0.61441767696068
1	33673	315.485366746604	4.7590355707045
1	34145	320.244402317308	1.3798828260016
1	34289	321.62428514331	0.27532569370127
1	34338	321.899610837011	2.7112622204256
1	34564	324.610873057437	3.1314046717464
1	34915	327.742277729183	0.23018001117368
1	34941	327.972457740357	4.5336264311833
1	35394	332.50608417154	2.0654595998981
1	35586	334.571543771438	0.31609719503552
1	35631	334.887640966474	0.056458638385153
1	35632	334.944099604859	1.8587160448589
1	35836	336.802815649718	0.62635951502617
1	35908	337.429175164744	0.96007527088272
1	36012	338.389250435627	1.0433515250203
1	36102	339.432601960647	2.2622918230244
1	36353	341.694893783671	2.7572828501905
1	36596	344.452176633862	1.6045326643382
1	36768	346.0567092982	3.44488467805
1	37186	349.50159397625	0.62645925669768
1	37260	350.128053232948	0.03414467105328
1	37261	350.162197904001	0.087144432611782
1	37268	350.249342336613	2.197621631644
1	37566	352.446963968257	0.9485606761023
1	37665	353.395524644359	2.9655118548692
1	37981	356.361036499228	0.74509804947397
1	38089	357.106134548702	1.7252441921671
1	38264	358.831378740869	0.83428804503767
1	38345	359.665666785907	1.16845654725
1	38468	360.834123333157	1.7880242979289
1	38701	362.622147631086	2.8566460730706
1	39009	365.478793704157	4.5304794543009
1	39419	370.009273158458	2.525576580622
1	39710	372.53484973908	1.4229672290679
1	39866	373.957816968148	0.29325560543336
1	39882	374.251072573581	0.50352833828845
1	39950	374.754600911869	0.071725765083795
1	39961	374.826326676953	1.3614787056927
1	40096	376.187805382646	0.57979959637882
1	40125	376.767604979025	1.6769161772088
1	40325	378.444521156234	0.078396609442998
1	40336	378.522917765677	0.10333703350399
1	40343	378.626254799181	2.1067611376733
1	40576	380.733015936854	1.1279574168787
1	40673	381.860973353733	0.060590277476179
1	40677	381.921563631209	1.9624854964676
1	40900	383.884049127677	3.6790605828285
1	41323	387.563109710506	2.1339891824002
1	41594	389.697098892906	1.3878670918812
1	41739	391.084965984787	2.1463024625362
1	41945	393.231268447323	0.56079470438732
1	41997	393.79206315171	1.3158843800804
1	42119	395.10794753179	0.69585334200742
1	42200	395.803800873797	3.181463787032
1	42586	398.985264660829	0.25438139678587
1	42607	399.239646057615	2.8442196629279
2	1052	10.168429836629	0.05263762487
2	1057	10.221067461499	0.049433464049
2	1063	10.270500925548	0.017646666582
2	1068	10.28814759213	0.005898094876
2	1070	10.294045687006	0.083987542806
2	1078	10.378033229812	0.049476376516
2	1085	10.427509606328	0.032107517463
2	1090	10.459617123791	0.009768047273
2	1095	10.469385171064	0.156155714951
2	1102	10.625540886015	0.05165679372
2	1108	10.677197679735	0.007113556845
2	1110	10.68431123658	0.002463202232
2	1115	10.686774438812	0.037460576466
2	1123	10.724235015278	0.092747190847
2	1128	10.816982206125	0.215572710586
2	1133	11.032554916711	0.104433573614
2	1138	11.136988490325	0.02808736514
2	1143	11.165075855465	0.061944359046
2	1148	11.227020214511	0.026352028564
2	1153	11.253372243075	0.099265704206
2	1158	11.352637947281	0.008831666752
2	1163	11.361469614033	0.019036621353
2	1168	11.380506235386	0.137227605822
2	1173	11.517733841208	0.097615082902
2	1178	11.61534892411	0.020297487415
2	1183	11.635646411525	0.057733164211
2	1188	11.693379575736	0.000217288091
2	1190	11.693596863827	0.001050818066
2	1192	11.694647681893	0.007230712614
2	1198	11.701878394507	0.000979809607
2	1200	11.702858204114	0.005987679719
2	1202	11.708845883833	0.030043045412
2	1216	11.738888929245	0.114931024444
2	1226	11.853819953689	0.005438145004
2	1228	11.859258098693	0.056310783138
2	1236	11.915568881831	0.002406716272
2	1238	11.917975598103	0.0141491665
2	1247	11.932124764603	0.050413777694
2	1252	11.982538542297	0.023025172409
2	1258	12.005563714706	0.098541311678
2	1265	12.104105026384	0.009516073963
2	1270	12.113621100347	0.034749175969
2	1275	12.148370276316	0.079770881127
2	1280	12.228141157443	0.105263157287
2	1285	12.33340431473	0.02442372804
2	1290	12.35782804277	0.076277709122
2	1296	12.434105751892	0.036012025702
2	1301	12.470117777594	0.089514805836
2	1307	12.55963258343	0.086626248587
2	1312	12.646258832017	0.042212460716
2	1317	12.688471292733	0.068429781022
2	1322	12.756901073755	0.028359942145
2	1327	12.7852610159	0.022085011382
2	1332	12.807346027282	0.11618058629
2	1337	12.923526613572	0.08590392891
2	1342	13.009430542482	0.079384369128
2	1347	13.08881491161	0.071535961724
2	1353	13.160350873334	0.156885879757
2	1359	13.317236753091	0.050046993069
2	1365	13.36728374616	0.06092540148
2	1371	13.42820914764	0.022660418181
2	1377	13.450869565821	0.034269318039
2	1382	13.48513888386	0.023653886618
2	1387	13.508792770478	0.077564866031
2	1392	13.586357636509	0.010224407668
2	1397	13.596582044177	0.041247898031
2	1402	13.637829942208	0.007457762561
2	1404	13.645287704769	0.001386322242
2	1409	13.646674027011	0.028346874816
2	1417	13.675020901827	0.123931158191
2	1422	13.798952060018	0.075799935174
2	1427	13.874751995192	0.027993907524
2	1432	13.902745902716	0.001061859661
2	1434	13.903807762377	0.043214594499
2	1442	13.947022356876	0.02901461022
2	1447	13.976036967096	0.021344362908
2	1452	13.997381330004	0.110282401208
2	1457	14.107663731212	0.111032872913
2	1464	14.218696604125	0.037996039199
2	1469	14.256692643324	0.046704720488
2	1475	14.303397363812	0.038894265347
2	1480	14.342291629159	0.047429675611
2	1486	14.38972130477	0.014246369303
2	1491	14.403967674073	0.032593044079
2	1498	14.436560718152	0.010926063742
2	1503	14.447486781894	0.023731591606
2	1508	14.4712183735	0.014491555742
2	1513	14.485709929242	0.013172215653
2	1518	14.498882144895	0.02500614072
2	1523	14.523888285615	0.153869912367
2	1529	14.677758197982	0.001243489905
2	1531	14.679001687887	0.054018370311
2	1539	14.733020058198	0.054600589785
2	1544	14.787620647983	0.003390996801
2	1546	14.791011644784	0.011482441382
2	1551	14.802494086166	0.037146078953
2	1559	14.839640165119	0.137722450942
2	1566	14.977362616061	0.006716323994
2	1568	14.984078940055	0.020467966116
2	1577	15.004546906171	0.003255928264
2	1579	15.007802834435	0.043011921263
2	1587	15.050814755698	0.004265707837
2	1589	15.055080463535	0.013275327877
2	1597	15.068355791412	0.162261133394
2	1603	15.230616924806	0.035955111473
2	1608	15.266572036279	0.020730324146
2	1613	15.287302360425	0.02403981107
2	1618	15.311342171495	0.001101450704
2	1620	15.312443622199	0.000711647443
2	1622	15.313155269642	0.131116790717
2	1633	15.444272060359	0.218702322635
2	1640	15.662974382994	0.030574151567
2	1645	15.693548534561	0.086010527869
2	1651	15.77955906243	0.016858983277
2	1656	15.796418045707	0.006612838285
2	1658	15.803030883992	0.206710988671
2	1667	16.009741872663	0.091029744236
2	1672	16.100771616899	0.010824561057
2	1677	16.111596177956	0.090152904935
2	1685	16.201749082891	0.135282783405
2	1690	16.337031866296	0.097499990143
2	1696	16.434531856439	0.024182224284
2	1701	16.458714080723	0.109772922913
2	1707	16.568487003636	0.093836453458
2	1712	16.662323457094	0.007008905393
2	1714	16.669332362487	0.118919838678
2	1724	16.788252201165	0.166402280913
2	1730	16.954654482078	0.00221635181
2	1732	16.956870833888	0.023543141912
2	1740	16.9804139758	0.08949913341
2	1745	17.06991310921	0.027334963887
2	1751	17.097248073097	0.014218521393
2	1756	17.11146659449	0.05432154111
2	1761	17.1657881356	0.077251152791
2	1767	17.243039288391	0.050775058634
2	1772	17.293814347025	0.037163184129
2	1777	17.330977531154	0.100167774151
2	1782	17.431145305305	0.002132191096
2	1784	17.433277496401	0.038631607472
2	1792	17.471909103873	0.112258402591
2	1799	17.584167506464	0.004715853021
2	1801	17.588883359485	0.059478778443
2	1809	17.648362137928	0.026155343138
2	1814	17.674517481066	0.006493452614
2	1816	17.68101093368	0.002537100308
2	1821	17.683548033988	0.021065438925
2	1829	17.704613472913	0.051792549328
2	1835	17.756406022241	0.048932833121
2	1840	17.805338855362	0.090032360835
2	1845	17.895371216197	0.073800639443
2	1851	17.96917185564	0.040457926207
2	1857	18.009629781847	0.02594985829
2	1862	18.035579640137	0.036483447266
2	1868	18.072063087403	0.026636574695
2	1874	18.098699662098	0.049796985632
2	1879	18.14849664773	0.024233986703
2	1884	18.172730634433	0.120983397627
2	1891	18.29371403206	0.163015064727
2	1900	18.456729096787	0.009179607052
2	1905	18.465908703839	0.049414112146
2	1910	18.515322815985	0.035188670339
2	1915	18.550511486324	0.037533624905
2	1920	18.588045111229	0.083402452407
2	1925	18.671447563636	0.117584445443
2	1931	18.789032009079	0.043544332906
2	1938	18.832576341985	0.079841011546
2	1943	18.912417353531	0.002567905854
2	1945	18.914985259385	0.002921607624
2	1947	18.917906867009	0.031147619949
2	1958	18.949054486958	0.030024492421
2	1965	18.979078979379	0.008054858802
2	1970	18.987133838181	0.03966641695
2	1975	19.026800255131	0.033460277297
2	1981	19.060260532428	0.001956565762
2	1983	19.06221709819	0.007958620637
2	1988	19.070175718827	0.051457846448
2	1996	19.121633565275	0.080416676007
2	2002	19.202050241282	0.000918917414
2	2004	19.202969158696	0.036927828763
2	2012	19.239896987459	0.090468958968
2	2017	19.330365946427	0.092388033566
2	2023	19.422753979993	0.008039492308
2	2028	19.430793472301	0.217524194767
2	2036	19.648317667068	0.062375026066
2	2041	19.710692693134	0.012002854737
2	2046	19.722695547871	0.094567487642
2	2051	19.817263035513	0.038904591416
2	2057	19.856167626929	0.147581079864
2	2065	20.003748706793	0.022039811908
2	2070	20.025788518701	0.046689226534
2	2077	20.072477745235	0.029567906063
2	2082	20.102045651298	0.093119863728
2	2087	20.195165515026	0.010581118991
2	2092	20.205746634017	0.06722653826
2	2097	20.272973172277	0.183318496276
2	2104	20.456291668553	0.041527050961
2	2109	20.497818719514	0.187235174615
2	2115	20.685053894129	0.012285177868
2	2120	20.697339071997	0.050199217353
2	2126	20.74753828935	0.058886730174
2	2132	20.806425019524	0.036758842966
2	2138	20.84318386249	0.018391019243
2	2143	20.861574881733	0.066040935168
2	2149	20.927615816901	0.111271090462
2	2155	21.038886907363	0.020035561752
2	2160	21.058922469115	0.014325542699
2	2165	21.073248011814	0.003914456721
2	2167	21.077162468535	0.074223821062
2	2176	21.151386289597	0.037332339332
2	2181	21.188718628929	0.016212727719
2	2186	21.204931356648	0.023627464414
2	2191	21.228558821062	0.031122661194
2	2196	21.259681482256	0.064011177275
2	2201	21.323692659531	0.036939900325
2	2207	21.360632559856	0.072514913212
2	2213	21.433147473068	0.007898888736
2	2218	21.441046361804	0.023103641231
2	2223	21.464150003035	0.09514663632
2	2231	21.559296639355	0.019993681086
2	2236	21.579290320441	0.016616997083
2	2241	21.595907317524	0.047942349256
2	2246	21.64384966678	0.050096099532
2	2251	21.693945766312	0.066561214669
2	2257	21.760506980981	0.104380703818
2	2263	21.864887684799	0.01444410752
2	2268	21.879331792319	0.29430310493
2	2275	22.173634897249	0.006546603417
2	2277	22.180181500666	0.048914377566
2	2285	22.229095878232	0.015263572003
2	2290	22.244359450235	0.020225263022
2	2295	22.264584713257	0.249747138846
2	2303	22.514331852103	0.164534410279
2	2310	22.678866262382	0.005944997706
2	2313	22.684811260088	0.108161146903
2	2322	22.792972406991	0.046532290774
2	2328	22.839504697765	0.061586850456
2	2334	22.901091548221	0.141439610277
2	2339	23.042531158498	0.037073330031
2	2344	23.079604488529	0.047287534695
2	2349	23.126892023224	0.101129140554
2	2354	23.228021163778	0.025557041215
2	2359	23.253578204993	0.105276468869
2	2365	23.358854673862	0.046477369203
2	2371	23.405332043065	0.002388477831
2	2373	23.407720520896	0.108055129296
2	2381	23.515775650192	0.129193395853
2	2387	23.644969046045	0.038825176287
2	2392	23.683794222332	0.058986082166
2	2397	23.742780304498	0.04366699493
2	2402	23.786447299428	0.172553320242
2	2410	23.95900061967	0.01131147873
2	2415	23.9703120984	0.055383856225
2	2420	24.025695954625	0.03707651325
2	2425	24.062772467875	0.02676201206
2	2430	24.089534479935	0.049460940585
2	2436	24.13899542052	0.001059399068
2	2438	24.140054819588	0.044702488834
2	2447	24.184757308422	0.062386066689
2	2452	24.247143375111	0.014186877208
2	2458	24.261330252319	0.023516087498
2	2463	24.284846339817	0.014227747298
2	2468	24.299074087115	0.050689035067
2	2473	24.349763122182	0.021429413519
2	2479	24.371192535701	0.155419730364
2	2485	24.526612266065	0.076598848165
2	2490	24.60321111423	0.028560989261
2	2495	24.631772103491	0.07765358437
2	2500	24.709425687861	0.166453377591
2	2505	24.875879065452	0.062151088448
2	2510	24.9380301539	0.014421119931
2	2515	24.952451273831	0.018274386563
2	2521	24.970725660394	0.023771370059
2	2526	24.994497030453	0.02751055828
2	2531	25.022007588733	0.076702300725
2	2536	25.098709889458	0.028003730188
2	2541	25.126713619646	0.047962584919
2	2546	25.174676204565	0.054011239792
2	2551	25.228687444357	0.073106900344
2	2556	25.301794344701	0.085314391107
2	2562	25.387108735808	0.001111687119
2	2564	25.388220422927	0.114090054252
2	2573	25.502310477179	0.075261008008
2	2578	25.577571485187	0.076555781608
2	2584	25.654127266795	0.016403608187
2	2589	25.670530874982	0.02957552195
2	2594	25.700106396932	0.022310324894
2	2599	25.722416721826	0.01696296586
2	2606	25.739379687686	0.036697227194
2	2612	25.77607691488	0.027871425876
2	2617	25.803948340756	0.047510665744
2	2622	25.8514590065	0.053770074743
2	2627	25.905229081243	0.014823550896
2	2632	25.920052632139	0.006593434067
2	2634	25.926646066206	0.102547343099
2	2643	26.029193409305	0.114797002434
2	2648	26.143990411739	0.072747859974
2	2653	26.216738271713	0.032445873594
2	2658	26.249184145307	0.018826717848
2	2663	26.268010863155	0.027906336446
2	2668	26.295917199601	0.043206739074
2	2673	26.339123938675	0.101369884005
2	2679	26.44049382268	0.031324570981
2	2684	26.471818393661	0.022032819541
2	2689	26.493851213202	0.000505774165
2	2691	26.494356987367	0.005765635456
2	2693	26.500122622823	0.121500259946
2	2705	26.621622882769	0.021450606489
2	2710	26.643073489258	7.0639e-07
2	2712	26.643074195648	0.015688206205
2	2721	26.658762401853	0.022469751528
2	2726	26.681232153381	0.073620554755
2	2732	26.754852708136	0.006611383706
2	2734	26.761464091842	0.064560873946
2	2742	26.826024965788	0.027394734676
2	2747	26.853419700464	0.018363930043
2	2752	26.871783630507	0.055305253866
2	2757	26.927088884373	0.038445465067
2	2762	26.96553434944	0.020105412202
2	2767	26.985639761642	0.010709241787
2	2772	26.996349003429	0.06485893242
2	2781	27.061207935849	0.041059773396
2	2786	27.102267709245	0.059173921445
2	2791	27.16144163069	0.061976285615
2	2796	27.223417916305	0.014875940372
2	2801	27.238293856677	0.016825073435
2	2806	27.255118930112	0.032669992366
2	2811	27.287788922478	0.054584636244
2	2816	27.342373558722	0.035985295217
2	2822	27.378358853939	0.025075851671
2	2827	27.40343470561	0.024516309826
2	2832	27.427951015436	0.028625070808
2	2837	27.456576086244	0.036916243834
2	2843	27.493492330078	0.14860591956
2	2849	27.642098249638	0.07439499964
2	2854	27.716493249278	0.142716600085
2	2860	27.859209849363	0.007660092713
2	2865	27.866869942076	0.06636639376
2	2870	27.933236335836	0.061856121594
2	2875	27.99509245743	0.03207284193
2	2881	28.02716529936	0.001453664155
2	2883	28.028618963515	0.012968644821
2	2888	28.041587608336	0.085499687587
2	2896	28.127087295923	0.08484802412
2	2902	28.211935320043	0.037060692305
2	2909	28.248996012348	0.051408958324
2	2915	28.300404970672	0.059367816272
2	2920	28.359772786944	0.058273291735
2	2925	28.418046078679	0.028140655533
2	2930	28.446186734212	0.016574467581
2	2936	28.462761201793	0.153183361293
2	2943	28.615944563086	0.121250723629
2	2949	28.737195286715	0.031448070963
2	2954	28.768643357678	0.061566770757
2	2959	28.830210128435	0.019665458784
2	2964	28.849875587219	0.001762701562
2	2966	28.851638288781	0.017580126028
2	2975	28.869218414809	0.107283254917
2	2982	28.976501669726	0.053866877725
2	2987	29.030368547451	0.22243338466
2	2992	29.252801932111	0.005654167877
2	2994	29.258456099988	0.158729202099
2	3004	29.417185302087	0.057506768241
2	3009	29.474692070328	0.026551080793
2	3014	29.501243151121	0.072672381494
2	3019	29.573915532615	0.005700297859
2	3021	29.579615830474	0.037051043716
2	3030	29.61666687419	0.046616479146
2	3035	29.663283353336	0.025744649556
2	3040	29.689028002892	0.067726004353
2	3045	29.756754007245	0.010284663234
2	3050	29.767038670479	0.044457868373
2	3055	29.811496538852	0.027392762122
2	3061	29.838889300974	0.025271940158
2	3066	29.864161241132	0.106549267543
2	3071	29.970710508675	0.04629796657
2	3076	30.017008475245	0.024272486879
2	3081	30.041280962124	0.03429422526
2	3086	30.075575187384	0.05091013989
2	3091	30.126485327274	0.030128387058
2	3096	30.156613714332	0.009395123098
2	3101	30.16600883743	0.047694394754
2	3107	30.213703232184	0.098498371598
2	3113	30.312201603782	0.004038691347
2	3115	30.316240295129	0.021199256151
2	3123	30.33743955128	0.043251681995
2	3128	30.380691233275	0.083640772649
2	3134	30.464332005924	0.025151225541
2	3139	30.489483231465	0.011349442358
2	3144	30.500832673823	0.031340494028
2	3149	30.532173167851	0.057144276247
2	3154	30.589317444098	0.007358182619
2	3159	30.596675626717	0.038507169007
2	3164	30.635182795724	0.111883364958
2	3170	30.747066160682	0.056466212029
2	3175	30.803532372711	0.02327372575
2	3180	30.826806098461	0.08275928918
2	3186	30.909565387641	0.122131361352
2	3191	31.031696748993	0.05500391582
2	3197	31.086700664813	0.030707460758
2	3202	31.117408125571	0.063914193989
2	3208	31.18132231956	0.030023879939
2	3214	31.211346199499	0.153758499264
2	3219	31.365104698763	0.038085022986
2	3224	31.403189721749	0.013899973832
2	3229	31.417089695581	0.066175293921
2	3235	31.483264989502	0.073603038207
2	3243	31.556868027709	0.0208258603
2	3248	31.577693888009	0.020180538748
2	3253	31.597874426757	0.010728158115
2	3258	31.608602584872	0.035554022187
2	3263	31.644156607059	0.023858849764
2	3268	31.668015456823	0.019689515695
2	3273	31.687704972518	0.049968004259
2	3278	31.737672976777	0.153551721923
2	3284	31.8912246987	0.129222881659
2	3292	32.020447580359	0.028333331544
2	3298	32.048780911903	0.113122996848
2	3304	32.161903908751	0.041481676376
2	3309	32.203385585127	0.049387309425
2	3314	32.252772894552	0.135743577475
2	3320	32.388516472027	0.078764456847
2	3325	32.467280928874	0.016351563877
2	3330	32.483632492751	0.028470348354
2	3335	32.512102841105	0.169223819812
2	3341	32.681326660917	0.053890319529
2	3348	32.735216980446	0.128709300827
2	3353	32.863926281273	0.180535215015
2	3360	33.044461496288	0.044782805082
2	3366	33.08924430137	0.242241234669
2	3375	33.331485536039	0.190716912003
2	3382	33.522202448042	0.058935186894
2	3387	33.581137634936	0.135351571956
2	3393	33.716489206892	0.056718421954
2	3398	33.773207628846	0.080811792868
2	3404	33.854019421714	0.070360759793
2	3410	33.924380181507	0.057718004694
2	3416	33.982098186201	0.039774793521
2	3421	34.021872979722	0.12085536162
2	3426	34.142728341342	0.04983368007
2	3431	34.192562021412	0.014961047711
2	3437	34.207523069123	0.078871512929
2	3442	34.286394582052	0.038899765023
2	3447	34.325294347075	0.046546500784
2	3453	34.371840847859	0.072059691555
2	3458	34.443900539414	0.110121256946
2	3463	34.55402179636	0.001256277455
2	3465	34.555278073815	0.032160993927
2	3474	34.587439067742	0.07423533375
2	3479	34.661674401492	0.045172518204
2	3484	34.706846919696	0.052202740914
2	3489	34.75904966061	0.060736932118
2	3494	34.819786592728	0.096668483243
2	3500	34.916455075971	0.132697501701
2	3505	35.049152577672	0.110269115902
2	3510	35.159421693574	0.075019205372
2	3515	35.234440898946	0.021759148382
2	3520	35.256200047328	0.066029993049
2	3526	35.322230040377	0.034058994388
2	3531	35.356289034765	0.008191441369
2	3536	35.364480476134	0.160434651163
2	3543	35.524915127297	0.072856559994
2	3549	35.597771687291	0.044511083278
2	3554	35.642282770569	0.049610206913
2	3560	35.691892977482	0.233436054204
2	3568	35.925329031686	0.103552651396
2	3573	36.028881683082	0.040396919913
2	3579	36.069278602995	0.032145728165
2	3585	36.10142433116	0.017703219356
2	3590	36.119127550516	0.000124299605
2	3592	36.119251850121	0.040604234552
2	3601	36.159856084673	0.021530120982
2	3606	36.181386205655	0.01566441535
2	3611	36.197050621005	0.00200866347
2	3613	36.199059284475	0.001066111485
2	3615	36.20012539596	0.0624672366
2	3628	36.26259263256	0.080035402878
2	3633	36.342628035438	0.008432531801
2	3638	36.351060567239	0.002426786723
2	3640	36.353487353962	0.070688578855
2	3648	36.424175932817	0.02474220733
2	3653	36.448918140147	0.05853442177
2	3658	36.507452561917	0.021331272042
2	3663	36.528783833959	0.06418341786
2	3668	36.592967251819	0.008470623763
2	3673	36.601437875582	0.015516922087
2	3678	36.616954797669	0.167060310601
2	3684	36.78401510827	0.055913233797
2	3689	36.839928342067	0.045134681544
2	3694	36.885063023611	0.026062422194
2	3699	36.911125445805	0.017057485614
2	3704	36.928182931419	0.039498546902
2	3711	36.967681478321	0.016492354014
2	3716	36.984173832335	0.033257286941
2	3722	37.017431119276	0.125140431872
2	3727	37.142571551148	0.355133858472
2	3738	37.49770540962	0.020677946523
2	3743	37.518383356143	0.018298305104
2	3748	37.536681661247	0.02013352644
2	3753	37.556815187687	0.079265412693
2	3758	37.63608060038	0.043176319201
2	3763	37.679256919581	0.064359168061
2	3769	37.743616087642	0.045430176804
2	3774	37.789046264446	0.04454355729
2	3780	37.833589821736	0.009301387417
2	3785	37.842891209153	0.00044775094
2	3787	37.843338960093	0.088860777837
2	3797	37.93219973793	0.05952724023
2	3802	37.99172697816	0.022073419817
2	3807	38.013800397977	0.009217806837
2	3813	38.023018204814	0.08776086956
2	3819	38.110779074374	0.202347253328
2	3825	38.313126327702	0.040761523657
2	3831	38.353887851359	0.005106561034
2	3833	38.358994412393	0.121320940648
2	3841	38.480315353041	0.018783172817
2	3846	38.499098525858	0.053666054597
2	3852	38.552764580455	0.075006958664
2	3857	38.627771539119	0.046670314455
2	3863	38.674441853574	0.069218801003
2	3869	38.743660654577	0.103352176986
2	3875	38.847012831563	0.020152118844
2	3881	38.867164950407	0.051257046478
2	3887	38.918421996885	0.06738743762
2	3893	38.985809434505	0.044109624705
2	3899	39.02991905921	0.011822888286
2	3904	39.041741947496	0.003528581507
2	3906	39.045270529003	0.061892124495
2	3914	39.107162653498	0.008016938441
2	3919	39.115179591939	0.03398755074
2	3924	39.149167142679	0.087658514905
2	3930	39.236825657584	0.031602677103
2	3936	39.268428334687	0.000818888868
2	3938	39.269247223555	0.042485765631
2	3946	39.311732989186	0.032034183475
2	3952	39.343767172661	0.022216849797
2	3957	39.365984022458	0.038750292149
2	3963	39.404734314607	0.007820488549
2	3968	39.412554803156	0.021284456215
2	3974	39.433839259371	0.101055206173
2	3979	39.534894465544	0.053664820452
2	3984	39.588559285996	0.087664323175
2	3991	39.676223609171	0.153256296797
2	3996	39.829479905968	0.000717576041
2	3998	39.830197482009	0.061688594027
2	4006	39.891886076036	0.106914147539
2	4011	39.998800223575	0.055693844785
2	4016	40.05449406836	0.136128023675
2	4023	40.190622092035	0.237996230311
2	4029	40.428618322346	0.072949577245
2	4034	40.501567899591	0.028857464874
2	4039	40.530425364465	0.044225335567
2	4044	40.574650700032	0.000352805637
2	4046	40.575003505669	0.008336839332
2	4051	40.583340345001	0.085241000752
2	4059	40.668581345753	0.025833582724
2	4064	40.694414928477	0.052767153846
2	4070	40.747182082323	0.005784530124
2	4072	40.752966612447	0.069476239452
2	4081	40.822442851899	0.020288296263
2	4086	40.842731148162	0.008611243677
2	4091	40.851342391839	0.150416692608
2	4096	41.001759084447	0.017191552944
2	4101	41.018950637391	0.069804586866
2	4106	41.088755224257	0.030513543397
2	4111	41.119268767654	0.207907061059
2	4118	41.327175828713	0.045131547717
2	4123	41.37230737643	0.038042363039
2	4128	41.410349739469	0.000910807674
2	4130	41.411260547143	0.02254776616
2	4138	41.433808313303	0.000159169051
2	4140	41.433967482354	0.004848396244
2	4142	41.438815878598	0.114421770065
2	4154	41.553237648663	0.045042463458
2	4159	41.598280112121	0.013957340541
2	4164	41.612237452662	0.034327457338
2	4169	41.64656491	0.067633590259
2	4174	41.714198500259	0.192968500175
2	4181	41.907167000434	0.021435876084
2	4186	41.928602876518	0.014455936839
2	4192	41.943058813357	0.016775837742
2	4197	41.959834651099	0.00269068262
2	4199	41.962525333719	0.021864293035
2	4207	41.984389626754	0.106162299159
2	4212	42.090551925913	0.018150515922
2	4219	42.108702441835	0.011451510821
2	4224	42.120153952656	0.016900795138
2	4229	42.137054747794	0.044537694395
2	4235	42.181592442189	0.031281815941
2	4240	42.21287425813	0.001520119058
2	4242	42.214394377188	0.220407861425
2	4252	42.434802238613	0.021590831386
2	4257	42.456393069999	0.014920424084
2	4262	42.471313494083	0.10852921958
2	4268	42.579842713663	0.088921608843
2	4274	42.668764322506	0.023583587801
2	4279	42.692347910307	0.049077168024
2	4284	42.741425078331	0.067327524807
2	4289	42.808752603138	0.00557022305
2	4291	42.814322826188	0.035670720724
2	4300	42.849993546912	0.149439416901
2	4305	42.999432963813	0.04541317574
2	4310	43.044846139553	0.044792137805
2	4315	43.089638277358	0.078303393177
2	4320	43.167941670535	0.05202403822
2	4326	43.219965708755	0.052335067167
2	4332	43.272300775922	0.021226894499
2	4337	43.293527670421	0.008051350448
2	4342	43.301579020869	0.046746724565
2	4347	43.348325745434	0.10148826116
2	4353	43.449814006594	0.000972186699
2	4355	43.450786193293	0.052218673753
2	4364	43.503004867046	0.018177735319
2	4369	43.521182602365	0.092655959649
2	4375	43.613838562014	0.176037667011
2	4382	43.789876229025	0.020879947998
2	4387	43.810756177023	0.001408870395
2	4389	43.812165047418	0.019567871867
2	4397	43.831732919285	0.012383210099
2	4402	43.844116129384	0.024443017365
2	4408	43.868559146749	0.006264667069
2	4410	43.874823813818	0.023355245888
2	4418	43.898179059706	0.007801511459
2	4423	43.905980571165	0.000739933136
2	4425	43.906720504301	0.039024162127
2	4433	43.945744666428	0.104224669954
2	4439	44.049969336382	0.070665032507
2	4445	44.120634368889	0.034026469733
2	4450	44.154660838622	0.117990041564
2	4455	44.272650880186	0.006808938908
2	4457	44.279459819094	0.024546541742
2	4465	44.304006360836	0.01413234925
2	4470	44.318138710086	0.172038406162
2	4478	44.490177116248	0.012381899653
2	4483	44.502559015901	0.024608800492
2	4488	44.527167816393	0.028467710968
2	4493	44.555635527361	0.000847054058
2	4495	44.556482581419	0.231248287415
2	4507	44.787730868834	0.085978577852
2	4513	44.873709446686	0.09917772829
2	4518	44.972887174976	0.085601446084
2	4524	45.05848862106	0.052426031567
2	4529	45.110914652627	0.199276819468
2	4536	45.310191472095	0.026623733857
2	4541	45.336815205952	0.065555290935
2	4548	45.402370496887	0.0043655238
2	4550	45.406736020687	0.164332895929
2	4559	45.571068916616	0.005975271414
2	4561	45.57704418803	0.011081244494
2	4569	45.588125432524	0.04676101111
2	4574	45.634886443634	0.103316898757
2	4579	45.738203342391	0.070262612191
2	4584	45.808465954582	0.053341981545
2	4589	45.861807936127	0.026616528802
2	4594	45.888424464929	0.041188612843
2	4599	45.929613077772	0.061747934955
2	4604	45.991361012727	0.036172846375
2	4609	46.027533859102	0.035651306828
2	4614	46.06318516593	0.114153166108
2	4620	46.177338332038	0.010103915303
2	4625	46.187442247341	0.05423258619
2	4630	46.241674833531	0.011124892821
2	4635	46.252799726352	0.047611038192
2	4640	46.300410764544	0.132810161466
2	4647	46.43322092601	0.085182333222
2	4653	46.518403259232	0.021939593111
2	4658	46.540342852343	0.033104711174
2	4663	46.573447563517	0.003759923227
2	4665	46.577207486744	0.073743460498
2	4673	46.650950947242	0.014425024532
2	4678	46.665375971774	0.001016126803
2	4680	46.666392098577	0.006713377163
2	4682	46.67310547574	0.033601794228
2	4693	46.706707269968	0.019037013312
2	4698	46.72574428328	0.03270729403
2	4704	46.75845157731	0.045648806613
2	4709	46.804100383923	0.101697302344
2	4714	46.905797686267	0.01806813176
2	4719	46.923865818027	0.007138556728
2	4721	46.931004374755	0.072382819139
2	4729	47.003387193894	0.03360871049
2	4734	47.036995904384	0.03502978801
2	4740	47.072025692394	0.060792463801
2	4746	47.132818156195	0.131694916696
2	4753	47.264513072891	0.060334106501
2	4758	47.324847179392	0.040954547949
2	4763	47.365801727341	0.02817405692
2	4768	47.393975784261	0.077193674781
2	4773	47.471169459042	0.001784808968
2	4775	47.47295426801	0.040307691501
2	4783	47.513261959511	0.014073331722
2	4788	47.527335291233	0.117392508298
2	4794	47.644727799531	0.039543207568
2	4799	47.684271007099	0.026577183627
2	4804	47.710848190726	0.001360568166
2	4806	47.712208758892	0.016391036022
2	4814	47.728599794914	0.003126646254
2	4816	47.731726441168	0.055134428562
2	4824	47.78686086973	0.071210715196
2	4829	47.858071584926	0.042367198465
2	4835	47.900438783391	0.036785417486
2	4840	47.937224200877	0.008619806322
2	4845	47.945844007199	0.009758319359
2	4850	47.955602326558	0.042084095563
2	4856	47.997686422121	0.030337223638
2	4861	48.028023645759	0.009444709995
2	4866	48.037468355754	0.020156945509
2	4871	48.057625301263	0.170289097996
2	4879	48.227914399259	0.170827799088
2	4886	48.398742198347	0.11230630564
2	4891	48.511048503987	0.038455051548
2	4896	48.549503555535	0.065330704722
2	4901	48.614834260257	0.013845558745
2	4906	48.628679819002	0.058498404339
2	4913	48.687178223341	0.130013606033
2	4919	48.817191829374	0.072731199987
2	4925	48.889923029361	0.039069395097
2	4930	48.928992424458	0.040538185073
2	4935	48.969530609531	0.180081294008
2	4944	49.149611903539	0.097717829365
2	4952	49.247329732904	0.002523696112
2	4954	49.249853429016	0.027962257711
2	4962	49.277815686727	0.010988284705
2	4967	49.288803971432	0.015474551333
2	4972	49.304278522765	0.095959004649
2	4978	49.400237527414	0.042440484529
2	4983	49.442678011943	0.062497550408
2	4989	49.505175562351	0.043796536069
2	4994	49.54897209842	0.00959540235
2	4999	49.55856750077	0.157901668995
2	5005	49.716469169765	0.104897739975
2	5011	49.82136690974	0.008636968889
2	5016	49.830003878629	0.028531634545
2	5022	49.858535513174	0.032801691385
2	5027	49.891337204559	0.044193867607
2	5032	49.935531072166	0.018579321622
2	5037	49.954110393788	0.040522171806
2	5042	49.994632565594	0.063477394695
2	5047	50.058109960289	0.085369107527
2	5052	50.143479067816	0.048612339503
2	5058	50.192091407319	0.136916382485
2	5066	50.329007789804	0.004240862151
2	5069	50.333248651955	0.026866650109
2	5077	50.360115302064	0.016302540395
2	5082	50.376417842459	0.031174443805
2	5087	50.407592286264	0.043483057359
2	5092	50.451075343623	0.013477165066
2	5097	50.464552508689	0.075254497162
2	5103	50.539807005851	0.02750299745
2	5108	50.567310003301	0.020918896665
2	5113	50.588228899966	0.164316662394
2	5119	50.75254556236	0.03172150296
2	5124	50.78426706532	0.066342068546
2	5131	50.850609133866	0.001093885015
2	5133	50.851703018881	0.060986924098
2	5141	50.912689942979	0.019160360192
2	5146	50.931850303171	0.063567613541
2	5151	50.995417916712	0.081816691374
2	5159	51.077234608086	0.04480509893
2	5166	51.122039707016	0.031675109182
2	5171	51.153714816198	0.014924706997
2	5176	51.168639523195	0.108821284535
2	5182	51.27746080773	0.171740404247
2	5189	51.449201211977	0.041524656645
2	5194	51.490725868622	0.01207499705
2	5200	51.502800865672	0.041331600168
2	5205	51.54413246584	0.037457491109
2	5210	51.581589956949	0.007007233652
2	5212	51.588597190601	0.00861990403
2	5220	51.597217094631	0.081522786423
2	5225	51.678739881054	0.00013756819
2	5227	51.678877449244	0.008858573667
2	5232	51.687736022911	0.044750628682
2	5241	51.732486651593	0.002855065426
2	5243	51.735341717019	0.013445201824
2	5251	51.748786918843	0.000640545748
2	5253	51.749427464591	0.133767666665
2	5262	51.883195131256	0.047512233223
2	5267	51.930707364479	0.009035532832
2	5272	51.939742897311	0.01158956694
2	5277	51.951332464251	0.024558253682
2	5282	51.975890717933	0.013448325675
2	5287	51.989339043608	0.022908909541
2	5292	52.012247953149	0.007525199424
2	5294	52.019773152573	0.011978818868
2	5302	52.031751971441	0.024808013827
2	5307	52.056559985268	0.01198067701
2	5312	52.068540662278	0.0203988499
2	5317	52.088939512178	0.036498434283
2	5322	52.125437946461	0.066483134281
2	5327	52.191921080742	0.051844966938
2	5333	52.24376604768	0.110937728105
2	5339	52.354703775785	0.135423727943
2	5344	52.490127503728	0.148086295584
2	5350	52.638213799312	0.187412654172
2	5356	52.825626453484	0.062300443033
2	5361	52.887926896517	0.005791305603
2	5363	52.89371820212	0.009794295307
2	5371	52.903512497427	0.036594787796
2	5376	52.940107285223	0.009089506115
2	5382	52.949196791338	0.008219688774
2	5388	52.957416480112	0.053461171699
2	5394	53.010877651811	0.022683038307
2	5399	53.033560690118	0.02798568153
2	5404	53.061546371648	0.084361442682
2	5409	53.14590781433	0.034101303412
2	5414	53.180009117742	0.005299364665
2	5416	53.185308482407	0.015074083612
2	5424	53.200382566019	0.015416757413
2	5430	53.215799323432	0.00593158716
2	5432	53.221730910592	0.01950711408
2	5440	53.241238024672	0.030926130577
2	5446	53.272164155249	0.004463993375
2	5448	53.276628148624	0.205169512158
2	5456	53.481797660782	0.052882923609
2	5461	53.534680584391	0.037283072497
2	5466	53.571963656888	0.030881309211
2	5471	53.602844966099	0.087619224024
2	5476	53.690464190123	0.017195827722
2	5481	53.707660017845	0.085192324259
2	5486	53.792852342104	0.01343100384
2	5491	53.806283345944	0.033960001791
2	5497	53.840243347735	0.097582749305
2	5503	53.93782609704	0.01477336509
2	5508	53.95259946213	0.037342867612
2	5513	53.989942329742	0.050828947445
2	5518	54.040771277187	0.19653709031
2	5527	54.237308367497	0.030182832947
2	5532	54.267491200444	0.121877800828
2	5539	54.389369001272	0.03580505093
2	5544	54.425174052202	0.074056354748
2	5549	54.49923040695	0.04515818216
2	5554	54.54438858911	0.053827128757
2	5559	54.598215717867	0.058398776973
2	5564	54.65661449484	0.044999367206
2	5569	54.701613862046	0.08371028658
2	5575	54.785324148626	0.015679964688
2	5580	54.801004113314	0.109191648405
2	5587	54.910195761719	0.164872887817
2	5594	55.075068649536	0.007430316316
2	5596	55.082498965852	0.075897122843
2	5606	55.158396088695	0.009239798661
2	5611	55.167635887356	0.091647512144
2	5617	55.2592833995	0.011942471121
2	5622	55.271225870621	0.040010461217
2	5627	55.311236331838	0.024260857091
2	5632	55.335497188929	0.036113067199
2	5637	55.371610256128	0.007622338543
2	5639	55.379232594671	0.160495210295
2	5650	55.539727804966	0.079631715447
2	5656	55.619359520413	0.029819118617
2	5661	55.64917863903	0.042618541538
2	5666	55.691797180568	0.096204818389
2	5671	55.788001998957	0.11884289099
2	5678	55.906844889947	0.036922483505
2	5683	55.943767373452	0.034481744174
2	5689	55.978249117626	0.001598151309
2	5691	55.979847268935	0.031494441828
2	5699	56.011341710763	0.169400700008
2	5707	56.180742410771	0.013032581963
2	5712	56.193774992734	0.012140283865
2	5717	56.205915276599	0.026963150512
2	5723	56.232878427111	0.00031529829
2	5725	56.233193725401	0.018125127491
2	5733	56.251318852892	0.097236157512
2	5738	56.348555010404	0.016876464143
2	5745	56.365431474547	0.068507155665
2	5750	56.433938630212	0.068750667958
2	5756	56.50268929817	0.102844321947
2	5761	56.605533620117	0.002511228716
2	5763	56.608044848833	0.038141397432
2	5771	56.646186246265	0.019529616244
2	5776	56.665715862509	0.030805909136
2	5782	56.696521771645	0.020482932227
2	5788	56.717004703872	0.084680726025
2	5793	56.801685429897	0.040334679874
2	5798	56.842020109771	0.01650812565
2	5803	56.858528235421	0.044824720172
2	5809	56.903352955593	0.086794125328
2	5816	56.990147080921	0.01235423585
2	5821	57.002501316771	0.024292981654
2	5826	57.026794298425	0.023412253011
2	5833	57.050206551436	0.019977018825
2	5838	57.070183570261	0.026400560278
2	5843	57.096584130539	0.037997461108
2	5848	57.134581591647	0.05016774403
2	5853	57.184749335677	0.06467763231
2	5858	57.249426967987	0.044141344157
2	5864	57.293568312144	0.06344633933
2	5870	57.357014651474	0.045987835777
2	5875	57.403002487251	0.026894380329
2	5880	57.42989686758	0.104187023521
2	5885	57.534083891101	0.020040313771
2	5890	57.554124204872	0.014838105329
2	5895	57.568962310201	0.03330240291
2	5900	57.602264713111	0.003580516386
2	5902	57.605845229497	0.013550944462
2	5910	57.619396173959	0.059472944829
2	5915	57.678869118788	0.011869615307
2	5920	57.690738734095	0.079886322991
2	5926	57.770625057086	0.04013738489
2	5931	57.810762441976	0.006343466406
2	5933	57.817105908382	0.080603398691
2	5941	57.897709307073	0.167577620584
2	5947	58.065286927657	0.003397983339
2	5949	58.068684910996	0.011190434232
2	5954	58.079875345228	0.054618555118
2	5962	58.134493900346	0.026234777007
2	5967	58.160728677353	0.005645577584
2	5969	58.166374254937	0.014169921585
2	5977	58.180544176522	0.016082440389
2	5982	58.196626616911	0.061349330434
2	5987	58.257975947345	0.002033669211
2	5989	58.260009616556	0.007058202011
2	5994	58.267067818567	0.084182654321
2	6002	58.351250472888	0.052892113832
2	6008	58.40414258672	0.045445808469
2	6013	58.449588395189	0.002000797372
2	6015	58.451589192561	0.07750939769
2	6023	58.529098590251	0.017658071655
2	6028	58.546756661906	0.04178363229
2	6034	58.588540294196	0.018952388411
2	6039	58.607492682607	0.084908364456
2	6045	58.692401047063	0.075703420781
2	6050	58.768104467844	0.033346860056
2	6055	58.8014513279	0.083428487401
2	6061	58.884879815301	0.006964055433
2	6063	58.891843870734	0.008987862368
2	6068	58.900831733102	0.08007535807
2	6076	58.980907091172	0.187034212338
2	6081	59.16794130351	0.02676929371
2	6087	59.19471059722	0.151444637707
2	6092	59.346155234927	0.035240435565
2	6097	59.381395670492	0.071647743455
2	6102	59.453043413947	0.072789959216
2	6107	59.525833373163	0.019674784834
2	6112	59.545508157997	0.129933827008
2	6119	59.675441985005	0.019689001482
2	6124	59.695130986487	0.035590340564
2	6130	59.730721327051	0.036545845375
2	6135	59.767267172426	0.064729080515
2	6140	59.831996252941	0.045418645793
2	6145	59.877414898734	0.000299355143
2	6147	59.877714253877	0.028821168037
2	6155	59.906535421914	0.084202454711
2	6160	59.990737876625	0.149035365198
2	6167	60.139773241823	0.060484508086
2	6172	60.200257749909	0.060429700253
2	6177	60.260687450162	0.030852234418
2	6182	60.29153968458	0.021688271896
2	6188	60.313227956476	0.014448839648
2	6194	60.327676796124	0.147409696919
2	6201	60.475086493043	0.027589798828
2	6206	60.502676291871	0.013331521576
2	6211	60.516007813447	0.042580660606
2	6216	60.558588474053	0.079518336228
2	6221	60.638106810281	0.079067762114
2	6227	60.717174572395	0.121975091556
2	6232	60.839149663951	0.016600354591
2	6237	60.855750018542	0.01003288633
2	6242	60.865782904872	0.011611423335
2	6247	60.877394328207	0.062934422453
2	6252	60.94032875066	0.013719826854
2	6258	60.954048577514	0.002680495912
2	6260	60.956729073426	0.02009199682
2	6268	60.976821070246	0.005361857124
2	6270	60.98218292737	0.095621308248
2	6278	61.077804235618	0.042569917692
2	6283	61.12037415331	0.007879276858
2	6285	61.128253430168	0.057033577817
2	6295	61.185287007985	0.020615302213
2	6300	61.205902310198	0.157218676885
2	6307	61.363120987083	0.162024460171
2	6313	61.525145447254	0.045550827747
2	6319	61.570696275001	0.000253331364
2	6321	61.570949606365	0.009155120846
2	6327	61.580104727211	0.058464721289
2	6336	61.6385694485	0.023372604844
2	6341	61.661942053344	0.047206855996
2	6346	61.70914890934	0.035175118874
2	6351	61.744324028214	0.031563404
2	6356	61.775887432214	0.031963954564
2	6361	61.807851386778	0.004055265731
2	6363	61.811906652509	0.013528304901
2	6371	61.82543495741	0.100715657797
2	6377	61.926150615207	0.134415413991
2	6383	62.060566029198	0.015858539399
2	6388	62.076424568597	0.001859088734
2	6390	62.078283657331	0.062849819234
2	6398	62.141133476565	0.006151849429
2	6400	62.147285325994	0.035394976673
2	6408	62.182680302667	0.020321319477
2	6414	62.203001622144	0.065629937576
2	6419	62.26863155972	0.012776004125
2	6424	62.281407563845	0.016151907414
2	6429	62.297559471259	0.060592781382
2	6435	62.358152252641	0.01396756763
2	6440	62.372119820271	0.112415598583
2	6446	62.484535418854	0.041617474805
2	6451	62.526152893659	0.210948757177
2	6458	62.737101650836	0.039491120936
2	6463	62.776592771772	0.003036382862
2	6465	62.779629154634	0.035137658684
2	6473	62.814766813318	0.039976917304
2	6478	62.854743730622	0.080384795616
2	6484	62.935128526238	0.136256746728
2	6489	63.071385272966	0.026006444321
2	6494	63.097391717287	0.024927156356
2	6499	63.122318873643	0.049735040901
2	6504	63.172053914544	0.028002377411
2	6509	63.200056291955	0.040662753886
2	6515	63.240719045841	0.021873223384
2	6520	63.262592269225	0.046914561016
2	6525	63.309506830241	0.011799838485
2	6530	63.321306668726	0.018755583072
2	6535	63.340062251798	0.041586103897
2	6540	63.381648355695	0.021267027392
2	6545	63.402915383087	0.208164600677
2	6550	63.611079983764	0.013605527297
2	6555	63.624685511061	0.000406046947
2	6557	63.625091558008	0.108035712295
2	6568	63.733127270303	0.071950178183
2	6573	63.805077448486	0.063683716822
2	6578	63.868761165308	0.051544314442
2	6583	63.92030547975	0.014104264442
2	6588	63.934409744192	0.032777190992
2	6594	63.967186935184	0.078669958367
2	6599	64.045856893551	0.067647183891
2	6604	64.113504077442	0.09105834642
2	6610	64.204562423862	0.01622487421
2	6615	64.220787298072	0.002549370946
2	6617	64.223336669018	0.004454572711
2	6619	64.227791241729	0.057148855896
2	6631	64.284940097625	0.017183785436
2	6636	64.302123883061	0.016597620387
2	6641	64.318721503448	0.063777096859
2	6647	64.382498600307	0.022451099606
2	6652	64.404949699913	0.060590961328
2	6657	64.465540661241	0.011299159771
2	6662	64.476839821012	0.080887593885
2	6667	64.557727414897	0.009788221491
2	6672	64.567515636388	0.007089502188
2	6674	64.574605138576	0.043183519056
2	6682	64.617788657632	0.088655009304
2	6687	64.706443666936	0.063310600445
2	6692	64.769754267381	0.020080801747
2	6697	64.789835069128	0.010914786853
2	6702	64.800749855981	0.042823256127
2	6707	64.843573112108	0.040623505739
2	6712	64.884196617847	0.11683560511
2	6717	65.001032222957	0.001259913882
2	6719	65.002292136839	0.103093235087
2	6727	65.105385371926	0.066207021603
2	6732	65.171592393529	0.00761615837
2	6734	65.179208551899	0.001551288358
2	6739	65.180759840257	0.060293857849
2	6747	65.241053698106	0.030690046621
2	6752	65.271743744727	0.002152486145
2	6754	65.273896230872	0.035806321796
2	6762	65.309702552668	0.13297088823
2	6768	65.442673440898	0.048467240401
2	6775	65.491140681299	0.069081554373
2	6780	65.560222235672	0.025914818103
2	6785	65.586137053775	0.005124081642
2	6787	65.591261135417	0.071465031664
2	6796	65.662726167081	0.072948648217
2	6803	65.735674815298	0.028594413247
2	6808	65.764269228545	0.108809901386
2	6814	65.873079129931	0.024685609826
2	6819	65.897764739757	0.043406199469
2	6824	65.941170939226	0.058270999793
2	6829	65.999441939019	0.044074675886
2	6834	66.043516614905	0.042463108373
2	6841	66.085979723278	0.018107331589
2	6846	66.104087054867	0.0653451046
2	6851	66.169432159467	0.063437293248
2	6857	66.232869452715	0.030017963806
2	6862	66.262887416521	0.100053539031
2	6867	66.362940955552	0.03917582844
2	6872	66.402116783992	0.016468703504
2	6877	66.418585487496	0.015864202007
2	6882	66.434449689503	0.064702792782
2	6888	66.499152482285	0.040107917064
2	6893	66.539260399349	0.063822523201
2	6899	66.60308292255	0.083018754556
2	6905	66.686101677106	0.064567812833
2	6910	66.750669489939	0.087003499434
2	6917	66.837672989373	0.080013267914
2	6922	66.917686257287	0.042756121529
2	6928	66.960442378816	0.032616563428
2	6934	66.993058942244	0.047885017587
2	6939	67.040943959831	0.043808740624
2	6944	67.084752700455	0.012962641715
2	6949	67.09771534217	0.091940468222
2	6955	67.189655810392	0.049519093443
2	6960	67.239174903835	0.009704811523
2	6965	67.248879715358	0.174812573818
2	6972	67.423692289176	0.026394249545
2	6977	67.450086538721	0.004685599986
2	6979	67.454772138707	0.155167779049
2	6987	67.609939917756	0.032507115539
2	6992	67.642447033295	0.146326967675
2	7000	67.78877400097	0.059014522754
2	7005	67.847788523724	0.01597396135
2	7010	67.863762485074	0.049152288563
2	7015	67.912914773637	0.188133163025
2	7023	68.101047936662	0.021109440643
2	7028	68.122157377305	0.01683638304
2	7033	68.138993760345	0.148614055578
2	7041	68.287607815923	0.064178936214
2	7046	68.351786752137	0.010360116794
2	7051	68.362146868931	0.031815260581
2	7056	68.393962129512	0.006322486126
2	7058	68.400284615638	0.021211192112
2	7066	68.42149580775	0.024001470437
2	7071	68.445497278187	0.016082463064
2	7076	68.461579741251	0.008400000847
2	7081	68.469979742098	0.054669849072
2	7087	68.52464959117	0.015344085782
2	7092	68.539993676952	0.059402503074
2	7097	68.599396180026	0.009114354583
2	7102	68.608510534609	0.035516008286
2	7107	68.644026542895	0.022168518369
2	7112	68.666195061264	0.010789952205
2	7117	68.676985013469	0.05807104214
2	7123	68.735056055609	0.003447695056
2	7125	68.738503750665	0.000365398704
2	7127	68.738869149369	0.033109361276
2	7138	68.771978510645	0.035896548514
2	7144	68.807875059159	0.019854632439
2	7149	68.827729691598	0.009471795349
2	7154	68.837201486947	0.083989489964
2	7160	68.921190976911	0.043907890478
2	7165	68.965098867389	0.031123639904
2	7170	68.996222507293	0.006780940969
2	7172	69.003003448262	0.080839260289
2	7180	69.083842708551	0.003057350006
2	7182	69.086900058557	0.088255657675
2	7190	69.175155716232	0.076413328987
2	7196	69.251569045219	0.067028227051
2	7202	69.31859727227	0.030298609235
2	7207	69.348895881505	0.109980878621
2	7213	69.458876760126	0.021943513308
2	7218	69.480820273434	0.053074168881
2	7223	69.533894442315	0.003761453584
2	7225	69.537655895899	0.001836661624
2	7227	69.539492557523	0.046999372067
2	7238	69.58649192959	0.017534087078
2	7243	69.604026016668	0.0566200095
2	7250	69.660646026168	0.045316953705
2	7255	69.705962979873	0.00138022312
2	7257	69.707343202993	0.00145050067
2	7259	69.708793703663	0.015259497683
2	7267	69.724053201346	0.073819793124
2	7275	69.79787299447	0.021845965744
2	7281	69.819718960214	0.094650723818
2	7286	69.914369684032	0.015923619105
2	7291	69.930293303137	0.100384514488
2	7296	70.030677817625	0.118907204252
2	7303	70.149585021877	0.017215798587
2	7308	70.166800820464	0.010117531378
2	7313	70.176918351842	0.108309437528
2	7319	70.28522778937	0.080647312584
2	7324	70.365875101954	0.016926163626
2	7329	70.38280126558	0.009878939184
2	7334	70.392680204764	0.055186454881
2	7340	70.447866659645	0.00860727297
2	7345	70.456473932615	0.011329777195
2	7351	70.46780370981	0.022417519541
2	7356	70.490221229351	0.048736963131
2	7361	70.538958192482	0.000965964933
2	7363	70.539924157415	0.006493143366
2	7365	70.546417300781	0.042530964536
2	7376	70.588948265317	0.004513012193
2	7378	70.59346127751	0.069486638292
2	7387	70.662947915802	0.02806679081
2	7392	70.691014706612	0.026887280418
2	7397	70.71790198703	0.069515802741
2	7402	70.787417789771	0.058476235957
2	7407	70.845894025728	0.050708953779
2	7413	70.896602979507	0.054684991395
2	7418	70.951287970902	0.007868634022
2	7420	70.959156604924	0.020598395915
2	7429	70.979755000839	0.189670307711
2	7435	71.16942530855	0.024232728367
2	7440	71.193658036917	0.085098186105
2	7445	71.278756223022	0.005428905321
2	7447	71.284185128343	0.064578063981
2	7456	71.348763192324	0.020692484977
2	7461	71.369455677301	0.003675116432
2	7464	71.373130793733	0.000265176882
2	7466	71.373395970615	0.034600714141
2	7477	71.407996684756	0.022738116871
2	7482	71.430734801627	0.030207082601
2	7487	71.460941884228	0.091480036632
2	7493	71.55242192086	0.005494343356
2	7495	71.557916264216	0.040603128474
2	7503	71.59851939269	0.048361339454
2	7508	71.646880732144	0.046597439588
2	7513	71.693478171732	0.044742708044
2	7518	71.738220879776	0.035981242421
2	7523	71.774202122197	0.119867129484
2	7531	71.894069251681	0.009372265197
2	7536	71.903441516878	0.001297310408
2	7538	71.904738827286	0.080626328655
2	7546	71.985365155941	0.074405728953
2	7551	72.059770884894	0.008851293244
2	7556	72.068622178138	0.014306257491
2	7561	72.082928435629	0.104956432368
2	7566	72.187884867997	0.052992068152
2	7573	72.240876936149	0.021274307888
2	7578	72.262151244037	0.013484046121
2	7583	72.275635290158	0.037606880569
2	7588	72.313242170727	0.106640450234
2	7593	72.419882620961	0.041433329216
2	7598	72.461315950177	0.09444034611
2	7603	72.555756296287	0.073498166222
2	7609	72.629254462509	0.066867333661
2	7614	72.69612179617	0.035696091347
2	7619	72.731817887517	0.036336832298
2	7624	72.768154719815	0.014764359676
2	7629	72.782919079491	0.02783198383
2	7634	72.810751063321	0.025658118161
2	7639	72.836409181482	0.066244822054
2	7646	72.902654003536	0.013246080354
2	7651	72.91590008389	0.022831727056
2	7656	72.938731810946	0.00242830909
2	7658	72.941160120036	0.096996733811
2	7667	73.038156853847	0.097065801109
2	7673	73.135222654956	0.076684868564
2	7678	73.21190752352	0.012377962154
2	7684	73.224285485674	0.218019934687
2	7689	73.442305420361	0.065985533182
2	7695	73.508290953543	0.043442957538
2	7700	73.551733911081	0.082917614589
2	7706	73.63465152567	0.024784822088
2	7713	73.659436347758	0.142476211819
2	7720	73.801912559577	0.049318726431
2	7725	73.851231286008	0.141567518912
2	7730	73.99279880492	0.015394999599
2	7735	74.008193804519	0.002036016529
2	7737	74.010229821048	0.140028980916
2	7746	74.150258801964	0.00536373529
2	7748	74.155622537254	0.073927241454
2	7756	74.229549778708	0.072804489962
2	7761	74.30235426867	0.006870508585
2	7763	74.309224777255	0.076352859653
2	7772	74.385577636908	0.212995252043
2	7780	74.598572888951	0.042332405692
2	7785	74.640905294643	0.029583573627
2	7791	74.67048886827	0.025710022195
2	7796	74.696198890465	0.070674019021
2	7802	74.766872909486	0.101613784181
2	7810	74.868486693667	0.01850503152
2	7815	74.886991725187	0.07390713188
2	7821	74.960898857067	0.09969122611
2	7828	75.060590083177	0.183989552191
2	7834	75.244579635368	0.007170282359
2	7836	75.251749917727	0.370400766405
2	7845	75.622150684132	0.033431184528
2	7850	75.65558186866	0.004608365527
2	7853	75.660190234187	0.118944222008
2	7861	75.779134456195	0.010066744116
2	7866	75.789201200311	0.059040426201
2	7871	75.848241626512	0.087380866041
2	7877	75.935622492553	0.129035990584
2	7886	76.064658483137	0.019088747997
2	7891	76.083747231134	0.042762756007
2	7896	76.126509987141	0.004196029482
2	7898	76.130706016623	0.057951142611
2	7906	76.188657159234	0.059884607572
2	7911	76.248541766806	0.012412875124
2	7916	76.26095464193	0.058686994631
2	7921	76.319641636561	0.003342776848
2	7923	76.322984413409	0.201135665231
2	7932	76.52412007864	0.022315060439
2	7937	76.546435139079	0.028572357368
2	7942	76.575007496447	0.051689660578
2	7948	76.626697157025	0.064360191129
2	7953	76.691057348154	0.026180537035
2	7958	76.717237885189	0.049013466831
2	7963	76.76625135202	0.021144279788
2	7969	76.787395631808	0.13797719186
2	7975	76.925372823668	0.002746657084
2	7977	76.928119480752	0.006103443288
2	7982	76.93422292404	0.030671355127
2	7991	76.964894279167	0.026112209224
2	7996	76.991006488391	0.035379581855
2	8001	77.026386070246	0.059275066781
2	8008	77.085661137027	0.017222035078
2	8014	77.102883172105	0.104681162309
2	8021	77.207564334414	0.037720508238
2	8027	77.245284842652	0.084016264896
2	8032	77.329301107548	0.027611245642
2	8037	77.35691235319	0.093859274968
2	8044	77.450771628158	0.056899655247
2	8049	77.507671283405	0.244425193655
2	8057	77.75209647706	0.054769761128
2	8063	77.806866238188	0.00897102394
2	8068	77.815837262128	0.007589205935
2	8074	77.823426468063	0.05287575482
2	8079	77.876302222883	0.165274972823
2	8086	78.041577195706	0.021350279799
2	8091	78.062927475505	0.01831848326
2	8096	78.081245958765	0.028713692578
2	8101	78.109959651343	0.020738429393
2	8106	78.130698080736	0.03413880339
2	8112	78.164836884126	0.006586150711
2	8114	78.171423034837	0.086323909168
2	8122	78.257746944005	0.00418130277
2	8124	78.261928246775	0.022016803586
2	8132	78.283945050361	0.009612113248
2	8137	78.293557163609	0.109257522337
2	8143	78.402814685946	0.009758139224
2	8148	78.41257282517	0.001270215106
2	8150	78.413843040276	0.077955931438
2	8158	78.491798971714	0.072470172526
2	8164	78.56426914424	0.014652686477
2	8170	78.578921830717	0.066987607385
2	8175	78.645909438102	0.055564741761
2	8180	78.701474179863	0.106375421623
2	8185	78.807849601486	0.037637364058
2	8191	78.845486965544	0.003099336303
2	8193	78.848586301847	0.057999337378
2	8202	78.906585639225	0.004980634726
2	8204	78.911566273951	0.154077667773
2	8215	79.065643941724	0.034765900655
2	8221	79.100409842379	0.018884092204
2	8226	79.119293934583	0.018999140276
2	8231	79.138293074859	0.059250238082
2	8237	79.197543312941	0.000222637481
2	8239	79.197765950422	0.106915843071
2	8248	79.304681793493	0.047846324497
2	8253	79.35252811799	0.010356590667
2	8258	79.362884708657	0.0274884905
2	8263	79.390373199157	0.099007348973
2	8269	79.48938054813	0.06049920738
2	8274	79.54987975551	0.016684626727
2	8279	79.566564382237	0.020189753137
2	8287	79.586754135374	0.085253059242
2	8294	79.672007194616	0.098811277995
2	8302	79.770818472611	0.01333859298
2	8308	79.784157065591	0.136868280363
2	8313	79.921025345954	0.057624743027
2	8319	79.978650088981	0.100917976627
2	8325	80.079568065608	0.008628096669
2	8330	80.088196162277	0.029600395521
2	8335	80.117796557798	0.079720703163
2	8341	80.197517260961	0.104610374867
2	8350	80.302127635828	0.015252295406
2	8355	80.317379931234	0.020003784901
2	8360	80.337383716135	0.011167785157
2	8365	80.348551501292	0.009409328395
2	8370	80.357960829687	0.086357312588
2	8375	80.444318142275	0.015463883091
2	8380	80.459782025366	0.072216718161
2	8385	80.531998743527	0.006792655077
2	8387	80.538791398604	0.086582996672
2	8395	80.625374395276	0.08505412283
2	8400	80.710428518106	0.03395360809
2	8405	80.744382126196	0.038529722716
2	8411	80.782911848912	0.004198158646
2	8413	80.787110007558	0.009263404922
2	8418	80.79637341248	0.05535753857
2	8426	80.85173095105	0.067822102306
2	8432	80.919553053356	0.094081288307
2	8437	81.013634341663	0.097069992529
2	8444	81.110704334192	0.017302459558
2	8449	81.12800679375	0.011180383589
2	8454	81.139187177339	0.015549195874
2	8460	81.154736373213	0.100851161004
2	8466	81.255587534217	0.004126547797
2	8468	81.259714082014	0.059510583609
2	8476	81.319224665623	0.010683573623
2	8481	81.329908239246	0.008918715896
2	8486	81.338826955142	0.083444112523
2	8491	81.422271067665	0.095651771413
2	8496	81.517922839078	0.04443759977
2	8501	81.562360438848	0.04733406883
2	8508	81.609694507678	0.074544335413
2	8514	81.684238843091	0.021792879435
2	8521	81.706031722526	0.011750025465
2	8527	81.717781747991	0.035437580346
2	8532	81.753219328337	0.000405949805
2	8534	81.753625278142	0.029816794341
2	8542	81.783442072483	0.02412706997
2	8547	81.807569142453	0.051584594803
2	8552	81.859153737256	0.024575484895
2	8557	81.883729222151	0.060290703767
2	8562	81.944019925918	0.020390797268
2	8567	81.964410723186	0.212535811857
2	8572	82.176946535043	0.172133465962
2	8578	82.349080001005	0.257355579281
2	8586	82.606435580286	0.058823918842
2	8591	82.665259499128	0.088262590267
2	8598	82.753522089395	0.055592128174
2	8603	82.809114217569	0.055412456284
2	8608	82.864526673853	0.112962761179
2	8614	82.977489435032	0.010987334125
2	8619	82.988476769157	0.011092794502
2	8624	82.999569563659	0.013101376797
2	8630	83.012670940456	0.013133988887
2	8635	83.025804929343	0.006659665286
2	8637	83.032464594629	0.018067984355
2	8645	83.050532578984	0.011022843623
2	8650	83.061555422607	0.005541502441
2	8652	83.067096925048	0.002899458509
2	8657	83.069996383557	0.04852470378
2	8665	83.118521087337	0.049200848932
2	8672	83.167721936269	0.020151096716
2	8677	83.187873032985	0.00453646386
2	8679	83.192409496845	0.015856385109
2	8687	83.208265881954	0.063681182933
2	8692	83.271947064887	0.002349325653
2	8694	83.27429639054	0.006307347821
2	8699	83.280603738361	0.011279625673
2	8704	83.291883364034	0.012101951273
2	8712	83.303985315307	0.091384755743
2	8718	83.39537007105	0.01371926052
2	8723	83.40908933157	0.0395036576
2	8728	83.44859298917	0.050343144137
2	8733	83.498936133307	0.288034186042
2	8741	83.786970319349	0.013694057915
2	8746	83.800664377264	0.017548717909
2	8751	83.818213095173	0.050745751728
2	8758	83.868958846901	0.111096636564
2	8764	83.980055483465	0.006573074578
2	8766	83.986628558043	0.113775141332
2	8776	84.100403699375	0.029059718094
2	8782	84.129463417469	0.012788062583
2	8787	84.142251480052	0.008466397215
2	8793	84.150717877267	0.032147775691
2	8798	84.182865652958	0.080672292797
2	8803	84.263537945755	0.060532844535
2	8809	84.32407079029	0.030370499191
2	8814	84.354441289481	0.04455311622
2	8819	84.398994405701	0.008907792618
2	8824	84.407902198319	0.097019804968
2	8831	84.504922003287	0.076543397846
2	8837	84.581465401133	0.009754969101
2	8842	84.591220370234	0.013636005497
2	8847	84.604856375731	0.027780744345
2	8852	84.632637120076	0.05423335556
2	8857	84.686870475636	0.020656838516
2	8862	84.707527314152	0.012552454429
2	8867	84.720079768581	0.046052048698
2	8872	84.766131817279	0.100058480904
2	8878	84.866190298183	0.002265782989
2	8880	84.868456081172	0.050193115475
2	8888	84.918649196647	0.088894720368
2	8894	85.007543917015	0.029558993805
2	8900	85.03710291082	0.029545795582
2	8906	85.066648706402	0.007824994654
2	8908	85.074473701056	0.050635155709
2	8916	85.125108856765	0.103432131919
2	8922	85.228540988684	0.021768682343
2	8927	85.250309671027	0.110127148794
2	8935	85.360436819821	0.030059806132
2	8940	85.390496625953	0.056504950157
2	8946	85.44700157611	0.108614466307
2	8952	85.555616042417	0.041491949628
2	8957	85.597107992045	0.063920102738
2	8963	85.661028094783	0.058256867742
2	8969	85.719284962525	0.130416986127
2	8975	85.849701948652	0.001521173216
2	8977	85.851223121868	0.001910452
2	8979	85.853133573868	0.087836737339
2	8991	85.940970311207	0.004621921991
2	8993	85.945592233198	0.112072911789
2	9004	86.057665144987	0.042193108396
2	9009	86.099858253383	0.038471897033
2	9014	86.138330150416	0.058996809201
2	9020	86.197326959617	0.019259580824
2	9026	86.216586540441	0.048724679173
2	9031	86.265311219614	0.056879870394
2	9037	86.322191090008	0.007014691876
2	9039	86.329205781884	0.183324354009
2	9049	86.512530135893	0.016028850587
2	9054	86.52855898648	0.020261979013
2	9059	86.548820965493	0.074676501869
2	9064	86.623497467362	0.007443745515
2	9066	86.630941212877	0.207254926443
2	9076	86.83819613932	0.013921702565
2	9081	86.852117841885	0.010693609631
2	9086	86.862811451516	0.1842694597
2	9092	87.047080911216	0.096407101765
2	9097	87.143488012981	0.023859356995
2	9103	87.167347369976	0.035531420602
2	9108	87.202878790578	0.170857040125
2	9114	87.373735830703	0.033123538462
2	9119	87.406859369165	0.016354249895
2	9124	87.42321361906	0.061214875326
2	9131	87.484428494386	0.013039299443
2	9136	87.497467793829	0.026677454015
2	9141	87.524145247844	0.018847219586
2	9146	87.54299246743	0.003399450773
2	9148	87.546391918203	0.100708280944
2	9158	87.647100199147	0.039123054933
2	9164	87.68622325408	0.020326188725
2	9169	87.706549442805	0.011550934998
2	9174	87.718100377803	0.020625587203
2	9179	87.738725965006	0.021738697727
2	9184	87.760464662733	0.035692416929
2	9189	87.796157079662	0.03486046997
2	9194	87.831017549632	0.133032387552
2	9200	87.964049937184	0.049910277824
2	9205	88.013960215008	0.081493143709
2	9211	88.095453358717	0.014838442615
2	9216	88.110291801332	0.00921961885
2	9221	88.119511420182	0.05265782854
2	9226	88.172169248722	0.017825030598
2	9231	88.18999427932	0.074620654375
2	9237	88.264614933695	0.097422779228
2	9242	88.362037712923	0.008449055617
2	9247	88.37048676854	0.017283904136
2	9252	88.387770672676	0.0468407253
2	9257	88.434611397976	0.149089004449
2	9262	88.583700402425	0.250803320625
2	9269	88.83450372305	0.056968480855
2	9275	88.891472203905	0.251097312753
2	9282	89.142569516658	0.029293728104
2	9287	89.171863244762	0.194113280408
2	9292	89.36597652517	0.003612951691
2	9294	89.369589476861	0.001872894003
2	9296	89.371462370864	0.110705196658
2	9307	89.482167567522	0.014508190693
2	9312	89.496675758215	0.092673834053
2	9317	89.589349592268	0.056361362118
2	9323	89.645710954386	0.020068768386
2	9329	89.665779722772	0.034323215832
2	9334	89.700102938604	0.031696424757
2	9339	89.731799363361	0.051046460488
2	9344	89.782845823849	0.022651163042
2	9349	89.805496986891	0.032521889068
2	9354	89.838018875959	0.046939688489
2	9359	89.884958564448	0.095950430808
2	9364	89.980908995256	0.084235410289
2	9369	90.065144405545	0.020936279443
2	9374	90.086080684988	0.026720103371
2	9379	90.112800788359	0.026986919641
2	9384	90.139787708	0.056422175516
2	9390	90.196209883516	0.018108062112
2	9395	90.214317945628	0.061986437549
2	9401	90.276304383177	0.006053005128
2	9403	90.282357388305	0.017715839483
2	9411	90.300073227788	0.069066176542
2	9416	90.36913940433	0.194297070543
2	9422	90.563436474873	0.138444634475
2	9427	90.701881109348	0.001817584558
2	9429	90.703698693906	0.091510057344
2	9438	90.79520875125	0.008688439427
2	9443	90.803897190677	0.049724703775
2	9449	90.853621894452	0.136519302103
2	9455	90.990141196555	0.121271632324
2	9461	91.111412828879	0.015830670242
2	9468	91.127243499121	0.094240755799
2	9473	91.22148425492	0.020526310658
2	9478	91.242010565578	0.021884597444
2	9485	91.263895163022	0.051488165685
2	9490	91.315383328707	0.061240197951
2	9495	91.376623526658	0.038765254189
2	9501	91.415388780847	0.092219118022
2	9507	91.507607898869	0.046462263624
2	9512	91.554070162493	0.034307216787
2	9519	91.58837737928	0.063337765424
2	9524	91.651715144704	0.010543942039
2	9529	91.662259086743	0.013310821623
2	9534	91.675569908366	0.03237390953
2	9539	91.707943817896	0.009370042096
2	9544	91.717313859992	0.045178121301
2	9549	91.762491981293	0.086186879072
2	9554	91.848678860365	0.014495280895
2	9559	91.86317414126	0.076817717705
2	9564	91.939991858965	0.142371618639
2	9571	92.082363477604	0.045530507274
2	9576	92.127893984878	0.075431205877
2	9582	92.203325190755	0.048953126242
2	9587	92.252278316997	0.026809134033
2	9593	92.27908745103	0.035807779983
2	9598	92.314895231013	0.073758056376
2	9603	92.388653287389	0.050065485562
2	9608	92.438718772951	0.033986014911
2	9613	92.472704787862	0.113319702046
2	9619	92.586024489908	0.084198560969
2	9625	92.670223050877	0.000322089113
2	9627	92.67054513999	0.015825701416
2	9635	92.686370841406	0.172990376862
2	9644	92.859361218268	0.026984120243
2	9649	92.886345338511	0.046204520637
2	9655	92.932549859148	0.145116600356
2	9663	93.077666459504	0.152897401456
2	9669	93.23056386096	0.117014389668
2	9674	93.347578250628	0.213616286128
2	9680	93.561194536756	0.035397643168
2	9686	93.596592179924	0.004965982134
2	9688	93.601558162058	0.013114198229
[...]
19	19475	183.057129539088	2.6526108570057
19	19805	185.709740396094	3.3508551700676
19	20109	189.060595566162	0.73366445276385
19	20183	189.794260018926	6.6991182217281
19	21023	196.493378240654	0.5528059933076
19	21082	197.046184233962	1.1149238451073
19	21182	198.161108079069	0.31078269931184
19	21219	198.471890778381	0.034117509509963
19	21220	198.506008287891	1.3638413697042
19	21343	199.869849657595	1.1128302120388
19	21417	200.982679869634	1.210024355007
19	21541	202.192704224641	0.22761715772281
19	21558	202.420321382364	2.793740058294
19	21836	205.214061440658	0.60006784541945
19	21889	205.814129286077	2.7409764013931
19	22172	208.55510568747	1.2446910933517
19	22304	209.799796780822	4.2165564190831
19	22751	214.016353199905	0.93135747879717
19	22843	214.947710678702	1.0126036474471
19	22948	215.960314326149	0.55431539229487
19	22999	216.514629718444	1.1572720074133
19	23123	217.671901725857	0.44277820920512
19	23167	218.114679935062	1.6891025136055
19	23331	219.803782448667	1.5462934360356
19	23513	221.350075884703	0.21719492483686
19	23526	221.56727080954	2.8724646429548
19	23887	224.439735452495	7.9815159887829
19	24693	232.421251441278	1.1899143907458
19	24820	233.611165832024	2.2853753336972
19	25047	235.896541165721	0.51441396908768
19	25094	236.410955134809	0.73535481108152
19	25196	237.146309945891	0.73326250518704
19	25290	237.879572451078	1.1087844289394
19	25423	238.988356880017	1.2504934027311
19	25564	240.238850282748	0.4224100535407
19	25580	240.661260336289	5.5680486582862
19	26107	246.229308994575	0.69838065718858
19	26204	246.927689651764	0.11334762976656
19	26227	247.041037281531	1.9656872404376
19	26449	249.006724521969	8.4569924243146
19	27398	257.463716946284	2.040220912755
19	27567	259.503937859039	1.6790205784749
19	27761	261.182958437514	0.18914589095429
19	27793	261.372104328468	0.01631092795144
19	27794	261.388415256419	1.2485712555657
19	27890	262.636986511985	1.2479845487412
19	28030	263.884971060726	0.12447049220414
19	28050	264.00944155293	0.50470983869657
19	28080	264.514151391627	4.280086247545
19	28581	268.794237639172	2.6001055310243
19	28911	271.394343170196	3.2041336392561
19	29237	274.598476809452	2.1748205719322
19	29499	276.773297381384	1.221443623715
19	29604	277.994741005099	1.0096682794417
19	29729	279.004409284541	3.012405808456
19	30072	282.016815092997	5.740118551285
19	30625	287.756933644282	3.297887683587
19	31027	291.054821327869	3.9243995332468
19	31408	294.979220861116	0.56198746493305
19	31468	295.541208326049	0.072490416270148
19	31469	295.613698742319	2.1458801549155
19	31706	297.759578897234	1.4128834664157
19	31860	299.17246236365	3.2574194754572
19	32241	302.429881839107	0.67921890645469
19	32315	303.109100745562	4.8210135242542
19	32827	307.930114269816	4.187251710465
19	33274	312.117365980281	0.84646661059412
19	33362	312.963832590875	0.67863677883682
19	33424	313.642469369712	1.3334290038323
19	33620	314.975898373544	1.0898754450865
19	33745	316.065773818631	2.3889684353426
19	33999	318.454742253974	1.5358384221421
19	34125	319.990580676116	0.057520909764638
19	34126	320.048101585881	2.2074440723287
19	34370	322.25554565821	0.94290650149782
19	34453	323.198452159708	1.2502314360616
19	34559	324.44868359577	0.074220614703763
19	34563	324.522904210474	0.79863347383567
19	34634	325.32153768431	0.97633137880139
19	34730	326.297869063111	0.85500753904709
19	34845	327.152876602158	1.4800984907987
19	35015	328.632975092957	1.9098791883962
19	35213	330.542854281353	0.14928604966261
19	35221	330.692140331016	2.5056350660608
19	35465	333.197775397077	3.4180426359272
19	35818	336.615818033004	3.3528488174125
19	36145	339.968666850417	1.5180876555041
19	36322	341.486754505921	1.4656532979856
19	36494	342.952407803907	1.09602806805
19	36581	344.048435871957	0.71685529384979
19	36630	344.765291165807	0.50757559215442
19	36695	345.272866757961	1.3414799601924
19	36808	346.614346718153	0.68083938830834
19	36892	347.295186106461	0.14493499835246
19	36935	347.440121104813	0.59781325649358
19	37012	348.037934361307	4.0168425435963
19	37492	352.054776904903	0.23350393065736
19	37543	352.28828083556	0.22493795340414
19	37573	352.513218788964	0.30998020445568
19	37603	352.82319899342	2.158364937004
19	37842	354.981563930424	4.2812776407671
19	38305	359.262841571191	2.1233958303404
19	38549	361.386237401531	1.730979809938
19	38743	363.117217211469	1.1779967158296
19	38844	364.295213927299	2.0452991780149
19	39109	366.340513105314	1.9068805772561
19	39234	368.24739368257	3.9765032016536
19	39666	372.223896884224	1.117026267214
19	39790	373.340923151438	1.4903171066075
19	39962	374.831240258045	2.0432258830389
19	40127	376.874466141084	1.2609560102849
19	40282	378.135422151369	0.70825697309405
19	40351	378.843679124463	2.6465332280157
19	40643	381.490212352479	2.0915815833539
19	40849	383.581793935833	0.41394665640608
19	40911	383.995740592239	0.65077393564083
19	40979	384.64651452788	3.7754856376902
19	41423	388.42200016557	4.7157605906527
19	41943	393.137760756223	1.2075595463279
19	42041	394.345320302551	0.8924569489538
19	42141	395.237777251505	0.50267794285308
19	42191	395.740455194358	4.755570435476
20	1666	15.815994623195	1.4111358840502
20	1766	17.227130507245	0.51268775182582
20	1834	17.739818259071	2.5702590362053
20	2102	20.310077295276	7.9133167777578
20	2907	28.223394073034	0.38005848078833
20	2942	28.603452553822	8.3358543389725
20	3709	36.939306892795	2.2110614206335
20	3926	39.150368313429	1.0454566687769
20	4025	40.195824982206	2.9738041427019
20	4322	43.169629124908	2.1110562603479
20	4535	45.280685385256	0.192784610028
20	4558	45.473469995284	2.1664867276941
20	4793	47.639956722978	2.6915141822644
20	5068	50.331470905242	6.0267362495163
20	5744	56.358207154758	3.2513741367142
20	6117	59.609581291472	8.0492219874054
20	6997	67.658803278877	0.52608033850697
20	7038	68.184883617384	1.6204116589491
20	7277	69.805295276333	0.80769140355341
20	7386	70.612986679886	1.6026040935926
20	7572	72.215590773479	0.65182644453426
20	7644	72.867417218013	5.6280419219237
20	8160	78.495459139937	1.1997106100039
20	8299	79.695169749941	7.627221067547
20	9113	87.322390817488	3.4554157607406
20	9437	90.777806578229	0.033105384285735
20	9445	90.810911962515	0.1617333030943
20	9454	90.972645265609	1.5973161393129
20	9618	92.569961404922	0.55788537381894
20	9668	93.127846778741	0.7357323815722
20	9724	93.863579160313	3.2679029933451
20	10065	97.131482153658	1.0777459400399
20	10187	98.209228093698	0.16788350838476
20	10199	98.377111602083	0.19293917567732
20	10206	98.57005077776	0.31589481856169
20	10234	98.885945596322	3.8182217686793
20	10615	102.704167365001	3.2159300943558
20	10921	105.920097459357	1.3837692813782
20	11057	107.303866740735	4.5070850473152
20	11621	111.81095178805	2.9490831093965
20	11881	114.760034897447	2.8210241113338
20	12124	117.581059008781	0.74195904831808
20	12183	118.323018057099	0.54401833958485
20	12240	118.867036396684	1.7162712650408
20	12447	120.583307661725	3.4770272497285
20	12883	124.060334911454	1.2397546939998
20	12993	125.300089605454	1.0425522514998
20	13123	126.342641856954	1.6939695079589
20	13279	128.036611364913	0.2165028045611
20	13303	128.253114169474	1.8854177723988
20	13494	130.138531941873	5.5075934293964
20	14086	135.646125371269	0.61557976409144
20	14140	136.26170513536	3.6610818051387
20	14470	139.922786940499	0.29254293661333
20	14480	140.215329877112	2.6845505685446
20	14831	142.899880445657	2.6286973761603
20	15146	145.528577821817	0.47654631899603
20	15210	146.005124140813	0.77818599309358
20	15314	146.783310133907	0.17725041805911
20	15321	146.960560551966	0.43384913782275
20	15365	147.394409689789	0.43961184985262
20	15387	147.834021539642	0.64487728076638
20	15473	148.478898820408	0.12177610425704
20	15489	148.600674924665	0.56235256935089
20	15548	149.163027494016	3.2647087355164
20	15916	152.427736229532	0.019664704590388
20	15920	152.447400934122	3.6838936270142
20	16366	156.131294561136	2.1848364706077
20	16646	158.316131031744	5.0112335839687
20	17216	163.327364615713	2.9838513135445
20	17558	166.311215929258	1.8126981924735
20	17800	168.123914121731	4.5037563478135
20	18337	172.627670469545	3.5437803210549
20	18766	176.1714507906	0.066639722655035
20	18778	176.238090513255	0.12529905127356
20	18802	176.363389564529	0.11881795152399
20	18821	176.482207516053	0.50169289790839
20	18854	176.983900413961	1.9527038588835
20	19094	178.936604272845	1.8197637002456
20	19239	180.756367973091	1.0936592880266
20	19351	181.850027261118	3.4263616440801
20	19767	185.276388905198	0.2265178130701
20	19796	185.502906718268	1.2107089732565
20	19910	186.713615691525	0.90212526495907
20	19997	187.615740956484	6.4508258781018
20	20762	194.066566834586	0.3357249004838
20	20815	194.40229173507	1.2449849856589
20	20966	195.647276720729	0.62215747908878
20	21011	196.269434199818	9.1082673645721
20	21865	205.37770156439	1.7729144170724
20	22036	207.150615981462	3.3177078603997
20	22351	210.468323841862	1.1293697842553
20	22486	211.597693626117	1.4211569009556
20	22621	213.018850527073	1.2678640168615
20	22767	214.286714543934	2.2154883488415
20	22996	216.502202892775	1.1957329879503
20	23124	217.697935880725	0.073098993562279
20	23135	217.771034874287	1.1675388286702
20	23260	218.938573702957	1.6256985619916
20	23412	220.564272264949	3.8356671558001
20	23881	224.399939420749	0.88775105582479
20	23969	225.287690476574	1.0230628471938
20	24106	226.310753323768	0.91879523744519
20	24176	227.229548561213	0.11133150876961
20	24183	227.340880069983	0.42806831375986
20	24235	227.768948383743	1.1696801059323
20	24349	228.938628489675	4.8162315703643
20	24841	233.754860060039	0.28406975580521
20	24868	234.038929815844	0.90011174245415
20	24946	234.939041558298	1.0383311797033
20	25061	235.977372738001	1.0306040678979
20	25179	237.007976805899	0.37397143919389
20	25223	237.381948245093	0.084616515506539
20	25229	237.4665647606	0.29620719592548
20	25273	237.762771956525	1.1461132791782
20	25406	238.908885235703	1.2380852857939
20	25548	240.146970521497	0.26570298979332
20	25571	240.41267351129	1.7911912094846
20	25731	242.203864720775	2.1846196333988
20	25941	244.388484354174	1.7517330047343
20	26095	246.140217358908	0.36026856155187
20	26152	246.50048592046	1.0686958481339
20	26289	247.569181768594	1.0362631915034
20	26400	248.605444960097	3.0198465399989
20	26791	251.625291500096	0.12483850064718
20	26821	251.750130000743	0.19980313834917
20	26855	251.949933139092	0.76870878410866
20	26941	252.718641923201	0.0031942659796743
20	26942	252.721836189181	1.2578628789248
20	27059	253.979699068106	2.8454049528435
20	27333	256.825104020949	1.6042737789802
20	27486	258.429377799929	1.4627126626999
20	27615	259.892090462629	1.0708751195723
20	27735	260.962965582201	0.62122038153474
20	27811	261.584185963736	0.18554078543241
20	27829	261.769726749168	2.1172424629915
20	28031	263.88696921216	1.892442089458
20	28221	265.779411301618	0.41688954940391
20	28305	266.196300851022	2.1123720373429
20	28517	268.308672888365	0.69136782969022
20	28600	269.000040718055	1.0098454891853
20	28729	270.00988620724	0.12849563629477
20	28752	270.138381843535	3.1972021873008
20	29130	273.335584030836	2.2113042160744
20	29322	275.54688824691	4.9500510671447
20	29879	280.496939314055	0.19567031227663
20	29899	280.692609626332	0.26020138653009
20	29939	280.952811012862	2.5726445725068
20	30214	283.525455585369	2.54074822019
20	30450	286.066203805559	2.6177123015847
20	30701	288.683916107144	0.1990720775381
20	30708	288.882988184682	5.045773639029
20	31301	293.928761823711	1.0958651873662
20	31416	295.024627011077	0.62348110590002
20	31472	295.648108116977	6.5453125258205
20	32229	302.193420642797	1.9681730613843
20	32432	304.161593704181	7.4872461021871
20	33235	311.648839806368	2.9872731911308
20	33567	314.636112997499	0.025201311966421
20	33568	314.661314309465	2.5360510431717
20	33859	317.197365352637	0.84735045450875
20	33928	318.044715807146	4.9118530611613
20	34434	322.956568868307	1.0351820333098
20	34505	323.991750901617	6.6854068279238
20	35220	330.677157729541	1.2843313115347
20	35341	331.961489041076	2.2813360535662
20	35547	334.242825094642	1.1467038812724
20	35655	335.389528975914	0.46092221360859
20	35703	335.850451189523	0.58181479534666
20	35792	336.43226598487	1.6853346023722
20	35988	338.117600587242	1.3381042800585
20	36103	339.455704867301	0.54734144650801
20	36151	340.003046313809	2.3500402579443
20	36419	342.353086571753	1.676585849325
20	36572	344.029672421078	0.46924519280977
20	36599	344.498917613888	0.32865045578194
20	36636	344.82756806967	0.79641985051114
20	36726	345.623987920181	5.7641607233883
20	37400	351.388148643569	1.3979718102023
20	37595	352.786120453771	5.4935635674027
20	38198	358.279684021174	0.54663804180033
20	38263	358.826322062974	3.8893519084061
20	38707	362.71567397138	2.6086320073635
20	38988	365.324305978744	2.3560019549079
20	39200	367.680307933652	7.5871102088387
20	39994	375.267418142491	1.5731198065105
20	40126	376.840537949002	0.837704607469
20	40218	377.678242556471	1.1260332905491
20	40350	378.80427584702	2.7064396157043
20	40644	381.510715462724	1.4738875025603
20	40764	382.984602965284	1.7575586077545
20	40980	384.742161573039	3.6712952685974
20	41422	388.413456841636	0.18212918823661
20	41442	388.595586029873	0.14278495469831
20	41464	388.738370984571	1.5000550310975
20	41659	390.238426015668	0.54402161331698
20	41703	390.782447628985	0.23492308288222
20	41738	391.017370711867	2.9404782830643
20	42006	393.957848994931	0.33952142507297
20	42040	394.297370420004	1.3765199212142
20	42186	395.673890341218	0.060651315627101
20	42188	395.734541656845	0.51409152864293
20	42273	396.248633185488	0.32189086324623
20	42301	396.570524048734	0.040109086457339
20	42305	396.610633135191	1.8344451706939
20	42556	398.445078305885	1.055350756962
20	42629	399.500429062847	4.9488703542626
21	1719	16.67211362572	0.80924638179604
21	1797	17.481360007516	1.3224662836072
21	1937	18.803826291123	1.0261282317281
21	2056	19.829954522851	0.90049909477149
21	2125	20.730453617622	2.6635720796852
21	2370	23.394025697307	1.5725251023
21	2520	24.966550799607	8.344618826732
21	3374	33.311169626339	0.31903595817801
21	3392	33.630205584517	5.0163157431657
21	3862	38.646521327683	9.6052420323853
21	4884	48.251763360068	3.0567319849753
21	5188	51.308495345043	2.9960860810867
21	5537	54.30458142613	2.7394176758702
21	5832	57.043999102	8.6296922282773
21	6801	65.673691330277	3.5448253943516
21	7195	69.218516724629	4.5485694700799
21	7719	73.767086194709	3.3337875069363
21	8013	77.100873701645	0.53331921593309
21	8056	77.634192917578	2.2901278811559
21	8315	79.924320798734	0.055869786766911
21	8321	79.980190585501	1.7241895458145
21	8520	81.704380131315	0.7839759283068
21	8585	82.488356059622	0.39181038221656
21	8613	82.880166441839	0.23933025308942
21	8667	83.119496694928	2.7898210117278
21	8990	85.909317706656	1.5717860980544
21	9130	87.48110380471	0.42288597088233
21	9199	87.903989775592	1.1937434990238
21	9281	89.097733274616	0.56492089918852
21	9328	89.662654173805	0.59022945529327
21	9400	90.252883629098	4.0190819107206
21	9810	94.271965539819	1.5943736007796
21	9966	95.866339140599	0.95424739221557
21	10031	96.820586532815	0.18113938848104
21	10049	97.001725921296	5.2515455601244
21	10570	102.25327148142	0.42555108717195
21	10614	102.678822568592	0.91300120143347
21	10690	103.591823770025	1.0783145174651
21	10772	104.67013828749	6.7605231469866
21	11562	111.430661434477	1.0405928517089
21	11697	112.471254286186	1.7277634843529
21	11820	114.199017770539	1.2624239475019
21	11971	115.461441718041	4.2879018927446
21	12343	119.749343610786	1.4457116352793
21	12534	121.195055246065	9.9803131552041
21	13593	131.175368401269	0.080314831117906
21	13594	131.255683232387	0.16436539341771
21	13611	131.420048625805	4.1286981207794
21	14058	135.548746746584	1.607187311974
21	14239	137.155934058558	7.5883819494245
21	15070	144.744316007983	1.3549787221986
21	15216	146.099294730182	3.2353079325537
21	15572	149.334602662736	2.9376193761283
21	15887	152.272222038864	0.097306315221825
21	15900	152.369528354086	1.6573182431997
21	16091	154.026846597286	5.1639841248167
21	16779	159.190830722103	2.8641820392081
21	17111	162.055012761311	4.4120016735324
21	17581	166.467014434843	5.9252671931574
21	18305	172.392281628	1.3749945831743
21	18463	173.767276211174	2.3996025607368
21	18765	176.166878771911	7.3784702932308
21	19534	183.545349065142	0.56735373231155
21	19618	184.112702797454	2.4083954380573
21	19888	186.521098235511	7.0804600427825
21	20692	193.601558278294	1.9037224460972
21	20932	195.505280724391	0.1036816749741
21	20955	195.608962399365	0.15961125312462
21	20985	195.76857365249	1.1478775348995
21	21071	196.91645118739	3.0598861221985
21	21349	199.976337309588	2.8398345545901
21	21584	202.816171864178	0.73493061858499
21	21679	203.551102482763	1.0091183298573
21	21787	204.56022081262	1.9361135162718
21	21953	206.496334328892	0.84612250952318
21	22057	207.342456838415	3.9365217662177
21	22444	211.278978604633	2.4325383454715
21	22709	213.711516950104	2.1417987902672
21	22947	215.853315740371	4.6559317988731
21	23400	220.509247539244	2.7899079026608
21	23685	223.299155441905	0.86757745081151
21	23839	224.166732892717	4.5869838180624
21	24318	228.753716710779	1.0497901325349
21	24447	229.803506843314	0.070414511322874
21	24454	229.873921354637	0.46736599773292
21	24498	230.34128735237	2.6801743941075
21	24760	233.021461746478	2.8263208291038
21	25044	235.847782575582	3.278963080971
21	25442	239.126745656553	0.97426638647261
21	25540	240.101012043026	0.24507124444934
21	25565	240.346083287475	1.6178550952406
21	25705	241.963938382716	0.28951092307145
21	25737	242.253449305787	1.8136707934722
21	25919	244.067120099259	1.0702866112014
21	26008	245.13740671046	1.2379769756723
21	26132	246.375383686132	5.8791181764666
21	26887	252.254501862599	3.7945421738712
21	27264	256.04904403647	0.20010668760085
21	27287	256.249150724071	1.6432175123252
21	27442	257.892368236396	1.5965976087563
21	27566	259.488965845152	1.2454042560094
21	27710	260.734370101161	2.1596938724847
21	27913	262.894063973646	0.067188690291906
21	27915	262.961252663938	12.802778185656
21	29343	275.764030849594	3.8478358694326
21	29784	279.611866719027	0.33162373291881
21	29819	279.943490451946	3.0127532265902
21	30144	282.956243678536	1.4056820156901
21	30295	284.361925694226	3.4037931942999
21	30629	287.765718888526	0.85280861269701
21	30690	288.618527501223	1.7241408615377
21	30935	290.342668362761	0.2448477862077
21	30963	290.587516148969	1.7945050306381
21	31183	292.382021179607	3.2413944141752
21	31470	295.623415593782	3.918670450153
21	31915	299.542086043935	1.7313542780019
21	32117	301.273440321937	3.9346319024768
21	32530	305.208072224414	1.9230533787676
21	32745	307.131125603182	3.8401986234425
21	33170	310.971324226624	1.2673106508903
21	33293	312.238634877514	0.7011223344907
21	33361	312.939757212005	4.1112640357859
21	33836	317.051021247791	4.8060426000611
21	34332	321.857063847852	0.49314357477311
21	34386	322.350207422625	0.76980285409346
21	34452	323.120010276718	1.6861663326261
21	34580	324.806176609344	2.9295917164151
21	34912	327.735768325759	11.828867094107
21	36125	339.564635419866	4.3954782034475
21	36558	343.960113623313	0.58233654288472
21	36605	344.542450166198	2.7827520299407
21	36908	347.325202196139	3.2688508642601
21	37317	350.594053060399	1.0150755787344
21	37437	351.609128639133	1.0000422659874
21	37582	352.60917090512	0.77308650607923
21	37664	353.382257411199	0.35220621612525
21	37691	353.734463627324	4.7151551196412
21	38220	358.449618746965	10.468647831324
21	39319	368.918266578289	1.4955059413936
21	39446	370.413772519683	0.14581502822669
21	39453	370.55958754791	5.7458220522221
21	40097	376.305409600132	4.5011983919657
21	40583	380.806607992098	1.6874560048873
21	40718	382.494063996985	0.80739454476111
21	40817	383.301458541746	0.71254991553541
21	40912	384.014008457281	12.783684133952
21	42343	396.797692591233	0.56696904354318
21	42408	397.364661634776	3.8071020258635

