file 4964753 1613057334                                         
version 2
run Nonmonitoring-exponential-0-20210211-16:28:24-18488
attr configname Nonmonitoring-exponential
attr datetime 20210211-16:28:24
attr experiment Nonmonitoring-exponential
attr inifile aerocom.ini
attr iterationvars ""
attr iterationvarsf ""
attr measurement ""
attr network Aerocom
attr processid 18488
attr repetition 0
attr replication #0
attr resultdir results
attr runnumber 0
attr seedset 0
param **.t 1s
param **.k 8ms
param **.nA 1
param **.nDL 2
param **.s "70 byte"
param **.X 0s
param **.dimPoolMax 10000
param **.dimPoolMin 8000
param **.tDistribution "\"exponential\""
param **.m 1s
param **.DLMaxCapacity 0
param **.trasmitting false
param **.operationMode 1

vector 0 Aerocom.aircraft[0].packetGenerator arrivalTime:vector ETV
attr "" ""
attr source computeArrivalTime
vector 1 Aerocom.aircraft[0].linkSelector queueLength:vector ETV
attr "" ""
attr source computeQueueLength
vector 2 Aerocom.aircraft[0].dataLink[0] actualCapacity:vector ETV
attr "" ""
attr source computeActualCapacity
vector 3 Aerocom.aircraft[0].dataLink[0] tDistribution:vector ETV
attr "" ""
attr source computeTDistribution
vector 4 Aerocom.aircraft[0].dataLink[1] tDistribution:vector ETV
attr "" ""
attr source computeTDistribution
0	1278 1338411 6218 170583 10.04046951262 269.446705818688 32768 3.2088e-008 0.085778599837 259.40696378874 4.1112583641301
1	1339689 915992 6219 170584 10.04046951262 269.446705818688 32768 0 0 0 0
2	2255681 1014296 6219 170584 10.04046951262 269.446705818688 32768 8001 9957 293172068 2630607316502
0	3269977 676198 170585 251784 269.44743330136 399.997061648231 16185 1.844876e-006 0.08280524076 130.55648189383 2.0971901410051
1	3946175 467592 170586 251785 269.44743330136 399.997061648231 16185 0 0 0 0
2	4413767 516147 170586 251785 269.44743330136 399.997061648231 16185 8038 9978 145835960 1317407158054
3	4929914 16329 6423 250385 10.406445964559 397.794134480315 381 0.0025859150943617 7.2888921875472 389.79042450314 784.24722775464
4	4946243 18508 6486 251441 10.550899540525 399.445771932568 431 0.00012359181449871 5.0916301550693 390.70428190774 689.55526860812

