version 2
run Nonmonitoring-exponential-535-20210224-17:49:32-27064
attr configname Nonmonitoring-exponential
attr datetime 20210224-17:49:32
attr experiment Nonmonitoring-exponential
attr inifile aerocom.ini
attr iterationvars $0=50
attr iterationvarsf 50-
attr measurement $0=50
attr network Aerocom
attr processid 27064
attr repetition 35
attr replication #35
attr resultdir results
attr runnumber 535
attr seedset 35
param **.t 2s
param **.k 50ms
param **.X 0.05s
param **.m 1s
param **.tDistribution "\"exponential\""
param **.operationMode 1
param **.s "70 byte"
param **.dimPoolMax 10000
param **.dimPoolMin 8000
param **.nDL 16
param **.nA 1
param **.DLMaxCapacity 0
param **.trasmitting false

vector 0 Aerocom.aircraft[0].packetGenerator arrivalTime:vector ETV
attr "" ""
attr source computeArrivalTime
vector 1 Aerocom.aircraft[0].linkSelector waitingTime:vector ETV
attr "" ""
attr source computeWaitingTime
vector 2 Aerocom.aircraft[0].linkSelector queueLength:vector ETV
attr "" ""
attr source computeQueueLength
vector 3 Aerocom.aircraft[0].dataLink[3] actualCapacity:vector ETV
attr "" ""
attr source computeActualCapacity
vector 4 Aerocom.aircraft[0].linkSelector serviceTime:vector ETV
attr "" ""
attr source computeServiceTime
vector 5 Aerocom.aircraft[0].linkSelector responseTime:vector ETV
attr "" ""
attr source computeResponseTime
vector 6 Aerocom.aircraft[0].dataLink[5] tDistribution:vector ETV
attr "" ""
attr source computeTDistribution
vector 7 Aerocom.aircraft[0].dataLink[9] tDistribution:vector ETV
attr "" ""
attr source computeTDistribution
vector 8 Aerocom.aircraft[0].dataLink[7] tDistribution:vector ETV
attr "" ""
attr source computeTDistribution
vector 9 Aerocom.aircraft[0].dataLink[3] tDistribution:vector ETV
attr "" ""
attr source computeTDistribution
vector 10 Aerocom.aircraft[0].dataLink[8] tDistribution:vector ETV
attr "" ""
attr source computeTDistribution
vector 11 Aerocom.aircraft[0].dataLink[10] tDistribution:vector ETV
attr "" ""
attr source computeTDistribution
vector 12 Aerocom.aircraft[0].dataLink[2] tDistribution:vector ETV
attr "" ""
attr source computeTDistribution
vector 13 Aerocom.aircraft[0].dataLink[1] tDistribution:vector ETV
attr "" ""
attr source computeTDistribution
vector 14 Aerocom.aircraft[0].dataLink[0] tDistribution:vector ETV
attr "" ""
attr source computeTDistribution
vector 15 Aerocom.aircraft[0].dataLink[15] tDistribution:vector ETV
attr "" ""
attr source computeTDistribution
vector 16 Aerocom.aircraft[0].dataLink[11] tDistribution:vector ETV
attr "" ""
attr source computeTDistribution
vector 17 Aerocom.aircraft[0].dataLink[4] tDistribution:vector ETV
attr "" ""
attr source computeTDistribution
vector 18 Aerocom.aircraft[0].dataLink[6] tDistribution:vector ETV
attr "" ""
attr source computeTDistribution
vector 19 Aerocom.aircraft[0].dataLink[14] tDistribution:vector ETV
attr "" ""
attr source computeTDistribution
vector 20 Aerocom.aircraft[0].dataLink[12] tDistribution:vector ETV
attr "" ""
attr source computeTDistribution
vector 21 Aerocom.aircraft[0].dataLink[13] tDistribution:vector ETV
attr "" ""
attr source computeTDistribution
0	1027	10.037637881626	0.022987089428
0	1033	10.060624971054	0.032189840811
0	1038	10.092814811865	0.10158823099
0	1044	10.194403042855	0.009809550067
0	1049	10.204212592922	0.08065344899
0	1055	10.284866041912	0.003121677205
0	1057	10.287987719117	0.090797226448
0	1065	10.378784945565	0.068873253782
0	1071	10.447658199347	0.130909425605
0	1076	10.578567624952	0.045320500777
0	1081	10.623888125729	0.002342122114
0	1083	10.626230247843	0.046343967656
0	1092	10.672574215499	0.028203297098
0	1097	10.700777512597	0.045894226847
0	1103	10.746671739444	0.126390488776
0	1109	10.87306222822	0.070943618654
0	1115	10.944005846874	0.14003052638
0	1121	11.084036373254	0.011628017547
0	1126	11.095664390801	0.075721192149
0	1132	11.17138558295	0.006150018494
0	1134	11.177535601444	0.010616464954
0	1142	11.188152066398	0.110250912695
0	1147	11.298402979093	0.12134881201
0	1152	11.419751791103	0.140237358264
0	1158	11.559989149367	0.004160390435
0	1160	11.564149539802	0.036277830756
0	1168	11.600427370558	0.071757059286
0	1173	11.672184429844	0.005806988151
0	1175	11.677991417995	0.021968200559
0	1183	11.699959618554	0.024685250276
0	1189	11.72464486883	0.003920095716
0	1191	11.728564964546	0.021431925088
0	1199	11.749996889634	0.087602603631
0	1204	11.837599493265	0.073644195865
0	1210	11.91124368913	0.038089419251
0	1216	11.949333108381	0.014907282709
0	1221	11.96424039109	0.016594747912
0	1226	11.980835139002	0.014508279871
0	1231	11.995343418873	0.022822625273
0	1236	12.018166044146	0.133278680656
0	1243	12.151444724802	0.071927590128
0	1249	12.22337231493	0.02381242237
0	1255	12.2471847373	0.006796160365
0	1257	12.253980897665	0.009732674804
0	1262	12.263713572469	0.168316879208
0	1271	12.432030451677	0.013045018953
0	1277	12.44507547063	0.062365448375
0	1282	12.507440919005	0.016506025137
0	1287	12.523946944142	0.043640138899
0	1292	12.567587083041	0.063405578333
0	1297	12.630992661374	0.045670047677
0	1303	12.676662709051	0.025996063501
0	1308	12.702658772552	0.012608583835
0	1313	12.715267356387	0.101139541768
0	1318	12.816406898155	0.096268739196
0	1324	12.912675637351	0.048191229213
0	1329	12.960866866564	0.01821755437
0	1334	12.979084420934	0.039388447118
0	1339	13.018472868052	0.03582195054
0	1345	13.054294818592	0.016289633446
0	1350	13.070584452038	0.056719006305
0	1355	13.127303458343	0.011159379127
0	1360	13.13846283747	0.012436686127
0	1365	13.150899523597	0.019385486089
0	1370	13.170285009686	0.073351804747
0	1377	13.243636814433	0.010220432607
0	1382	13.25385724704	0.000257578312
0	1384	13.254114825352	0.010396759485
0	1389	13.264511584837	0.040187627894
0	1397	13.304699212731	0.113128108826
0	1404	13.417827321557	0.01833692706
0	1409	13.436164248617	0.045619418274
0	1414	13.481783666891	0.0052556555
0	1416	13.487039322391	0.075523004036
0	1424	13.562562326427	0.018409429915
0	1430	13.580971756342	0.024927619708
0	1435	13.60589937605	0.033584127505
0	1440	13.639483503555	0.034893848764
0	1445	13.674377352319	0.066931078281
0	1450	13.7413084306	0.155848937136
0	1455	13.897157367736	0.030853426599
0	1460	13.928010794335	0.045095129629
0	1465	13.973105923964	0.183460417206
0	1474	14.15656634117	0.063109574733
0	1480	14.219675915903	0.071967679626
0	1486	14.291643595529	0.020219361856
0	1491	14.311862957385	0.012747611
0	1496	14.324610568385	0.078973672219
0	1501	14.403584240604	0.004893684644
0	1503	14.408477925248	0.058133232511
0	1511	14.466611157759	0.071261855742
0	1516	14.537873013501	0.042850074143
0	1522	14.580723087644	0.027496828284
0	1527	14.608219915928	0.006304005218
0	1529	14.614523921146	0.015334819097
0	1537	14.629858740243	0.011023139512
0	1542	14.640881879755	0.178847422016
0	1549	14.819729301771	0.039224023319
0	1554	14.85895332509	0.011739869212
0	1559	14.870693194302	0.017090123061
0	1564	14.887783317363	0.082942744457
0	1572	14.97072606182	0.034034841734
0	1578	15.004760903554	0.029884526967
0	1583	15.034645430521	0.070631568944
0	1590	15.105276999465	0.005381015556
0	1592	15.110658015021	0.013615426444
0	1600	15.124273441465	0.017216224068
0	1606	15.141489665533	0.013445803619
0	1612	15.154935469152	0.058084369638
0	1617	15.21301983879	0.054988212318
0	1623	15.268008051108	0.084878420014
0	1629	15.352886471122	0.030532808869
0	1634	15.383419279991	0.005177535438
0	1636	15.388596815429	0.099433063901
0	1644	15.48802987933	0.126815597849
0	1653	15.614845477179	0.054445266616
0	1658	15.669290743795	0.01377504093
0	1664	15.683065784725	0.035487060759
0	1669	15.718552845484	0.009659041086
0	1674	15.72821188657	0.022308545497
0	1679	15.750520432067	0.010754329827
0	1684	15.761274761894	0.071906271052
0	1689	15.833181032946	0.041960385309
0	1695	15.875141418255	0.00130192997
0	1697	15.876443348225	0.048476961755
0	1706	15.92492030998	0.052864544511
0	1711	15.977784854491	0.015045322929
0	1716	15.99283017742	0.149916981872
0	1721	16.142747159292	0.010643147574
0	1726	16.153390306866	0.083948779542
0	1733	16.237339086408	0.025176086174
0	1740	16.262515172582	0.189652091449
0	1749	16.452167264031	0.012838507566
0	1754	16.465005771597	0.077012295842
0	1759	16.542018067439	0.041134479877
0	1764	16.583152547316	0.035300656063
0	1770	16.618453203379	0.041658096306
0	1777	16.660111299685	0.007973025203
0	1779	16.668084324888	0.062563480557
0	1787	16.730647805445	0.033157497867
0	1792	16.763805303312	0.003393768073
0	1794	16.767199071385	0.027046922248
0	1803	16.794245993633	0.10419319281
0	1808	16.898439186443	0.084701290987
0	1813	16.98314047743	0.001684198593
0	1815	16.984824676023	0.079304199843
0	1825	17.064128875866	0.016048225417
0	1830	17.080177101283	0.047526831439
0	1835	17.127703932722	0.055420874501
0	1840	17.183124807223	0.067758031683
0	1845	17.250882838906	0.013594813306
0	1850	17.264477652212	0.00581333401
0	1852	17.270290986222	0.054560935577
0	1860	17.324851921799	0.032582190994
0	1865	17.357434112793	0.021733132367
0	1871	17.37916724516	0.012875162736
0	1877	17.392042407896	0.025928484075
0	1882	17.417970891971	0.060155248545
0	1887	17.478126140516	0.010167239222
0	1892	17.488293379738	0.016486768546
0	1897	17.504780148284	0.131144697596
0	1904	17.63592484588	0.018501820777
0	1909	17.654426666657	0.014705088146
0	1915	17.669131754803	0.065456838102
0	1921	17.734588592905	0.004198191324
0	1923	17.738786784229	0.028438818696
0	1932	17.767225602925	0.05264248393
0	1937	17.819868086855	0.02790764405
0	1942	17.847775730905	0.0340765429
0	1947	17.881852273805	0.103371958536
0	1952	17.985224232341	0.035240377075
0	1957	18.020464609416	0.024065123542
0	1962	18.044529732958	0.030871240102
0	1967	18.07540097306	0.05375410844
0	1973	18.1291550815	0.046872092107
0	1979	18.176027173607	0.07874868681
0	1984	18.254775860417	0.081186264623
0	1990	18.33596212504	0.021137421325
0	1995	18.357099546365	0.112668861801
0	2000	18.469768408166	0.137102063902
0	2005	18.606870472068	0.041087118551
0	2010	18.647957590619	0.001410791804
0	2012	18.649368382423	0.055240579792
0	2021	18.704608962215	0.246095904007
0	2028	18.950704866222	0.076008357326
0	2034	19.026713223548	0.045866638964
0	2040	19.072579862512	0.069161977852
0	2046	19.141741840364	0.079278039337
0	2051	19.221019879701	0.008533890376
0	2056	19.229553770077	0.113135633522
0	2063	19.342689403599	0.021707730364
0	2068	19.364397133963	0.132135616269
0	2074	19.496532750232	0.015562324661
0	2079	19.512095074893	0.036278793175
0	2085	19.548373868068	0.057984760105
0	2090	19.606358628173	0.066494561178
0	2096	19.672853189351	0.113111009177
0	2101	19.785964198528	0.00180943704
0	2103	19.787773635568	0.081872401199
0	2112	19.869646036767	0.069958894378
0	2117	19.939604931145	0.082515029555
0	2123	20.0221199607	0.040041324956
0	2128	20.062161285656	0.014874292232
0	2133	20.077035577888	0.006249778968
0	2135	20.083285356856	0.021016131301
0	2143	20.104301488157	0.051075601017
0	2149	20.155377089174	0.015861724347
0	2154	20.171238813521	0.058036125062
0	2161	20.229274938583	0.008938261613
0	2166	20.238213200196	0.005357135316
0	2168	20.243570335512	0.075451608416
0	2177	20.319021943928	0.206414759864
0	2182	20.525436703792	0.035567827267
0	2187	20.561004531059	0.168478932574
0	2196	20.729483463633	0.219104003024
0	2205	20.948587466657	0.083993544206
0	2210	21.032581010863	0.036113532261
0	2215	21.068694543124	0.061024598156
0	2222	21.12971914128	0.020194868567
0	2227	21.149914009847	0.052816988698
0	2232	21.202730998545	0.567732562778
0	2240	21.770463561323	0.016502941892
0	2245	21.786966503215	0.065047253629
0	2250	21.852013756844	0.081559014855
0	2257	21.933572771699	0.008474530272
0	2262	21.942047301971	0.073604633734
0	2267	22.015651935705	0.086375789908
0	2272	22.102027725613	0.197841648804
0	2277	22.299869374417	0.068502145354
0	2282	22.368371519771	0.009317267169
0	2287	22.37768878694	0.036711419789
0	2292	22.414400206729	0.011653060337
0	2297	22.426053267066	0.028029684614
0	2303	22.45408295168	0.015306490579
0	2309	22.469389442259	0.009213911782
0	2314	22.478603354041	0.0295053419
0	2319	22.508108695941	0.064413314192
0	2325	22.572522010133	0.289144354352
0	2334	22.861666364485	0.027836686109
0	2339	22.889503050594	0.053459056683
0	2344	22.942962107277	0.023841778293
0	2349	22.96680388557	0.142920176033
0	2354	23.109724061603	0.113611566313
0	2360	23.223335627916	0.024565561628
0	2365	23.247901189544	0.138130019811
0	2370	23.386031209355	0.103537622811
0	2375	23.489568832166	0.048526535785
0	2381	23.538095367951	0.026743309951
0	2386	23.564838677902	0.002405418602
0	2388	23.567244096504	0.028196831302
0	2396	23.595440927806	0.064410566766
0	2402	23.659851494572	0.041136975489
0	2407	23.700988470061	0.058624141424
0	2412	23.759612611485	0.056593503317
0	2420	23.816206114802	0.043497418033
0	2425	23.859703532835	0.032865519578
0	2430	23.892569052413	0.040521153518
0	2437	23.933090205931	0.07475619421
0	2442	24.007846400141	0.004516698162
0	2444	24.012363098303	0.077906612144
0	2453	24.090269710447	0.025113992063
0	2458	24.11538370251	0.063383269465
0	2463	24.178766971975	0.025424170087
0	2468	24.204191142062	0.056143521074
0	2474	24.260334663136	0.013800731645
0	2479	24.274135394781	0.000341474746
0	2481	24.274476869527	0.009425629391
0	2487	24.283902498918	0.176389443528
0	2495	24.460291942446	0.032674532774
0	2501	24.49296647522	0.103116814889
0	2508	24.596083290109	0.035262549593
0	2513	24.631345839702	0.022233220407
0	2518	24.653579060109	0.012048978315
0	2523	24.665628038424	0.073881123654
0	2529	24.739509162078	0.020013021544
0	2534	24.759522183622	0.076630757439
0	2539	24.836152941061	0.017845383068
0	2544	24.853998324129	0.201915233631
0	2551	25.05591355776	0.031238907186
0	2558	25.087152464946	0.023537633871
0	2564	25.110690098817	0.047226539131
0	2571	25.157916637948	0.018419725316
0	2576	25.176336363264	0.107581890055
0	2582	25.283918253319	0.015921602101
0	2587	25.29983985542	0.017615154474
0	2592	25.317455009894	0.046572290177
0	2597	25.364027300071	0.085044588937
0	2603	25.449071889008	0.054303051629
0	2608	25.503374940637	0.03478732536
0	2613	25.538162265997	0.019402823778
0	2618	25.557565089775	0.019085387671
0	2623	25.576650477446	0.02405599916
0	2628	25.600706476606	0.058999047635
0	2633	25.659705524241	0.051550164587
0	2639	25.711255688828	0.089227061424
0	2645	25.800482750252	0.066892821119
0	2650	25.867375571371	0.006392471193
0	2652	25.873768042564	0.093985930904
0	2661	25.967753973468	0.155799196723
0	2667	26.123553170191	0.040798758105
0	2672	26.164351928296	0.028746831774
0	2677	26.19309876007	0.027440925349
0	2682	26.220539685419	0.071780991589
0	2689	26.292320677008	0.006360000191
0	2691	26.298680677199	0.011464814953
0	2699	26.310145492152	0.005642047543
0	2701	26.315787539695	0.020372154375
0	2709	26.33615969407	0.212303699199
0	2716	26.548463393269	0.028897835741
0	2721	26.57736122901	0.012615550188
0	2726	26.589976779198	0.011074936329
0	2731	26.601051715527	0.006492730301
0	2733	26.607544445828	0.032248922306
0	2741	26.639793368134	0.048435402069
0	2747	26.688228770203	0.058720200443
0	2753	26.746948970646	0.009819960811
0	2758	26.756768931457	0.069560600536
0	2763	26.826329531993	0.017266575912
0	2768	26.843596107905	0.008221465124
0	2773	26.851817573029	0.012494166746
0	2779	26.864311739775	0.038501404985
0	2784	26.90281314476	0.021590120344
0	2790	26.924403265104	0.048232239447
0	2795	26.972635504551	0.057851561318
0	2800	27.030487065869	0.068373120937
0	2806	27.098860186806	0.068544963127
0	2811	27.167405149933	0.036412646888
0	2816	27.203817796821	0.098706352987
0	2821	27.302524149808	0.161230722198
0	2828	27.463754872006	0.033669227695
0	2833	27.497424099701	0.124185852365
0	2840	27.621609952066	0.045537819905
0	2845	27.667147771971	0.007961864034
0	2850	27.675109636005	0.006338473392
0	2852	27.681448109397	0.014765769534
0	2860	27.696213878931	0.109668763971
0	2865	27.805882642902	0.010388710079
0	2870	27.816271352981	0.006880874293
0	2872	27.823152227274	0.009220844922
0	2880	27.832373072196	0.400152683356
0	2887	28.232525755552	0.01986836332
0	2892	28.252394118872	0.191014923631
0	2898	28.443409042503	0.001149478912
0	2900	28.444558521415	0.020192267812
0	2908	28.464750789227	0.015776252501
0	2913	28.480527041728	0.011091791853
0	2918	28.491618833581	0.091681847455
0	2923	28.583300681036	0.153844468095
0	2929	28.737145149131	0.246056139648
0	2936	28.983201288779	0.011488086889
0	2941	28.994689375668	0.016785184507
0	2946	29.011474560175	0.023076501323
0	2951	29.034551061498	0.124976709679
0	2957	29.159527771177	0.097346248664
0	2964	29.256874019841	0.025304600641
0	2970	29.282178620482	0.056800782422
0	2975	29.338979402904	0.016353280523
0	2980	29.355332683427	0.128245491972
0	2986	29.483578175399	0.027517885623
0	2991	29.511096061022	0.016512495034
0	2997	29.527608556056	0.145084325198
0	3002	29.672692881254	0.073688835726
0	3009	29.74638171698	0.014476716674
0	3014	29.760858433654	0.04613262455
0	3019	29.806991058204	0.029523201473
0	3025	29.836514259677	0.004242323409
0	3027	29.840756583086	0.0304780316
0	3035	29.871234614686	0.007380899735
0	3037	29.878615514421	0.32648932839
0	3047	30.205104842811	0.013647164406
0	3052	30.218752007217	0.04832416978
0	3058	30.267076176997	0.068924286488
0	3063	30.336000463485	0.023642604633
0	3068	30.359643068118	0.090347938633
0	3073	30.449991006751	0.101931103899
0	3079	30.55192211065	0.00606157302
0	3081	30.55798368367	0.030165065117
0	3089	30.588148748787	0.053093424166
0	3095	30.641242172953	0.045731100821
0	3100	30.686973273774	0.006594564235
0	3102	30.693567838009	0.018467800984
0	3111	30.712035638993	0.071390053764
0	3119	30.783425692757	0.010105827656
0	3124	30.793531520413	0.100735370576
0	3131	30.894266890989	0.01397324596
0	3136	30.908240136949	0.012228108594
0	3141	30.920468245543	0.022600663452
0	3146	30.943068908995	0.211499010829
0	3151	31.154567919824	0.099846901303
0	3157	31.254414821127	0.117933995703
0	3162	31.37234881683	0.017913813728
0	3167	31.390262630558	0.047156278019
0	3172	31.437418908577	0.070337946753
0	3179	31.50775685533	0.010740516958
0	3184	31.518497372288	0.009569764479
0	3189	31.528067136767	0.02644047782
0	3194	31.554507614587	0.135065646967
0	3199	31.689573261554	0.036730842838
0	3205	31.726304104392	0.028253773842
0	3210	31.754557878234	0.072427297538
0	3217	31.826985175772	0.075767197427
0	3222	31.902752373199	0.024239451105
0	3227	31.926991824304	0.073327712606
0	3232	32.00031953691	0.216078452477
0	3237	32.216397989387	0.020917440967
0	3242	32.237315430354	0.015289698431
0	3247	32.252605128785	0.01832246947
0	3252	32.270927598255	0.017157161796
0	3257	32.288084760051	0.059743185414
0	3262	32.347827945465	0.086903276404
0	3267	32.434731221869	0.017681999666
0	3272	32.452413221535	0.054624733227
0	3277	32.507037954762	0.037557366518
0	3282	32.54459532128	0.021169480948
0	3287	32.565764802228	0.036578739382
0	3292	32.60234354161	0.009073047526
0	3297	32.611416589136	0.051655975458
0	3302	32.663072564594	0.002477994782
0	3304	32.665550559376	0.1074730659
0	3313	32.773023625276	0.020135011317
0	3319	32.793158636593	0.080327808167
0	3326	32.87348644476	0.082802956184
0	3331	32.956289400944	0.014136610454
0	3337	32.970426011398	0.030957644267
0	3342	33.001383655665	0.00714616993
0	3344	33.008529825595	0.091775500693
0	3353	33.100305326288	0.081118985964
0	3358	33.181424312252	0.083002003934
0	3363	33.264426316186	0.08359785526
0	3368	33.348024171446	0.01295254585
0	3373	33.360976717296	0.030394381448
0	3379	33.391371098744	0.063750995221
0	3384	33.455122093965	0.044416838213
0	3390	33.499538932178	0.150248702996
0	3397	33.649787635174	0.091682302248
0	3403	33.741469937422	0.029461210653
0	3409	33.770931148075	0.093583021371
0	3414	33.864514169446	0.021093521482
0	3419	33.885607690928	0.024973162525
0	3424	33.910580853453	0.145822323337
0	3432	34.05640317679	0.026878028677
0	3437	34.083281205467	0.00641522708
0	3439	34.089696432547	0.023553379685
0	3448	34.113249812232	0.000235972229
0	3450	34.113485784461	0.039610293839
0	3458	34.1530960783	0.076832543529
0	3463	34.229928621829	0.010649148646
0	3468	34.240577770475	0.029533512477
0	3474	34.270111282952	0.013593847152
0	3480	34.283705130104	0.00351320485
0	3482	34.287218334954	0.093227201722
0	3491	34.380445536676	0.011674127523
0	3496	34.392119664199	0.046689123376
0	3501	34.438808787575	0.018568963589
0	3506	34.457377751164	0.104209021356
0	3512	34.56158677252	0.008401943904
0	3517	34.569988716424	0.037169972336
0	3522	34.60715868876	0.097537163653
0	3529	34.704695852413	0.007374832507
0	3534	34.71207068492	0.015433074578
0	3539	34.727503759498	0.093726906221
0	3547	34.821230665719	0.02044071691
0	3552	34.841671382629	0.010653995724
0	3557	34.852325378353	0.044090424138
0	3563	34.896415802491	0.006570645407
0	3565	34.902986447898	0.031307956674
0	3573	34.934294404572	0.028315986913
0	3578	34.962610391485	0.159610048393
0	3584	35.122220439878	0.131985199297
0	3591	35.254205639175	0.019875122023
0	3596	35.274080761198	0.01044116357
0	3601	35.284521924768	0.01817445363
0	3606	35.302696378398	0.091316892958
0	3611	35.394013271356	0.154228758044
0	3619	35.5482420294	0.005100501484
0	3621	35.553342530884	0.069287330472
0	3629	35.622629861356	0.147502387392
0	3635	35.770132248748	0.032719929393
0	3641	35.802852178141	0.016182552098
0	3646	35.819034730239	0.037691584168
0	3651	35.856726314407	0.017726827955
0	3656	35.874453142362	0.093258164499
0	3662	35.967711306861	0.092475452497
0	3667	36.060186759358	0.096161580215
0	3673	36.156348339573	0.032124322301
0	3679	36.188472661874	0.009696649265
0	3684	36.198169311139	0.061660574456
0	3689	36.259829885595	0.003744281109
0	3691	36.263574166704	0.015617791907
0	3699	36.279191958611	0.097001315029
0	3704	36.37619327364	0.003311488785
0	3706	36.379504762425	0.083336685962
0	3714	36.462841448387	0.034944708798
0	3719	36.497786157185	0.013187491595
0	3724	36.51097364878	0.005290936799
0	3726	36.516264585579	0.037122585793
0	3734	36.553387171372	0.178146877905
0	3740	36.731534049277	0.018737228425
0	3745	36.750271277702	0.003866591482
0	3747	36.754137869184	0.046868591551
0	3755	36.801006460735	0.051185803247
0	3761	36.852192263982	0.078222972714
0	3766	36.930415236696	0.05156272329
0	3772	36.981977959986	0.030659958476
0	3777	37.012637918462	0.086262281222
0	3782	37.098900199684	0.010886692564
0	3787	37.109786892248	0.090906608799
0	3792	37.200693501047	0.045904529521
0	3797	37.246598030568	0.109122465357
0	3804	37.355720495925	0.000547337525
0	3807	37.35626783345	0.083734516986
0	3816	37.440002350436	0.029296234065
0	3822	37.469298584501	0.069871813872
0	3827	37.539170398373	0.038258086394
0	3832	37.577428484767	0.005532960935
0	3834	37.582961445702	0.017670024706
0	3842	37.600631470408	0.037638175736
0	3847	37.638269646144	0.040783653096
0	3852	37.67905329924	0.064203065042
0	3857	37.743256364282	0.105784596733
0	3862	37.849040961015	0.033472302603
0	3867	37.882513263618	0.02486323294
0	3872	37.907376496558	0.023734504909
0	3877	37.931111001467	0.064322911346
0	3883	37.995433912813	0.104617333893
0	3889	38.100051246706	0.088923303656
0	3894	38.188974550362	0.006421060076
0	3896	38.195395610438	0.05011713181
0	3905	38.245512742248	0.026251440026
0	3910	38.271764182274	0.043062794367
0	3915	38.314826976641	0.051429508852
0	3920	38.366256485493	0.013282544177
0	3926	38.37953902967	0.021361849054
0	3932	38.400900878724	0.039990378614
0	3937	38.440891257338	0.015185479516
0	3942	38.456076736854	0.027501758358
0	3947	38.483578495212	0.022560155518
0	3952	38.50613865073	0.194540265556
0	3960	38.700678916286	0.017786399649
0	3965	38.718465315935	0.045369064104
0	3970	38.763834380039	0.050819724981
0	3975	38.81465410502	0.039159916545
0	3980	38.853814021565	0.008192153028
0	3985	38.862006174593	0.029937092197
0	3990	38.89194326679	0.100239202478
0	3996	38.992182469268	0.016934562534
0	4001	39.009117031802	0.034223089685
0	4006	39.043340121487	0.137380815686
0	4013	39.180720937173	0.099426389615
0	4019	39.280147326788	0.079291350336
0	4024	39.359438677124	0.096377377801
0	4032	39.455816054925	0.056651519952
0	4037	39.512467574877	0.012342157875
0	4043	39.524809732752	0.210567570868
0	4050	39.73537730362	0.028874516287
0	4056	39.764251819907	0.11457893153
0	4062	39.878830751437	0.041303923187
0	4068	39.920134674624	0.056326261189
0	4073	39.976460935813	0.093913801025
0	4080	40.070374736838	0.053495348422
0	4085	40.12387008526	0.064369517359
0	4090	40.188239602619	0.054232965965
0	4095	40.242472568584	0.062105951224
0	4100	40.304578519808	0.043494340759
0	4105	40.348072860567	0.066995227728
0	4110	40.415068088295	0.030857549503
0	4115	40.445925637798	0.211563138174
0	4122	40.657488775972	0.054200921711
0	4127	40.711689697683	0.041017003043
0	4132	40.752706700726	0.002914084804
0	4134	40.75562078553	0.038805923514
0	4142	40.794426709044	0.144301582676
0	4147	40.93872829172	0.060042359836
0	4152	40.998770651556	1.3576079e-05
0	4154	40.998784227635	0.002507797491
0	4156	41.001292025126	0.027890343068
0	4167	41.029182368194	0.090803394292
0	4172	41.119985762486	0.090852940828
0	4178	41.210838703314	0.046065439772
0	4183	41.256904143086	0.048303892966
0	4188	41.305208036052	0.03934976383
0	4194	41.344557799882	0.117917159464
0	4200	41.462474959346	0.008475654173
0	4205	41.470950613519	0.091737197481
0	4210	41.562687811	0.004890242656
0	4212	41.567578053656	0.19876437212
0	4221	41.766342425776	0.117504198435
0	4227	41.883846624211	0.026787096028
0	4232	41.910633720239	0.009755915343
0	4237	41.920389635582	0.111277974863
0	4242	42.031667610445	0.019107740922
0	4248	42.050775351367	0.049815674485
0	4253	42.100591025852	0.096781355703
0	4258	42.197372381555	0.068650766427
0	4263	42.266023147982	0.013867538519
0	4268	42.279890686501	0.030208694228
0	4273	42.310099380729	0.000382111912
0	4275	42.310481492641	0.040470182009
0	4283	42.35095167465	0.002881569719
0	4285	42.353833244369	0.019345823974
0	4293	42.373179068343	0.003120042591
0	4295	42.376299110934	0.013911369716
0	4303	42.39021048065	0.083947854668
0	4309	42.474158335318	0.056711631329
0	4316	42.530869966647	0.009810060674
0	4321	42.540680027321	0.141486563017
0	4327	42.682166590338	0.045537392011
0	4333	42.727703982349	0.069087893113
0	4341	42.796791875462	0.007657887014
0	4343	42.804449762476	0.001198262658
0	4348	42.805648025134	0.086865809151
0	4358	42.892513834285	0.054981974453
0	4364	42.947495808738	0.100172641442
0	4370	43.04766845018	0.008778768819
0	4375	43.056447218999	0.08499590228
0	4380	43.141443121279	0.081633275839
0	4385	43.223076397118	0.147585115083
0	4391	43.370661512201	0.133720711559
0	4397	43.50438222376	0.016207273999
0	4402	43.520589497759	0.002011723968
0	4404	43.522601221727	0.009650574314
0	4410	43.532251796041	0.016579870644
0	4419	43.548831666685	0.040067101869
0	4424	43.588898768554	0.014455384908
0	4429	43.603354153462	0.050012456178
0	4435	43.65336660964	0.068838794013
0	4441	43.722205403653	0.013214142765
0	4447	43.735419546418	0.006176729537
0	4449	43.741596275955	0.11535507528
0	4457	43.856951351235	0.113728016609
0	4463	43.970679367844	0.098317057932
0	4469	44.068996425776	0.005820586306
0	4471	44.074817012082	0.035880019549
0	4479	44.110697031631	0.071101345228
0	4484	44.181798376859	0.004904107248
0	4486	44.186702484107	0.055996938365
0	4494	44.242699422472	0.001314401307
0	4496	44.244013823779	0.082374231165
0	4504	44.326388054944	0.00869696528
0	4509	44.335085020224	0.002416265222
0	4511	44.337501285446	0.026134843186
0	4519	44.363636128632	0.008932219617
0	4524	44.372568348249	0.010987447158
0	4529	44.383555795407	0.014796724889
0	4534	44.398352520296	0.010734152733
0	4539	44.409086673029	0.005775092698
0	4541	44.414861765727	0.127224947155
0	4549	44.542086712882	0.116024868332
0	4556	44.658111581214	0.15179559775
0	4562	44.809907178964	0.043690517882
0	4568	44.853597696846	0.009816224099
0	4573	44.863413920945	0.047616028228
0	4578	44.911029949173	0.013915633734
0	4583	44.924945582907	0.044295819517
0	4588	44.969241402424	0.082979053818
0	4593	45.052220456242	0.024878578087
0	4598	45.077099034329	0.092175104341
0	4603	45.16927413867	0.042884922135
0	4608	45.212159060805	0.015372255827
0	4613	45.227531316632	0.012908746689
0	4618	45.240440063321	0.06709423632
0	4623	45.307534299641	0.055557792394
0	4628	45.363092092035	0.043314148052
0	4633	45.406406240087	0.003550520539
0	4635	45.409956760626	0.043453608114
0	4644	45.45341036874	0.003454121257
0	4646	45.456864489997	0.201254750138
0	4655	45.658119240135	0.019614600239
0	4661	45.677733840374	0.040515839646
0	4666	45.71824968002	0.037191488281
0	4671	45.755441168301	0.012238727481
0	4676	45.767679895782	0.071945511165
0	4682	45.839625406947	0.019621704229
0	4687	45.859247111176	0.062050943046
0	4693	45.921298054222	0.026937216339
0	4698	45.948235270561	0.044475570065
0	4703	45.992710840626	0.023272983156
0	4708	46.015983823782	0.150275974013
0	4713	46.166259797795	0.078000870037
0	4719	46.244260667832	0.006352111319
0	4722	46.250612779151	0.11457414811
0	4730	46.365186927261	0.002643051589
0	4732	46.36782997885	0.018200354507
0	4740	46.386030333357	0.065497453571
0	4747	46.451527786928	0.108604452139
0	4753	46.560132239067	0.008035081012
0	4755	46.568167320079	0.013571395368
0	4763	46.581738715447	0.045710595149
0	4768	46.627449310596	0.017833626228
0	4773	46.645282936824	0.010573596661
0	4778	46.655856533485	0.013299642996
0	4783	46.669156176481	0.012727811713
0	4788	46.681883988194	0.029433268229
0	4794	46.711317256423	0.006420013321
0	4796	46.717737269744	0.013470022768
0	4804	46.731207292512	0.073968664353
0	4810	46.805175956865	0.025382248517
0	4815	46.830558205382	0.024875875778
0	4820	46.85543408116	0.003861106413
0	4822	46.859295187573	0.004615553787
0	4824	46.86391074136	0.057910794925
0	4835	46.921821536285	0.024368268279
0	4840	46.946189804564	0.001232839393
0	4842	46.947422643957	0.022748305076
0	4850	46.970170949033	0.033063383839
0	4855	47.003234332872	0.070230508968
0	4861	47.07346484184	0.072843410687
0	4868	47.146308252527	0.028043084235
0	4873	47.174351336762	0.149988756646
0	4880	47.324340093408	0.00569382263
0	4882	47.330033916038	0.062186281602
0	4890	47.39222019764	0.012229603995
0	4895	47.404449801635	0.011545435658
0	4900	47.415995237293	0.062649313744
0	4905	47.478644551037	0.201046897049
0	4913	47.679691448086	0.077098554529
0	4920	47.756790002615	0.011280642147
0	4925	47.768070644762	0.00534505251
0	4927	47.773415697272	0.019977967702
0	4935	47.793393664974	0.022235737829
0	4941	47.815629402803	0.062432561446
0	4946	47.878061964249	0.009376751746
0	4951	47.887438715995	0.107702710656
0	4956	47.995141426651	0.11498653818
0	4961	48.110127964831	0.043321997527
0	4966	48.153449962358	0.052364988273
0	4971	48.205814950631	0.001247403251
0	4973	48.207062353882	0.010142152852
0	4978	48.217204506734	0.003230651262
0	4980	48.220435157996	0.016331932425
0	4991	48.236767090421	0.162795697379
0	4997	48.3995627878	0.111748692223
0	5002	48.511311480023	0.02395092952
0	5007	48.535262409543	0.027257769216
0	5012	48.562520178759	0.007526129755
0	5014	48.570046308514	0.035201922637
0	5022	48.605248231151	0.077825172928
0	5028	48.683073404079	0.14059316475
0	5035	48.823666568829	0.004076276415
0	5037	48.827742845244	0.053696367549
0	5046	48.881439212793	0.079041776636
0	5052	48.960480989429	0.006828835971
0	5054	48.9673098254	0.01301842602
0	5062	48.98032825142	0.091094011677
0	5067	49.071422263097	0.026179182761
0	5072	49.097601445858	0.090668940442
0	5078	49.1882703863	0.052238537945
0	5084	49.240508924245	0.050756698336
0	5089	49.291265622581	0.072821997607
0	5094	49.364087620188	0.112028035158
0	5099	49.476115655346	0.019793959543
0	5104	49.495909614889	0.006418986562
0	5106	49.502328601451	0.003102051794
0	5111	49.505430653245	0.111706596288
0	5120	49.617137249533	0.030937414551
0	5125	49.648074664084	0.083160092548
0	5130	49.731234756632	0.020080198398
0	5135	49.75131495503	0.013937572436
0	5140	49.765252527466	0.024957319978
0	5145	49.790209847444	0.01082639748
0	5150	49.801036244924	0.018006773746
0	5156	49.81904301867	0.063498367918
0	5161	49.882541386588	0.114160634523
0	5166	49.996702021111	0.032082173696
0	5171	50.028784194807	0.011265020415
0	5176	50.040049215222	0.013431679265
0	5181	50.053480894487	0.040129084971
0	5186	50.093609979458	0.020400686458
0	5191	50.114010665916	0.066855311896
0	5198	50.180865977812	0.00417953864
0	5200	50.185045516452	0.065457362216
0	5208	50.250502878668	0.017108540901
0	5213	50.267611419569	0.059344439831
0	5219	50.3269558594	0.096442893972
0	5225	50.423398753372	0.123381124559
0	5231	50.546779877931	0.025677534831
0	5236	50.572457412762	0.117008660133
0	5241	50.689466072895	0.000575937219
0	5243	50.690042010114	0.018104387649
0	5251	50.708146397763	0.014736241873
0	5257	50.722882639636	0.056234152645
0	5262	50.779116792281	0.117673243886
0	5267	50.896790036167	0.187464264264
0	5276	51.084254300431	0.01296601849
0	5281	51.097220318921	0.048086902676
0	5286	51.145307221597	0.000548299293
0	5288	51.14585552089	0.017127441741
0	5296	51.162982962631	0.092500988346
0	5302	51.255483950977	0.026698351403
0	5309	51.28218230238	0.000392195575
0	5311	51.282574497955	0.000630420982
0	5313	51.283204918937	0.112484197346
0	5325	51.395689116283	0.005391553361
0	5327	51.401080669644	0.033233937587
0	5335	51.434314607231	0.038621382182
0	5340	51.472935989413	0.004325121095
0	5342	51.477261110508	0.023426059363
0	5350	51.500687169871	0.118751950782
0	5357	51.619439120653	0.032211282398
0	5362	51.651650403051	0.062566341211
0	5367	51.714216744262	0.015193545838
0	5372	51.7294102901	0.181394320512
0	5379	51.910804610612	0.072723746094
0	5385	51.983528356706	0.006771544317
0	5387	51.990299901023	0.098162427475
0	5395	52.088462328498	0.048410930371
0	5400	52.136873258869	0.020662713932
0	5405	52.157535972801	0.055960994947
0	5411	52.213496967748	0.041859773067
0	5418	52.255356740815	0.285838108036
0	5425	52.541194848851	0.091651954787
0	5432	52.632846803638	0.000921217613
0	5434	52.633768021251	0.019789830969
0	5442	52.65355785222	0.026440089781
0	5447	52.679997942001	0.105021134904
0	5452	52.785019076905	0.05753658992
0	5457	52.842555666825	0.060782535023
0	5462	52.903338201848	0.023411735104
0	5467	52.926749936952	0.029823778316
0	5474	52.956573715268	0.177217304193
0	5480	53.133791019461	0.004250657048
0	5482	53.138041676509	0.009030464063
0	5487	53.147072140572	0.025323563202
0	5495	53.172395703774	0.485835480942
0	5503	53.658231184716	0.017395918025
0	5508	53.675627102741	0.113477270204
0	5514	53.789104372945	0.046509383255
0	5520	53.8356137562	0.054295584527
0	5526	53.889909340727	0.019336105018
0	5531	53.909245445745	0.024073535952
0	5536	53.933318981697	0.080080944216
0	5543	54.013399925913	0.000437569481
0	5545	54.013837495394	0.010108079653
0	5550	54.023945575047	0.100481145089
0	5558	54.124426720136	0.075786706675
0	5563	54.200213426811	0.045606000701
0	5568	54.245819427512	0.042997429304
0	5573	54.288816856816	0.18342314271
0	5578	54.472239999526	0.010284689174
0	5584	54.4825246887	0.039018910808
0	5589	54.521543599508	0.022841213
0	5594	54.544384812508	0.01930229081
0	5599	54.563687103318	0.020259171246
0	5604	54.583946274564	0.003136013823
0	5606	54.587082288387	0.051816259578
0	5615	54.638898547965	0.019456485151
0	5620	54.658355033116	0.013287150718
0	5625	54.671642183834	0.055421256922
0	5631	54.727063440756	0.039782038193
0	5636	54.766845478949	0.00841772377
0	5641	54.775263202719	0.042434147629
0	5646	54.817697350348	0.048975732707
0	5651	54.866673083055	0.025974398524
0	5656	54.892647481579	0.074828893315
0	5661	54.967476374894	0.124748475236
0	5666	55.09222485013	0.039077211733
0	5673	55.131302061863	0.017836275655
0	5678	55.149138337518	0.069983612775
0	5684	55.219121950293	0.077347861001
0	5690	55.296469811294	0.026789823205
0	5695	55.323259634499	0.019457610051
0	5700	55.34271724455	0.115701013375
0	5705	55.458418257925	0.139742788633
0	5711	55.598161046558	0.024809461678
0	5716	55.622970508236	0.046763848436
0	5721	55.669734356672	0.053974089241
0	5726	55.723708445913	0.004893013
0	5728	55.728601458913	0.10603101749
0	5737	55.834632476403	0.012709024374
0	5742	55.847341500777	0.073446272751
0	5750	55.920787773528	0.048393793789
0	5756	55.969181567317	0.040662495648
0	5762	56.009844062965	0.047181079175
0	5768	56.05702514214	0.016588221798
0	5773	56.073613363938	0.24954720894
0	5778	56.323160572878	0.161546047182
0	5786	56.48470662006	0.006540943919
0	5788	56.491247563979	0.039659044264
0	5796	56.530906608243	0.032012339333
0	5801	56.562918947576	0.021680210183
0	5806	56.584599157759	0.031502892882
0	5811	56.616102050641	0.087744398398
0	5816	56.703846449039	0.054049791876
0	5821	56.757896240915	0.01179374859
0	5826	56.769689989505	0.047633690669
0	5831	56.817323680174	0.01019729899
0	5836	56.827520979164	0.003109677467
0	5838	56.830630656631	0.013390273788
0	5847	56.844020930419	0.054146656701
0	5853	56.89816758712	0.033783800067
0	5858	56.931951387187	0.051863693996
0	5863	56.983815081183	0.028425050915
0	5868	57.012240132098	0.139143296278
0	5874	57.151383428376	0.076855577334
0	5881	57.22823900571	0.048762014404
0	5887	57.277001020114	0.153127540546
0	5892	57.43012856066	0.012245339663
0	5897	57.442373900323	0.031527131858
0	5902	57.473901032181	0.044561050021
0	5907	57.518462082202	0.004715423179
0	5909	57.523177505381	0.056670448481
0	5918	57.579847953862	0.069547651085
0	5923	57.649395604947	0.426065232119
0	5929	58.075460837066	0.021683074054
0	5934	58.09714391112	0.011591642422
0	5939	58.108735553542	0.049430833637
0	5944	58.158166387179	0.020128206809
0	5949	58.178294593988	0.020161821234
0	5954	58.198456415222	0.055572734047
0	5960	58.254029149269	0.000682698391
0	5962	58.25471184766	0.089410729847
0	5970	58.344122577507	0.081831926392
0	5975	58.425954503899	0.064207305499
0	5981	58.490161809398	0.016687327382
0	5986	58.50684913678	0.045895497202
0	5991	58.552744633982	0.026328357005
0	5996	58.579072990987	0.009941524456
0	6001	58.589014515443	0.026935896759
0	6006	58.615950412202	0.013458742121
0	6011	58.629409154323	0.105806877562
0	6016	58.735216031885	0.106588850898
0	6021	58.841804882783	0.066098505362
0	6026	58.907903388145	0.023914225905
0	6031	58.93181761405	0.007867162735
0	6034	58.939684776785	0.058496352146
0	6043	58.998181128931	0.038925137721
0	6049	59.037106266652	0.012752717123
0	6055	59.049858983775	0.022113974947
0	6060	59.071972958722	0.003152564485
0	6062	59.075125523207	0.122674548629
0	6070	59.197800071836	0.118529103875
0	6075	59.316329175711	0.124450096599
0	6080	59.44077927231	0.033760020714
0	6085	59.474539293024	0.009318090428
0	6090	59.483857383452	0.053496878023
0	6097	59.537354261475	0.00253238172
0	6099	59.539886643195	0.009539406143
0	6104	59.549426049338	0.001704210832
0	6106	59.55113026017	0.072082865999
0	6118	59.623213126169	0.167113868121
0	6125	59.79032699429	0.021657410475
0	6130	59.811984404765	0.063033189553
0	6137	59.875017594318	0.031715835364
0	6142	59.906733429682	0.058424206746
0	6147	59.965157636428	0.005174866272
0	6149	59.9703325027	0.001584397346
0	6151	59.971916900046	0.015669784502
0	6160	59.987586684548	0.123499363479
0	6170	60.111086048027	0.034236088944
0	6175	60.145322136971	0.056896685135
0	6181	60.202218822106	0.041083837296
0	6186	60.243302659402	0.018172511309
0	6192	60.261475170711	0.000430740365
0	6194	60.261905911076	0.028230957401
0	6202	60.290136868477	0.091437809837
0	6207	60.381574678314	0.093143448919
0	6212	60.474718127233	0.039675468498
0	6217	60.514393595731	0.12469409303
0	6222	60.639087688761	0.010805884831
0	6227	60.649893573592	0.058163945122
0	6233	60.708057518714	0.011464209111
0	6238	60.719521727825	0.123750541626
0	6244	60.843272269451	0.000779810107
0	6246	60.844052079558	0.002545975333
0	6248	60.846598054891	0.021150762862
0	6259	60.867748817753	0.023465249476
0	6264	60.891214067229	0.12488181575
0	6269	61.016095882979	0.165038433184
0	6276	61.181134316163	0.217878981969
0	6283	61.399013298132	0.009611884751
0	6288	61.408625182883	0.10199113116
0	6294	61.510616314043	0.009111511019
0	6299	61.519727825062	0.047560910988
0	6306	61.56728873605	0.110104232325
0	6311	61.677392968375	0.04460331113
0	6316	61.721996279505	0.083466855727
0	6321	61.805463135232	0.235079454391
0	6329	62.040542589623	0.148226958441
0	6335	62.188769548064	0.001873140168
0	6337	62.190642688232	0.01711547065
0	6345	62.207758158882	0.089776053988
0	6350	62.29753421287	0.316844121712
0	6358	62.614378334582	0.003308106979
0	6360	62.617686441561	0.025363038513
0	6368	62.643049480074	0.072156574426
0	6374	62.7152060545	0.096537328698
0	6381	62.811743383198	0.026268775293
0	6387	62.838012158491	0.014370763523
0	6392	62.852382922014	0.056946208602
0	6397	62.909329130616	0.103402142846
0	6403	63.012731273462	0.02246959417
0	6408	63.035200867632	0.254014742979
0	6416	63.289215610611	0.030226916679
0	6421	63.31944252729	0.014087986252
0	6426	63.333530513542	0.00474962845
0	6428	63.338280141992	0.105070403823
0	6438	63.443350545815	0.201877813421
0	6444	63.645228359236	0.046277149859
0	6450	63.691505509095	0.005385239127
0	6452	63.696890748222	0.055429987959
0	6460	63.752320736181	0.013964132632
0	6465	63.766284868813	0.020100221881
0	6470	63.786385090694	0.01894854798
0	6475	63.805333638674	0.09562944647
0	6480	63.900963085144	0.222499830741
0	6486	64.123462915885	0.01092505264
0	6492	64.134387968525	0.00667103385
0	6496	64.141059002375	0.034789834937
0	6504	64.175848837312	0.01262034752
0	6509	64.188469184832	0.009530903442
0	6514	64.198000088274	0.193583426618
0	6520	64.391583514892	0.033999157594
0	6526	64.425582672486	0.009211622369
0	6531	64.434794294855	0.05970218797
0	6536	64.494496482825	0.052349042978
0	6542	64.546845525803	0.01219845042
0	6547	64.559043976223	0.001629726333
0	6549	64.560673702556	0.059832227553
0	6559	64.620505930109	0.008393801591
0	6564	64.6288997317	0.024478325886
0	6569	64.653378057586	0.019118309879
0	6574	64.672496367465	0.061157113562
0	6579	64.733653481027	0.035292918262
0	6585	64.768946399289	0.088835222522
0	6591	64.857781621811	0.096168768365
0	6597	64.953950390176	0.05750067173
0	6603	65.011451061906	0.029733905816
0	6608	65.041184967722	0.164115748149
0	6613	65.205300715871	0.001236378962
0	6615	65.206537094833	0.029410414639
0	6623	65.235947509472	0.021801587503
0	6628	65.257749096975	0.048306667143
0	6633	65.306055764118	0.112817704464
0	6638	65.418873468582	0.027516240356
0	6643	65.446389708938	0.028619103284
0	6648	65.475008812222	0.001839901825
0	6650	65.476848714047	0.027137030538
0	6658	65.503985744585	0.021958736233
0	6663	65.525944480818	0.060139172185
0	6668	65.586083653003	0.055554845656
0	6675	65.641638498659	0.047849968235
0	6680	65.689488466894	0.029350183321
0	6686	65.718838650215	0.007255355351
0	6688	65.726094005566	0.029512834911
0	6696	65.755606840477	0.072241205158
0	6701	65.827848045635	0.055433253345
0	6707	65.88328129898	0.013081437121
0	6712	65.896362736101	0.084053013014
0	6717	65.980415749115	0.002513001867
0	6719	65.982928750982	0.01066551546
0	6724	65.993594266442	0.104463940294
0	6732	66.098058206736	0.044887591969
0	6737	66.142945798705	0.003421811503
0	6739	66.146367610208	0.102096596515
0	6747	66.248464206723	0.02330988752
0	6752	66.271774094243	0.006719730003
0	6754	66.278493824246	0.143880301889
0	6762	66.422374126135	3.7869329e-05
0	6764	66.422411995464	0.058552357707
0	6773	66.480964353171	0.031127334284
0	6778	66.512091687455	0.006475120501
0	6780	66.518566807956	0.001512603641
0	6785	66.520079411597	0.045084562115
0	6793	66.565163973712	0.107077932768
0	6798	66.67224190648	0.007581025333
0	6800	66.679822931813	0.003030012226
0	6805	66.682852944039	0.020808060839
0	6813	66.703661004878	0.061835237531
0	6819	66.765496242409	0.049389637723
0	6824	66.814885880132	0.150703282611
0	6830	66.965589162743	0.131052484632
0	6837	67.096641647375	0.024879907736
0	6842	67.121521555111	0.044939283079
0	6847	67.16646083819	0.261755671466
0	6854	67.428216509656	0.027593214119
0	6859	67.455809723775	0.080758345007
0	6867	67.536568068782	0.067057630601
0	6872	67.603625699383	0.017098861439
0	6877	67.620724560822	0.014081807149
0	6882	67.634806367971	0.053769199761
0	6888	67.688575567732	0.033692785028
0	6893	67.72226835276	0.028963793048
0	6898	67.751232145808	0.002513100265
0	6900	67.753745246073	0.028155059232
0	6908	67.781900305305	0.010079736107
0	6913	67.791980041412	0.085086942101
0	6918	67.877066983513	0.047467400331
0	6923	67.924534383844	0.058992442411
0	6928	67.983526826255	0.001087982886
0	6930	67.984614809141	0.004596958388
0	6932	67.989211767529	0.017111609755
0	6940	68.006323377284	0.0882812664
0	6949	68.094604643684	0.008538741004
0	6954	68.103143384688	0.05436897079
0	6959	68.157512355478	0.025478756097
0	6964	68.182991111575	0.005497513066
0	6966	68.188488624641	0.068003305239
0	6974	68.25649192988	0.060664578858
0	6979	68.317156508738	0.082931150982
0	6984	68.40008765972	0.018986117192
0	6989	68.419073776912	0.041999862432
0	6994	68.461073639344	0.020601479091
0	7000	68.481675118435	0.004785081043
0	7002	68.486460199478	0.097559546832
0	7011	68.58401974631	0.033993119902
0	7016	68.618012866212	0.013429431962
0	7022	68.631442298174	0.009433551093
0	7027	68.640875849267	0.007093616143
0	7029	68.64796946541	0.011531661069
0	7037	68.659501126479	0.00124545456
0	7039	68.660746581039	0.001027099113
0	7041	68.661773680152	0.10300286881
0	7053	68.764776548962	0.008987021831
0	7058	68.773763570793	0.043883052186
0	7063	68.817646622979	0.126342478693
0	7069	68.943989101672	0.028157594942
0	7074	68.972146696614	0.064463874499
0	7079	69.036610571113	0.013239203826
0	7084	69.049849774939	0.029149715699
0	7089	69.078999490638	0.127474909682
0	7095	69.20647440032	0.036389858679
0	7100	69.242864258999	0.036330582679
0	7105	69.279194841678	0.073172342119
0	7111	69.352367183797	0.040957754996
0	7116	69.393324938793	0.046994978441
0	7122	69.440319917234	0.020368993175
0	7127	69.460688910409	0.118197269233
0	7133	69.578886179642	0.014454863714
0	7138	69.593341043356	0.062388322086
0	7143	69.655729365442	0.041439815369
0	7149	69.697169180811	0.007996608193
0	7151	69.705165789004	0.053488634774
0	7159	69.758654423778	0.002844137058
0	7161	69.761498560836	0.00119277073
0	7163	69.762691331566	0.046854413426
0	7174	69.809545744992	0.108289965196
0	7179	69.917835710188	0.025689926212
0	7184	69.9435256364	0.033160621453
0	7189	69.976686257853	0.084668404869
0	7195	70.061354662722	0.095330766207
0	7201	70.156685428929	0.011015334865
0	7206	70.167700763794	0.091599778896
0	7213	70.25930054269	0.011829206665
0	7218	70.271129749355	0.12319841027
0	7223	70.394328159625	0.063518090312
0	7228	70.457846249937	0.002152314901
0	7230	70.459998564838	0.05632855656
0	7238	70.516327121398	0.062076410859
0	7243	70.578403532257	0.02486825018
0	7248	70.603271782437	0.036569534588
0	7253	70.639841317025	0.144858261553
0	7261	70.784699578578	0.020252937272
0	7266	70.80495251585	0.06543223569
0	7271	70.87038475154	0.26240294224
0	7280	71.13278769378	0.037352584333
0	7285	71.170140278113	0.001305408066
0	7287	71.171445686179	0.053706804767
0	7296	71.225152490946	0.03373154753
0	7301	71.258884038476	0.104429900109
0	7306	71.363313938585	0.033074414861
0	7312	71.396388353446	0.087591171557
0	7318	71.483979525003	0.058242465969
0	7323	71.542221990972	0.082105830593
0	7328	71.624327821565	0.003428050205
0	7330	71.62775587177	0.036518693737
0	7338	71.664274565507	0.032517346572
0	7343	71.696791912079	0.011166458602
0	7349	71.707958370681	0.092608938598
0	7355	71.800567309279	0.042160212322
0	7361	71.842727521601	0.050618807198
0	7366	71.893346328799	0.063242899563
0	7371	71.956589228362	0.018581566827
0	7376	71.975170795189	0.007914466981
0	7378	71.98308526217	0.027440862227
0	7386	72.010526124397	0.009152494602
0	7391	72.019678618999	0.016509996168
0	7396	72.036188615167	0.052989904688
0	7403	72.089178519855	0.029183159561
0	7410	72.118361679416	0.034248302569
0	7415	72.152609981985	0.001890254004
0	7417	72.154500235989	0.060738715049
0	7425	72.215238951038	0.044217928597
0	7430	72.259456879635	0.028170555896
0	7435	72.287627435531	0.027764505736
0	7440	72.315391941267	0.000116833931
0	7442	72.315508775198	0.049052107217
0	7450	72.364560882415	0.159682598893
0	7455	72.524243481308	0.233209076658
0	7461	72.757452557966	0.01913418226
0	7466	72.776586740226	0.004225067619
0	7468	72.780811807845	0.023467199607
0	7476	72.804279007452	0.005330915109
0	7478	72.809609922561	0.052514738119
0	7487	72.86212466068	0.007881782606
0	7492	72.870006443286	0.043851928154
0	7497	72.91385837144	0.072893381086
0	7502	72.986751752526	0.052022661856
0	7507	73.038774414382	0.067038696536
0	7512	73.105813110918	0.054205981916
0	7519	73.160019092834	0.152633935859
0	7526	73.312653028693	0.019591186315
0	7531	73.332244215008	0.040067846168
0	7536	73.372312061176	0.005524254729
0	7538	73.377836315905	0.066929413062
0	7547	73.444765728967	0.018902541084
0	7552	73.463668270051	0.027262540079
0	7558	73.49093081013	0.158294255135
0	7566	73.649225065265	0.073239623721
0	7571	73.722464688986	0.006845325134
0	7573	73.72931001412	0.10410475558
0	7581	73.8334147697	0.115199450839
0	7587	73.948614220539	0.095359057779
0	7593	74.043973278318	0.05812201835
0	7598	74.102095296668	0.160428391941
0	7606	74.262523688609	0.00153545779
0	7608	74.264059146399	0.03977009292
0	7616	74.303829239319	0.045491823167
0	7622	74.349321062486	0.036030296479
0	7627	74.385351358965	0.0590338055
0	7634	74.444385164465	0.008789338498
0	7639	74.453174502963	0.112078039311
0	7645	74.565252542274	0.000285608002
0	7647	74.565538150276	0.074244828431
0	7655	74.639782978707	0.073459819057
0	7660	74.713242797764	0.013580727299
0	7666	74.726823525063	0.111168478249
0	7672	74.837992003312	0.103123082983
0	7678	74.941115086295	0.048290585978
0	7683	74.989405672273	0.229039858839
0	7689	75.218445531112	0.042519014835
0	7694	75.260964545947	0.052377950036
0	7699	75.313342495983	0.007336209764
0	7701	75.320678705747	0.062986549708
0	7710	75.383665255455	0.048914356727
0	7715	75.432579612182	0.024927528287
0	7720	75.457507140469	0.059040380739
0	7728	75.516547521208	0.035765025922
0	7733	75.55231254713	0.006543916711
0	7735	75.558856463841	0.12803949499
0	7744	75.686895958831	0.048982901867
0	7750	75.735878860698	0.017139813698
0	7755	75.753018674396	0.029971010992
0	7760	75.782989685388	0.128983302238
0	7766	75.911972987626	0.12484122261
0	7772	76.036814210236	0.008329833275
0	7777	76.045144043511	0.145699455365
0	7783	76.190843498876	0.022653037689
0	7789	76.213496536565	0.058411641754
0	7795	76.271908178319	0.025270442786
0	7801	76.297178621105	0.06444928039
0	7808	76.361627901495	0.019109988621
0	7813	76.380737890116	0.105421379923
0	7820	76.486159270039	0.034600690814
0	7825	76.520759960853	0.079827008574
0	7830	76.600586969427	0.025958004389
0	7835	76.626544973816	0.034813672006
0	7840	76.661358645822	0.043138362429
0	7845	76.704497008251	0.003995648799
0	7847	76.70849265705	0.01721368134
0	7855	76.72570633839	0.0563458072
0	7861	76.78205214559	0.000638671704
0	7863	76.782690817294	0.079136146442
0	7871	76.861826963736	0.128537926182
0	7879	76.990364889918	0.082768139418
0	7885	77.073133029336	0.037428323904
0	7891	77.11056135324	0.116367048418
0	7896	77.226928401658	0.136416844925
0	7904	77.363345246583	0.070920026504
0	7909	77.434265273087	0.007400113343
0	7911	77.44166538643	0.081224914704
0	7919	77.522890301134	0.029019465819
0	7924	77.551909766953	0.200323650324
0	7930	77.752233417277	0.046736306224
0	7935	77.798969723501	0.089648143776
0	7941	77.888617867277	0.093946797347
0	7946	77.982564664624	0.000353549551
0	7948	77.982918214175	0.027835225834
0	7957	78.010753440009	0.046549949061
0	7962	78.05730338907	0.027857581505
0	7967	78.085160970575	0.171810427935
0	7973	78.25697139851	0.018764250304
0	7978	78.275735648814	0.083509229715
0	7984	78.359244878529	0.032788831936
0	7990	78.392033710465	0.01316730906
0	7996	78.405201019525	0.036636106823
0	8002	78.441837126348	0.021532300236
0	8007	78.463369426584	0.06114666807
0	8013	78.524516094654	0.056138690215
0	8018	78.580654784869	0.088147404908
0	8023	78.668802189777	0.037739380155
0	8029	78.706541569932	0.079505566491
0	8037	78.786047136423	0.007463842983
0	8039	78.793510979406	0.176865194909
0	8048	78.970376174315	0.028961099796
0	8053	78.999337274111	0.080089561209
0	8058	79.07942683532	0.032683359002
0	8064	79.112110194322	0.036008823682
0	8069	79.148119018004	0.218658367064
0	8077	79.366777385068	0.086876493466
0	8082	79.453653878534	0.026037433933
0	8087	79.479691312467	0.008958418251
0	8092	79.488649730718	0.023289087627
0	8097	79.511938818345	0.007789011061
0	8102	79.519727829406	0.060174356127
0	8107	79.579902185533	0.034042985494
0	8112	79.613945171027	0.054103496505
0	8118	79.668048667532	0.061819661185
0	8124	79.729868328717	0.079130851799
0	8129	79.808999180516	0.039514034331
0	8135	79.848513214847	0.103749088101
0	8143	79.952262302948	0.033617979048
0	8148	79.985880281996	0.072051745132
0	8154	80.057932027128	0.024101829698
0	8159	80.082033856826	0.002273811405
0	8161	80.084307668231	0.024859781076
0	8169	80.109167449307	0.014341579299
0	8174	80.123509028606	0.045229651336
0	8180	80.168738679942	0.005757670419
0	8182	80.174496350361	0.035528253713
0	8190	80.210024604074	0.028481628126
0	8195	80.2385062322	0.038462190345
0	8200	80.276968422545	0.104543310581
0	8205	80.381511733126	0.198600101075
0	8210	80.580111834201	0.082067728804
0	8215	80.662179563005	0.009400675999
0	8220	80.671580239004	0.030973547576
0	8225	80.70255378658	0.04790885369
0	8230	80.75046264027	0.03206176848
0	8235	80.78252440875	0.070345934908
0	8240	80.852870343658	0.005006534387
0	8242	80.857876878045	0.240890632647
0	8251	81.098767510692	0.094616151593
0	8256	81.193383662285	0.290075686888
0	8261	81.483459349173	0.002415320468
0	8263	81.485874669641	0.027336987741
0	8272	81.513211657382	0.019316092261
0	8277	81.532527749643	0.061194380248
0	8282	81.593722129891	0.002542068113
0	8284	81.596264198004	0.04335265444
0	8292	81.639616852444	0.013029316923
0	8297	81.652646169367	0.013048080481
0	8302	81.665694249848	0.019608487758
0	8307	81.685302737606	0.093621424022
0	8313	81.778924161628	0.033022670571
0	8318	81.811946832199	0.068171085829
0	8323	81.880117918028	0.029891882037
0	8328	81.910009800065	0.045210644005
0	8333	81.95522044407	0.035534982929
0	8338	81.990755426999	0.074982926954
0	8345	82.065738353953	0.00436610328
0	8347	82.070104457233	0.008174799447
0	8352	82.07827925668	0.054392198936
0	8360	82.132671455616	0.013465927917
0	8365	82.146137383533	0.041937598327
0	8371	82.18807498186	0.051773831712
0	8376	82.239848813572	0.021814921827
0	8381	82.261663735399	0.038399385404
0	8386	82.300063120803	0.02323092433
0	8391	82.323294045133	0.070782016108
0	8396	82.394076061241	0.178350656225
0	8401	82.572426717466	0.050302510108
0	8406	82.622729227574	0.102184132319
0	8411	82.724913359893	0.005679861157
0	8413	82.73059322105	0.077588026133
0	8421	82.808181247183	0.029624338625
0	8426	82.837805585808	0.120772271339
0	8434	82.958577857147	0.015995465449
0	8439	82.974573322596	0.132064093627
0	8449	83.106637416223	0.077485995637
0	8454	83.18412341186	0.027279697008
0	8459	83.211403108868	0.009086542777
0	8464	83.220489651645	0.035417516745
0	8469	83.25590716839	0.000755986812
0	8471	83.256663155202	0.070182992694
0	8479	83.326846147896	0.016759294284
0	8484	83.34360544218	0.069284712211
0	8489	83.412890154391	0.064206654446
0	8495	83.477096808837	0.000365549595
0	8497	83.477462358432	0.003933836105
0	8499	83.481396194537	0.086532402012
0	8510	83.567928596549	0.026125102734
0	8515	83.594053699283	0.035322249912
0	8520	83.629375949195	0.035991809318
0	8525	83.665367758513	0.014835545786
0	8530	83.680203304299	0.019726094706
0	8536	83.699929399005	0.057228453686
0	8541	83.757157852691	0.030438222695
0	8546	83.787596075386	0.037582914742
0	8553	83.825178990128	0.026709682098
0	8558	83.851888672226	0.00297154157
0	8560	83.854860213796	0.101464117917
0	8569	83.956324331713	0.013436193486
0	8574	83.969760525199	0.047079181049
0	8579	84.016839706248	0.019222876925
0	8584	84.036062583173	0.054557271409
0	8590	84.090619854582	0.243557025147
0	8596	84.334176879729	0.188050973715
0	8601	84.522227853444	0.023512817046
0	8606	84.54574067049	0.132306556394
0	8612	84.678047226884	0.059208572521
0	8617	84.737255799405	0.104682572653
0	8623	84.841938372058	0.015225686734
0	8629	84.857164058792	0.01308375002
0	8634	84.870247808812	0.075323198848
0	8640	84.94557100766	0.007345210943
0	8642	84.952916218603	0.026484537382
0	8650	84.979400755985	0.044043529857
0	8655	85.023444285842	0.013373959165
0	8660	85.036818245007	0.090393956139
0	8666	85.127212201146	0.07001596408
0	8671	85.197228165226	0.058982754169
0	8677	85.256210919395	0.097586248555
0	8682	85.35379716795	0.142630829082
0	8687	85.496427997032	0.019051912129
0	8692	85.515479909161	0.044447665079
0	8698	85.55992757424	0.018589208221
0	8703	85.578516782461	0.00580387156
0	8705	85.584320654021	0.008903317862
0	8710	85.593223971883	0.019669344345
0	8718	85.612893316228	0.134476882204
0	8724	85.747370198432	0.058090252171
0	8729	85.805460450603	0.003822381111
0	8731	85.809282831714	0.007610812592
0	8736	85.816893644306	0.026645409246
0	8744	85.843539053552	0.049875045134
0	8750	85.893414098686	0.00381066081
0	8752	85.897224759496	0.052088376506
0	8761	85.949313136002	0.004776777696
0	8763	85.954089913698	0.052503300274
0	8771	86.006593213972	0.072884347625
0	8777	86.079477561597	0.029809042849
0	8782	86.109286604446	0.063824802403
0	8787	86.173111406849	0.009365831076
0	8792	86.182477237925	0.05319196181
0	8797	86.235669199735	0.100733604991
0	8803	86.336402804726	0.129258082077
0	8809	86.465660886803	0.038234615181
0	8814	86.503895501984	0.042980198324
0	8820	86.546875700308	0.085731651445
0	8826	86.632607351753	0.065540196559
0	8831	86.698147548312	0.024149178691
0	8836	86.722296727003	0.007483414947
0	8838	86.72978014195	0.127115306748
0	8846	86.856895448698	0.093633670685
0	8851	86.950529119383	0.140481581206
0	8856	87.091010700589	0.038618999619
0	8861	87.129629700208	0.019645152179
0	8867	87.149274852387	0.024261298215
0	8872	87.173536150602	0.00837867014
0	8877	87.181914820742	0.087733007695
0	8883	87.269647828437	0.008725332895
0	8888	87.278373161332	0.02514656727
0	8893	87.303519728602	0.272481396595
0	8904	87.576001125197	0.05534574944
0	8909	87.631346874637	0.094980730839
0	8916	87.726327605476	0.055820539593
0	8922	87.782148145069	0.013792892517
0	8928	87.795941037586	0.059986652874
0	8935	87.85592769046	0.027240246466
0	8941	87.883167936926	0.01712531559
0	8946	87.900293252516	0.007261217259
0	8948	87.907554469775	0.035338271636
0	8956	87.942892741411	0.061305066341
0	8962	88.004197807752	0.0216423388
0	8967	88.025840146552	0.04921556296
0	8973	88.075055709512	0.05991979453
0	8978	88.134975504042	0.016001171611
0	8983	88.150976675653	0.003803463159
0	8985	88.154780138812	0.020823836039
0	8993	88.175603974851	0.090084447383
0	8998	88.265688422234	0.019008280643
0	9003	88.284696702877	0.162759762675
0	9012	88.447456465552	0.029365775971
0	9017	88.476822241523	0.015809291554
0	9022	88.492631533077	0.003570519781
0	9024	88.496202052858	0.0539069636
0	9032	88.550109016458	0.071269730967
0	9038	88.621378747425	0.094463151377
0	9044	88.715841898802	0.056630847821
0	9049	88.772472746623	0.06651998081
0	9054	88.838992727433	0.008647046005
0	9059	88.847639773438	0.042672211835
0	9064	88.890311985273	0.012441070311
0	9069	88.902753055584	0.014613400983
0	9074	88.917366456567	0.06639733087
0	9079	88.983763787437	0.058359175667
0	9084	89.042122963104	0.062691758657
0	9089	89.104814721761	0.022311650521
0	9094	89.127126372282	0.08295989705
0	9100	89.210086269332	0.039332232329
0	9105	89.249418501661	0.001577910652
0	9107	89.250996412313	0.009715454601
0	9112	89.260711866914	0.008171228807
0	9117	89.268883095721	0.019766200966
0	9125	89.288649296687	0.036586314719
0	9131	89.325235611406	0.20224679737
0	9138	89.527482408776	0.066345088782
0	9143	89.593827497558	0.03118164153
0	9149	89.625009139088	0.004776628912
0	9151	89.629785768	0.031580223987
0	9159	89.661365991987	0.075764881229
0	9164	89.737130873216	0.028945962619
0	9169	89.766076835835	0.025652954979
0	9174	89.791729790814	0.001466772155
0	9176	89.793196562969	0.227384346799
0	9186	90.020580909768	0.077195698753
0	9192	90.097776608521	0.036524045956
0	9197	90.134300654477	0.045999173258
0	9202	90.180299827735	0.137763622568
0	9210	90.318063450303	0.040883165388
0	9215	90.358946615691	0.022066920408
0	9221	90.381013536099	0.017483515889
0	9226	90.398497051988	0.074314773671
0	9233	90.472811825659	0.019039030277
0	9238	90.491850855936	0.014041860105
0	9243	90.505892716041	0.024658925933
0	9248	90.530551641974	0.001965641133
0	9250	90.532517283107	0.00966451876
0	9255	90.542181801867	0.07762393693
0	9264	90.619805738797	0.022537597609
0	9270	90.642343336406	0.050846354699
0	9275	90.693189691105	0.055094994723
0	9280	90.748284685828	0.070119386856
0	9288	90.818404072684	0.102138911909
0	9293	90.920542984593	0.034343073463
0	9298	90.954886058056	0.048957301727
0	9303	91.003843359783	0.005406083722
0	9305	91.009249443505	0.00651425617
0	9310	91.015763699675	0.061802176602
0	9318	91.077565876277	0.011788726036
0	9323	91.089354602313	0.032987573856
0	9328	91.122342176169	0.006158881389
0	9330	91.128501057558	0.060018102493
0	9338	91.188519160051	0.029611872962
0	9343	91.218131033013	0.063145918765
0	9349	91.281276951778	0.033772820037
0	9354	91.315049771815	0.123354899813
0	9359	91.438404671628	0.037770353676
0	9365	91.476175025304	0.01503507085
0	9370	91.491210096154	3.0098798e-05
0	9372	91.491240194952	0.135719498991
0	9380	91.626959693943	0.031880499886
0	9385	91.658840193829	0.001092724421
0	9387	91.65993291825	0.032337671541
0	9396	91.692270589791	0.031345725864
0	9401	91.723616315655	0.023754982011
0	9406	91.747371297666	0.071692008243
0	9411	91.819063305909	0.019843366922
0	9417	91.838906672831	0.033047554545
0	9422	91.871954227376	0.113121995921
0	9428	91.985076223297	0.242500643254
0	9435	92.227576866551	0.111857694903
0	9440	92.339434561454	0.099502748216
0	9446	92.43893730967	0.00777355992
0	9451	92.44671086959	0.010593375178
0	9456	92.457304244768	0.373412048096
0	9464	92.830716292864	0.040809506951
0	9470	92.871525799815	0.000353159714
0	9472	92.871878959529	0.009007920501
0	9477	92.88088688003	0.106078538357
0	9486	92.986965418387	0.024726376296
0	9491	93.011691794683	0.026183578268
0	9497	93.037875372951	0.033882338304
0	9502	93.071757711255	0.00450392806
0	9504	93.076261639315	0.036049553904
0	9512	93.112311193219	0.046524721261
0	9518	93.15883591448	0.08781367219
0	9524	93.24664958667	0.066751603922
0	9529	93.313401190592	0.048084779104
0	9535	93.361485969696	0.045796060804
0	9541	93.4072820305	0.019992205661
0	9546	93.427274236161	0.159224923177
0	9554	93.586499159338	0.047782060053
0	9559	93.634281219391	0.034574151648
0	9564	93.668855371039	0.080124913533
0	9569	93.748980284572	0.084491886329
0	9575	93.833472170901	0.013772067826
0	9580	93.847244238727	0.080679056388
0	9585	93.927923295115	0.031960796814
0	9590	93.959884091929	0.088200175539
0	9597	94.048084267468	0.041860458861
0	9602	94.089944726329	0.123113995416
0	9608	94.213058721745	0.016390212873
0	9613	94.229448934618	0.002810716181
0	9615	94.232259650799	0.098926111036
0	9623	94.331185761835	0.050846037064
0	9629	94.382031798899	0.00762102802
0	9631	94.389652826919	0.001334629098
0	9636	94.390987456017	0.013022693756
0	9641	94.404010149773	0.077416898303
0	9650	94.481427048076	0.027114408606
0	9655	94.508541456682	0.011895776125
0	9661	94.520437232807	0.136939666678
0	9666	94.657376899485	0.056323210996
0	9672	94.713700110481	0.028244723322
0	9677	94.741944833803	0.000655586053
0	9679	94.742600419856	0.049992697309
0	9687	94.792593117165	0.027128035298
0	9692	94.819721152463	0.009745275222
0	9697	94.829466427685	0.022665488718
0	9703	94.852131916403	0.020193351732
0	9708	94.872325268135	0.024747769403
0	9713	94.897073037538	0.273674922834
0	9721	95.170747960372	0.002054693513
0	9723	95.172802653885	0.049656485158
0	9731	95.222459139043	0.003991509882
0	9733	95.226450648925	0.121390965602
0	9742	95.347841614527	0.092173973244
0	9748	95.440015587771	0.016160186438
0	9753	95.456175774209	0.090369136477
0	9759	95.546544910686	0.097180548287
0	9765	95.643725458973	0.021756366078
0	9771	95.665481825051	0.012912223806
0	9776	95.678394048857	0.011972604145
0	9781	95.690366653002	0.002681514499
0	9783	95.693048167501	0.002541510579
0	9785	95.69558967808	0.047221298019
0	9799	95.742810976099	0.033532612672
0	9804	95.776343588771	0.001007027946
0	9806	95.777350616717	0.024009387036
0	9814	95.801360003753	0.037098549622
0	9819	95.838458553375	0.091387388165
0	9825	95.92984594154	0.000378126401
0	9827	95.930224067941	0.055391673649
0	9836	95.98561574159	0.004374946555
0	9838	95.989990688145	0.102237402486
0	9847	96.092228090631	0.015353871266
0	9852	96.107581961897	0.004926875414
0	9854	96.112508837311	0.193299301374
0	9862	96.305808138685	0.000285608973
0	9864	96.306093747658	0.006209136991
0	9866	96.312302884649	0.085038395197
0	9877	96.397341279846	0.025266996811
0	9882	96.422608276657	0.005910020024
0	9884	96.428518296681	0.01671257666
0	9892	96.445230873341	0.004613200592
0	9894	96.449844073933	0.09140011388
0	9902	96.541244187813	0.015175582668
0	9907	96.556419770481	0.054134245053
0	9912	96.610554015534	0.044121379921
0	9917	96.654675395455	0.01324936486
0	9922	96.667924760315	0.07200155123
0	9927	96.739926311545	0.027034525228
0	9932	96.766960836773	0.047325909221
0	9938	96.814286745994	0.004069783284
0	9940	96.818356529278	0.073360963813
0	9948	96.891717493091	0.023206536067
0	9955	96.914924029158	0.033481323674
0	9961	96.948405352832	0.046355713518
0	9966	96.99476106635	0.015458786056
0	9971	97.010219852406	0.309821952419
0	9976	97.320041804825	0.116965066076
0	9981	97.437006870901	0.015363579614
0	9986	97.452370450515	0.127150994607
0	9993	97.579521445122	0.015380401269
0	9999	97.594901846391	0.068187713219
0	10005	97.66308955961	0.010173256496
0	10010	97.673262816106	0.04413218735
0	10016	97.717395003456	0.044471881124
0	10021	97.76186688458	0.088397508844
0	10028	97.850264393424	0.123033887745
0	10034	97.973298281169	0.020480112184
0	10039	97.993778393353	0.042277505752
0	10045	98.036055899105	0.112449193649
0	10050	98.148505092754	0.131122743025
0	10056	98.279627835779	0.069103284812
0	10063	98.348731120591	0.064270501593
0	10068	98.413001622184	0.023935372075
0	10073	98.436936994259	0.0558352348
0	10078	98.492772229059	0.024764469382
0	10083	98.517536698441	0.001414003662
0	10085	98.518950702103	0.161934194247
0	10095	98.68088489635	0.039361867094
0	10101	98.720246763444	0.009786133267
0	10106	98.730032896711	0.033397598232
0	10111	98.763430494943	0.016808135468
0	10116	98.780238630411	0.008024924546
0	10118	98.788263554957	0.011240722608
0	10127	98.799504277565	0.006160061494
0	10129	98.805664339059	0.096412586914
0	10137	98.902076925973	0.009722943192
0	10142	98.911799869165	0.048969722272
0	10147	98.960769591437	0.104344016049
0	10153	99.065113607486	0.061373682448
0	10158	99.126487289934	0.059586253245
0	10164	99.186073543179	0.013165839612
0	10169	99.199239382791	0.013401207871
0	10174	99.212640590662	0.040355922702
0	10179	99.252996513364	0.068083436011
0	10184	99.321079949375	0.004259998382
0	10186	99.325339947757	0.008248358579
0	10191	99.333588306336	0.077262037771
0	10199	99.410850344107	0.012378729853
0	10204	99.42322907396	0.0910335429
0	10209	99.51426261686	0.066615554541
0	10214	99.580878171401	0.056614218418
0	10219	99.637492389819	0.056907883353
0	10225	99.694400273172	0.032834752595
0	10230	99.727235025767	0.005867688091
0	10232	99.733102713858	0.062563196865
0	10240	99.795665910723	0.052630580351
0	10245	99.848296491074	0.081706896295
0	10250	99.930003387369	0.004959671673
0	10252	99.934963059042	0.121195253711
0	10260	100.056158312753	0.009710795453
0	10265	100.065869108206	0.005185047869
0	10267	100.071054156075	0.239427807197
0	10279	100.310481963272	0.006776725199
0	10281	100.317258688471	0.140858103573
0	10289	100.458116792044	0.008129063909
0	10294	100.466245855953	0.097922048451
0	10301	100.564167904404	0.018389658468
0	10308	100.582557562872	0.084300245124
0	10314	100.666857807996	0.02729888431
0	10320	100.694156692306	0.09010349482
0	10326	100.784260187126	0.073970355973
0	10332	100.858230543099	0.003016275897
0	10334	100.861246818996	0.006667909135
0	10339	100.867914728131	0.139418832117
0	10349	101.007333560248	0.015034731638
0	10354	101.022368291886	0.064051001139
0	10359	101.086419293025	0.091064320014
0	10365	101.177483613039	0.003568942394
0	10367	101.181052555433	0.021107852128
0	10375	101.202160407561	0.101382620893
0	10380	101.303543028454	0.085989242641
0	10385	101.389532271095	0.012098901636
0	10390	101.401631172731	0.001463809097
0	10392	101.403094981828	0.017584801724
0	10400	101.420679783552	0.02765122812
0	10405	101.448331011672	0.005265522844
0	10407	101.453596534516	0.028099125328
0	10415	101.481695659844	0.00430128199
0	10417	101.485996941834	0.026025456972
0	10426	101.512022398806	0.021488106809
0	10431	101.533510505615	0.000575459712
0	10433	101.534085965327	0.041386031683
0	10441	101.57547199701	0.026488758341
0	10447	101.601960755351	0.173025918671
0	10453	101.774986674022	0.0620414567
0	10458	101.837028130722	0.093575254117
0	10464	101.930603384839	0.055851263482
0	10469	101.986454648321	0.016492317326
0	10474	102.002946965647	0.038755280001
0	10479	102.041702245648	0.033945970319
0	10484	102.075648215967	0.013650294798
0	10489	102.089298510765	0.009926485687
0	10494	102.099224996452	0.04773268882
0	10499	102.146957685272	0.08612076212
0	10504	102.233078447392	0.027236911601
0	10509	102.260315358993	0.081121923376
0	10515	102.341437282369	0.007268715299
0	10520	102.348705997668	0.008670354948
0	10525	102.357376352616	0.071022618747
0	10532	102.428398971363	0.022695636936
0	10537	102.451094608299	0.038810816453
0	10542	102.489905424752	0.016604254096
0	10547	102.506509678848	0.123337891631
0	10553	102.629847570479	0.008339945603
0	10558	102.638187516082	0.04218017461
0	10563	102.680367690692	0.050649120416
0	10568	102.731016811108	0.030562010024
0	10573	102.761578821132	0.040430808527
0	10579	102.802009629659	0.035763342702
0	10584	102.837772972361	0.043155204509
0	10590	102.88092817687	0.015957696747
0	10595	102.896885873617	0.084426498395
0	10600	102.981312372012	0.059051900609
0	10605	103.040364272621	0.015937420786
0	10610	103.056301693407	0.025232142609
0	10615	103.081533836016	0.14872280238
0	10621	103.230256638396	0.047729922386
0	10627	103.277986560782	0.033547345927
0	10632	103.311533906709	0.108126899602
0	10637	103.419660806311	0.042695430686
0	10642	103.462356236997	0.174918750698
0	10649	103.637274987695	0.194276704768
0	10657	103.831551692463	0.058743533776
0	10662	103.890295226239	0.014414542035
0	10667	103.904709768274	0.06622743704
0	10672	103.970937205314	0.070552136499
0	10677	104.041489341813	0.040063221183
0	10684	104.081552562996	0.053260781871
0	10689	104.134813344867	0.056615816527
0	10694	104.191429161394	0.142162078074
0	10699	104.333591239468	0.043836684329
0	10705	104.377427923797	0.019480255286
0	10710	104.396908179083	0.002858950947
0	10712	104.39976713003	0.013226298129
0	10720	104.412993428159	0.055593509171
0	10726	104.46858693733	0.185030234963
0	10733	104.653617172293	0.233830574169
0	10740	104.887447746462	0.058590604615
0	10746	104.946038351077	0.000488858121
0	10748	104.946527209198	0.088996500885
0	10757	105.035523710083	0.021917441689
0	10762	105.057441151772	0.015265795564
0	10768	105.072706947336	0.024755162383
0	10773	105.097462109719	0.079671989938
0	10779	105.177134099657	0.024619166961
0	10784	105.201753266618	0.029226568621
0	10789	105.230979835239	0.031655541574
0	10794	105.262635376813	0.131149233338
0	10799	105.393784610151	0.024748797064
0	10804	105.418533407215	0.050528256496
0	10810	105.469061663711	0.049999275263
0	10815	105.519060938974	0.051642089161
0	10821	105.570703028135	0.125909729095
0	10827	105.69661275723	0.084949158309
0	10833	105.781561915539	0.097993581978
0	10839	105.879555497517	0.00492681529
0	10841	105.884482312807	0.022988466196
0	10849	105.907470779003	0.012930083382
0	10854	105.920400862385	0.022098931069
0	10859	105.942499793454	0.020187456092
0	10864	105.962687249546	0.027056262014
0	10869	105.98974351156	0.18631676196
0	10876	106.17606027352	0.094838238539
0	10882	106.270898512059	0.061076489816
0	10887	106.331975001875	0.001950863601
0	10889	106.333925865476	0.006486089424
0	10894	106.3404119549	0.018471949435
0	10904	106.358883904335	0.124586776408
0	10912	106.483470680743	0.059260829659
0	10917	106.542731510402	0.022885108036
0	10922	106.565616618438	0.008161692859
0	10927	106.573778311297	0.089730037733
0	10932	106.66350834903	0.072783683392
0	10938	106.736292032422	0.049384643275
0	10943	106.785676675697	0.045614655017
0	10948	106.831291330714	0.002799883328
0	10950	106.834091214042	6.0017138e-05
0	10952	106.83415123118	0.055250898201
0	10964	106.889402129381	0.040470391551
0	10970	106.929872520932	0.005374540333
0	10972	106.935247061265	0.057447799806
0	10980	106.992694861071	0.05596183762
0	10985	107.048656698691	0.016976959292
0	10990	107.065633657983	0.006731206614
0	10992	107.072364864597	0.002588236096
0	10997	107.074953100693	0.020551000164
0	11005	107.095504100857	0.034136763242
0	11010	107.129640864099	0.124655330131
0	11017	107.25429619423	0.0878702723
0	11023	107.34216646653	0.00910465949
0	11029	107.35127112602	0.032441372189
0	11035	107.383712498209	0.087870721248
0	11040	107.471583219457	0.007496616867
0	11042	107.479079836324	0.029281205995
0	11050	107.508361042319	0.044988969087
0	11055	107.553350011406	0.078923016753
0	11060	107.632273028159	0.017002498803
0	11065	107.649275526962	0.017879302603
0	11070	107.667154829565	0.010461202073
0	11075	107.677616031638	0.110081867796
0	11080	107.787697899434	0.07517279269
0	11087	107.862870692124	0.002908451902
0	11089	107.865779144026	0.107203164215
0	11097	107.972982308241	0.013335338691
0	11102	107.986317646932	2.9875251e-05
0	11104	107.986347522183	0.009242089897
0	11109	107.99558961208	0.012317918617
0	11115	108.007907530697	0.043090136613
0	11123	108.05099766731	0.019260228289
0	11128	108.070257895599	0.00347096497
0	11130	108.073728860569	0.01516363766
0	11138	108.088892498229	0.069341525911
0	11145	108.15823402414	0.006747552421
0	11147	108.164981576561	0.04135540257
0	11155	108.206336979131	0.028997606134
0	11161	108.235334585265	0.003651031847
0	11163	108.238985617112	0.05856058415
0	11171	108.297546201262	0.02581262047
0	11176	108.323358821732	0.073382777572
0	11183	108.396741599304	0.047502124791
0	11188	108.444243724095	0.012032990716
0	11193	108.456276714811	0.024854792474
0	11198	108.481131507285	0.03205889161
0	11203	108.513190398895	0.019442401123
0	11208	108.532632800018	0.013471893328
0	11214	108.546104693346	0.005164402751
0	11216	108.551269096097	0.020880041802
0	11224	108.572149137899	0.021764112593
0	11229	108.593913250492	0.093236548163
0	11236	108.687149798655	0.009428979443
0	11241	108.696578778098	0.036252158736
0	11247	108.732830936834	0.07939693094
0	11252	108.812227867774	0.002634754895
0	11254	108.814862622669	0.008082331775
0	11259	108.822944954444	0.025256678427
0	11268	108.848201632871	0.008529933333
0	11273	108.856731566204	0.032220243764
0	11278	108.888951809968	0.181800554678
0	11284	109.070752364646	0.074647986914
0	11290	109.14540035156	0.106225618967
0	11296	109.251625970527	0.032617401184
0	11301	109.284243371711	0.019045402037
0	11308	109.303288773748	0.009083780888
0	11313	109.312372554636	0.047745084964
0	11318	109.3601176396	0.032152991062
0	11323	109.392270630662	0.011184329145
0	11328	109.403454959807	0.099509823596
0	11334	109.502964783403	0.086361253777
0	11339	109.58932603718	0.025205855293
0	11344	109.614531892473	0.059747372455
0	11349	109.674279264928	0.020321932664
0	11354	109.694601197592	0.005535058238
0	11356	109.70013625583	0.334917619586
0	11366	110.035053875416	0.008416760211
0	11371	110.043470635627	0.001747897427
0	11373	110.045218533054	0.029163452743
0	11382	110.074381985797	0.004411070999
0	11384	110.078793056796	0.031370914432
0	11392	110.110163971228	0.037391384924
0	11397	110.147555356152	0.174365802824
0	11402	110.321921158976	0.038153053634
0	11407	110.36007421261	0.056482222852
0	11413	110.416556435462	0.015436826443
0	11418	110.431993261905	0.001030305372
0	11420	110.433023567277	0.016465482618
0	11428	110.449489049895	0.07393135072
0	11434	110.523420400615	0.033256889019
0	11439	110.556677289634	0.050533207795
0	11444	110.607210497429	0.046039630696
0	11449	110.653250128125	0.009472286281
0	11454	110.662722414406	0.034168147287
0	11459	110.696890561693	0.002750273506
0	11461	110.699640835199	0.012046964302
0	11469	110.711687799501	0.074142677248
0	11474	110.785830476749	0.001607662767
0	11476	110.787438139516	0.002418534399
0	11478	110.789856673915	0.205833108939
0	11490	110.995689782854	0.031974215786
0	11495	111.02766399864	0.002752767417
0	11497	111.030416766057	0.06466406702
0	11506	111.095080833077	0.084811032667
0	11513	111.179891865744	0.020546853222
0	11518	111.200438718966	0.019698656101
0	11523	111.220137375067	0.039555894789
0	11529	111.259693269856	0.024795638966
0	11534	111.284488908822	0.075181586428
0	11540	111.35967049525	0.001127016078
0	11542	111.360797511328	0.05264524848
0	11551	111.413442759808	0.080494302395
0	11557	111.493937062203	0.055505984799
0	11563	111.549443047002	0.042297761056
0	11568	111.591740808058	0.014723486729
0	11573	111.606464294787	0.02651191882
0	11579	111.632976213607	0.097578439448
0	11586	111.730554653055	0.067307627683
0	11591	111.797862280738	0.016551333303
0	11596	111.814413614041	0.088910741945
0	11601	111.903324355986	0.075316250671
0	11606	111.978640606657	0.101579551029
0	11611	112.080220157686	0.012643556689
0	11616	112.092863714375	0.066741150231
0	11621	112.159604864606	0.01508753559
0	11626	112.174692400196	0.064050113469
0	11631	112.238742513665	0.055336812582
0	11637	112.294079326247	0.012339228189
0	11642	112.306418554436	0.062247807134
0	11647	112.36866636157	0.031793943986
0	11652	112.400460305556	0.09576420613
0	11657	112.496224511686	0.103116143079
0	11662	112.599340654765	0.003598455641
0	11664	112.602939110406	0.014229708396
0	11672	112.617168818802	0.013156275924
0	11677	112.630325094726	0.044870509334
0	11682	112.67519560406	0.116927604739
0	11687	112.792123208799	0.010469129015
0	11692	112.802592337814	0.02512955385
0	11697	112.827721891664	0.234243118762
0	11703	113.061965010426	0.214967402478
0	11708	113.276932412904	0.034873011999
0	11713	113.311805424903	0.041786189379
0	11719	113.353591614282	0.025169391548
0	11724	113.37876100583	0.036135395008
0	11729	113.414896400838	0.008270385151
0	11734	113.423166785989	0.000750439949
0	11736	113.423917225938	0.03116852435
0	11745	113.455085750288	0.018559877407
0	11750	113.473645627695	0.027106120791
0	11755	113.500751748486	0.278380686203
0	11761	113.779132434689	0.12693845391
0	11767	113.906070888599	0.023233954454
0	11772	113.929304843053	0.021719657737
0	11778	113.95102450079	0.07683571888
0	11783	114.02786021967	0.03811417679
0	11788	114.06597439646	0.014523521055
0	11794	114.080497917515	0.029823869208
0	11799	114.110321786723	0.021719651032
0	11805	114.132041437755	0.083210386182
0	11810	114.215251823937	0.016449058918
0	11815	114.231700882855	0.034940827983
0	11821	114.266641710838	0.055234719365
0	11826	114.321876430203	0.018184386449
0	11832	114.340060816652	0.003418617447
0	11834	114.343479434099	0.012235475418
0	11842	114.355714909517	0.087705499505
0	11847	114.443420409022	0.009311007628
0	11854	114.45273141665	0.00054649147
0	11856	114.45327790812	0.009166510304
0	11861	114.462444418424	0.03161107039
0	11869	114.494055488814	0.009011228853
0	11874	114.503066717667	0.00729010954
0	11876	114.510356827207	0.138377862327
0	11884	114.648734689534	0.000581023035
0	11886	114.649315712569	0.017678954228
0	11894	114.666994666797	0.070090021025
0	11902	114.737084687822	0.013520247224
0	11907	114.750604935046	0.149747642495
0	11912	114.900352577541	0.062978266055
0	11917	114.963330843596	0.177852018127
0	11922	115.141182861723	0.025114956754
0	11927	115.166297818477	0.13073330838
0	11933	115.297031126857	0.05017349303
[...]
19	23204	219.016542688097	2.7921747920354
19	23473	221.808717480132	4.920860533946
19	24070	226.729578014078	3.4568429251342
19	24480	230.186420939212	5.6009859509879
19	25070	235.7874068902	0.95206580795847
19	25165	236.739472698158	1.3347469873915
19	25293	238.074219685549	4.3765627667667
19	25810	242.450782452316	2.7923874946737
19	26107	245.24316994699	0.22606832483378
19	26131	245.469238271824	3.5198399840173
19	26516	248.989078255841	2.3699170723459
19	26771	251.358995328187	1.6365935672689
19	26987	252.995588895456	4.1716175889846
19	27437	257.167206484441	0.14706418255929
19	27453	257.314270667	0.25134995424875
19	27471	257.565620621249	0.20505200384308
19	27495	257.770672625092	1.7881147074608
19	27667	259.558787332553	1.287515639062
19	27803	260.846302971615	5.8341905477106
19	28388	266.680493519326	1.5453868408039
19	28521	268.22588036013	0.6043989658122
19	28583	268.830279325942	2.4715771064479
19	28855	271.30185643239	1.9063712239124
19	29060	273.208227656302	0.28760685013716
19	29072	273.495834506439	1.2075230912014
19	29191	274.70335759764	0.23705435277993
19	29213	274.94041195042	0.3820598159539
19	29240	275.322471766374	7.4580656955601
19	30115	282.780537461934	0.50700618531298
19	30194	283.287543647247	0.2311928745969
19	30223	283.518736521844	1.5489105506977
19	30431	285.067647072542	3.5776473970072
19	30814	288.645294469549	0.33513777006697
19	30851	288.980432239616	3.0463251643545
19	31196	292.026757403971	1.2255198465368
19	31318	293.252277250508	2.12151658355
19	31597	295.373793834058	0.44620604533016
19	31628	295.819999879388	6.5635009605794
19	32356	302.383500839967	4.312324933386
19	32829	306.695825773353	3.4521598019416
19	33225	310.147985575295	0.50655163664354
19	33278	310.654537211939	0.65025814782161
19	33354	311.304795359761	0.007970957292954
19	33355	311.312766317054	0.20071023052913
19	33361	311.513476547583	3.243808785657
19	33686	314.75728533324	1.2077005882664
19	33799	315.964985921506	1.7236685238132
19	33962	317.688654445319	0.77994778119076
19	34025	318.46860222651	1.0626538914851
19	34126	319.531256117995	1.7539515879766
19	34297	321.285207705972	6.2087687374139
19	34995	327.493976443386	1.7368950195976
19	35162	329.230871462984	0.412370523276
19	35208	329.64324198626	2.1547984587157
19	35444	331.798040444976	3.4807425263709
19	35800	335.278782971347	4.2858357407336
19	36272	339.564618712081	0.28198401386102
19	36326	339.846602725942	1.3559260416833
19	36487	341.202528767625	1.7757066288427
19	36619	342.978235396468	2.9811857642735
19	36949	345.959421160742	0.8898536393741
19	37051	346.849274800116	1.3819975057391
19	37205	348.231272305855	0.33284407963535
19	37239	348.56411638549	0.90945382366764
19	37334	349.473570209158	3.047277816919
19	37696	352.520848026077	0.42948614233943
19	37776	352.950334168416	1.824684384503
19	37943	354.775018552919	1.8593524747544
19	38136	356.634371027673	0.76785411124012
19	38183	357.402225138913	0.47500770447262
19	38252	357.877232843386	1.3018876936539
19	38335	359.17912053704	0.23713768756932
19	38361	359.416258224609	2.3690832987524
19	38626	361.785341523361	1.0009200357604
19	38732	362.786261559121	0.32834097133941
19	38777	363.11460253046	2.720893633354
19	39059	365.835496163814	4.1059722699871
19	39473	369.941468433801	1.5055145848225
19	39624	371.446983018623	0.59977114199511
19	39704	372.046754160618	8.7514740939392
19	40683	380.798228254557	1.0607125652966
19	40765	381.858940819854	1.5996638617777
19	40953	383.458604681632	1.0511619798443
19	41080	384.509766661476	1.3829457783688
19	41242	385.892712439845	3.7963338385558
19	41700	389.689046278401	1.7370631453787
19	41860	391.42610942378	0.093454613453653
19	41871	391.519564037234	1.0442786428045
19	41997	392.563842680039	1.3019060495434
19	42144	393.865748729582	0.59449108173324
19	42210	394.460239811315	0.41609909896184
19	42253	394.876338910277	3.1214427798851
19	42632	397.997781690162	1.704874971569
19	42800	399.702656661731	1.2178354948753
20	1652	15.597556991135	1.4599780462149
20	1824	17.05753503735	3.2476661896828
20	2176	20.305201227033	0.3137711348113
20	2193	20.618972361844	1.9721405088667
20	2330	22.591112870711	1.308391062629
20	2432	23.89950393334	0.56720562544667
20	2497	24.466709558787	1.2735243067353
20	2644	25.740233865522	0.80488969735112
20	2715	26.545123562873	0.15352211607449
20	2752	26.698645678947	5.1217140882611
20	3216	31.820359767208	0.84811136318556
20	3306	32.668471130394	2.7447681954722
20	3616	35.413239325866	0.38333189763779
20	3640	35.796571223504	3.3499088755407
20	4012	39.146480099045	8.0630453251039
20	4879	47.209525424149	1.6634417115009
20	5045	48.87296713565	1.2734844884371
20	5197	50.146451624087	0.79918467518464
20	5272	50.945636299272	0.63301315035664
20	5355	51.578649449629	0.64242716141494
20	5413	52.221076611044	1.1099762660685
20	5501	53.331052877113	3.5526419713499
20	5852	56.883694848463	0.32767003292087
20	5880	57.211364881384	2.4263064407775
20	6124	59.637671322161	3.5398171027143
20	6414	63.177488424875	3.8963244840719
20	6836	67.073812908947	0.14212131411139
20	6852	67.215934223058	6.9467216656159
20	7605	74.162655888674	0.24117352471021
20	7632	74.403829413384	0.035088327183861
20	7633	74.438917740568	0.594926946538
20	7688	75.033844687106	0.45385630570719
20	7726	75.487700992813	0.5828789901976
20	7782	76.070579983011	0.27985581924495
20	7806	76.350435802256	0.043657424489573
20	7818	76.394093226746	10.173300154761
20	8825	86.567393381507	0.56990129304795
20	8863	87.137294674555	0.27722880166305
20	8899	87.414523476218	0.98907274502745
20	9011	88.403596221245	2.2065447555551
20	9263	90.6101409768	0.15291616912733
20	9285	90.763057145927	1.1928257076001
20	9427	91.955882853527	3.5840386746651
20	9758	95.539921528192	8.0112494167851
20	10648	103.551170944977	0.51983906486528
20	10682	104.071010009842	0.27714249960978
20	10704	104.348152509452	2.7826186916017
20	11012	107.130771201054	2.3527587761677
20	11333	109.483529977222	6.2583448461614
20	12028	115.741874823383	1.1824819547426
20	12133	116.924356778126	4.8013923490894
20	12647	121.725749127215	0.44855047272363
20	12715	122.174299599939	0.94902245731518
20	12781	123.123322057254	0.38341547031166
20	12827	123.506737527566	0.16702100449535
20	12849	123.673758532061	0.81273433095399
20	12934	124.486492863015	2.1468693779797
20	13175	126.633362240995	1.8043318586269
20	13358	128.437694099622	0.24211723500386
20	13381	128.679811334626	2.5904885568687
20	13636	131.270299891495	0.82608355653175
20	13712	132.096383448027	1.4181566211718
20	13850	133.514540069199	1.9485652105065
20	14048	135.463105279705	0.042609977857405
20	14055	135.505715257562	3.65970410358
20	14436	139.165419361142	1.4809544215626
20	14555	140.646373782705	4.818416310094
20	14964	145.464790092799	1.7415869025448
20	15190	147.206376995344	0.71991558832702
20	15283	147.926292583671	1.3983691308383
20	15401	149.324661714509	0.11129851390843
20	15412	149.435960228417	5.3539072329649
20	15972	154.789867461382	2.3604040515972
20	16219	157.150271512979	2.0315477828563
20	16456	159.181819295835	0.86767668333998
20	16565	160.049495979175	9.0667228747083
20	17608	169.116218853883	1.1942980570368
20	17753	170.31051691092	3.77931260262
20	18185	174.08982951354	1.6120992114954
20	18387	175.701928725035	3.1277180916936
20	18777	178.829646816729	3.2544252199384
20	19199	182.084072036667	0.050480229925925
20	19201	182.134552266593	0.50709203189858
20	19262	182.641644298492	1.1077261972658
20	19416	183.749370495758	0.61726853587919
20	19477	184.366639031637	3.0548222689127
20	19788	187.42146130055	0.47203487596531
20	19867	187.893496176515	0.31588216403164
20	19908	188.209378340547	0.32460786461334
20	19962	188.53398620516	9.6473108002019
20	20997	198.181297005362	1.4369455142839
20	21147	199.618242519646	0.197598317322
20	21176	199.815840836968	2.8066936453496
20	21467	202.622534482318	3.087648352165
20	21774	205.710182834483	1.5664498167732
20	21925	207.276632651256	0.16853593473281
20	21952	207.445168585989	0.82546481756378
20	22010	208.270633403553	0.24119789852384
20	22036	208.511831302077	2.8492304552295
20	22369	211.361061757307	0.52232279569922
20	22432	211.883384553006	3.7064623294859
20	22835	215.589846882492	0.23049518286372
20	22862	215.820342065356	0.63383184857615
20	22920	216.454173913932	1.5125986704766
20	23079	217.966772584409	1.5881236610304
20	23256	219.554896245439	1.6115611436026
20	23406	221.166457389042	1.4695190226305
20	23561	222.635976411672	2.1151376060168
20	23826	224.751114017689	2.1397504403007
20	24093	226.89086445799	0.23363756563265
20	24143	227.124502023623	2.903705555394
20	24463	230.028207579017	0.048412778672717
20	24464	230.07662035769	0.92783396054721
20	24575	231.004454318237	0.36068240913497
20	24618	231.365136727372	3.5576549081767
20	24989	234.922791635549	1.4988186987934
20	25117	236.421610334342	3.2726019491261
20	25472	239.694212283468	0.97226466628546
20	25585	240.666476949753	2.7225328075887
20	25916	243.389009757342	0.42136638994152
20	25950	243.810376147284	2.3372262716324
20	26186	246.147602418916	3.3667926116241
20	26575	249.51439503054	0.64530170424564
20	26623	250.159696734786	0.75658202840443
20	26727	250.91627876319	0.69422557575708
20	26804	251.610504338947	6.1224747469947
20	27480	257.732979085942	0.54173187312489
20	27553	258.274710959067	4.694090817101
20	27987	262.968801776168	1.3122131808095
20	28114	264.281014956978	1.2017075598116
20	28280	265.48272251679	2.7615761464965
20	28527	268.244298663286	0.42469923906204
20	28563	268.668997902348	4.0025814564138
20	29003	272.671579358762	3.2586256198934
20	29283	275.930204978655	6.8844494418927
20	30123	282.814654420548	7.5753310149317
20	30999	290.38998543548	0.60623241241567
20	31065	290.996217847896	5.161764526361
20	31662	296.157982374257	2.784079128341
20	31984	298.942061502598	0.097553515695105
20	31996	299.039615018293	1.7400013778361
20	32189	300.779616396129	1.1430556972239
20	32303	301.922672093353	0.48766156508687
20	32362	302.41033365844	2.9838503674788
20	32681	305.394184025919	0.44841033668799
20	32740	305.842594362607	1.0727419142296
20	32843	306.915336276837	2.753913285825
20	33190	309.669249562662	0.89131528204856
20	33266	310.560564844711	1.3994753127223
20	33394	311.960040157433	3.7691616270103
20	33786	315.729201784443	0.01447999744262
20	33787	315.743681781886	0.3222355345278
20	33820	316.065917316414	1.6330717596914
20	33963	317.698989076105	0.96105238285059
20	34054	318.660041458956	3.0736373502454
20	34373	321.733678809201	2.0966699236657
20	34614	323.830348732867	0.70586981001683
20	34696	324.536218542884	0.45105628503506
20	34731	324.987274827919	1.6180389390072
20	34909	326.605313766926	1.1541124640731
20	35013	327.759426230999	1.9171524966651
20	35211	329.676578727664	2.3834895975605
20	35483	332.060068325225	1.2533148627225
20	35642	333.313383187948	2.3252051768677
20	35865	335.638588364816	0.72183916636365
20	35947	336.36042753118	10.529974056709
20	37052	346.890401587889	0.74502776177918
20	37136	347.635429349668	4.6071168130274
20	37660	352.242546162695	2.6614731354402
20	37954	354.904019298135	0.94016798291356
20	38050	355.844187281049	3.8526533093564
20	38373	359.696840590405	1.008535679168
20	38505	360.705376269573	0.2688216655546
20	38537	360.974197935128	2.4743879665292
20	38832	363.448585901657	1.1914301209101
20	38958	364.640016022567	4.8863426605827
20	39414	369.52635868315	1.8593192648725
20	39612	371.385677948022	2.0328973531472
20	39898	373.418575301169	0.5073398862132
20	39964	373.925915187382	1.6510315432479
20	40177	375.57694673063	4.4533134504234
20	40592	380.030260181053	0.48074343499796
20	40651	380.511003616051	1.2992758390584
20	40755	381.810279455109	0.75293150155809
20	40824	382.563210956667	7.8018455531707
20	41768	390.365056509838	0.22396772754127
20	41799	390.589024237379	1.7366376577132
20	41960	392.325661895092	6.0078819124553
20	42673	398.333543807547	3.2219465074419
21	1739	16.255651313656	0.020527850567994
21	1745	16.276179164224	0.056226538121015
21	1746	16.332405702345	1.4199182278407
21	1931	17.752323930186	0.38493215285773
21	1978	18.137256083044	0.17261748968095
21	1989	18.309873572725	1.8918577802307
21	2160	20.201731352956	7.6639596659062
21	2885	27.865691018862	0.88003557221301
21	2934	28.745726591075	3.0309538448574
21	3215	31.776680435932	1.0671159354155
21	3325	32.843796371348	0.52684093883714
21	3378	33.370637310185	0.32655104081279
21	3402	33.697188350998	0.61398734473524
21	3490	34.311175695733	4.3825151188032
21	3959	38.693690814536	1.0605828710337
21	4055	39.75427368557	13.770724753702
21	5502	53.524998439272	0.27575615661389
21	5519	53.800754595886	2.0020798904082
21	5736	55.802834486294	0.16138378953988
21	5755	55.964218275834	3.8813245834098
21	6135	59.845542859244	0.33108985603474
21	6180	60.176632715279	2.5273012970837
21	6373	62.703934012363	0.25327558756405
21	6402	62.957209599927	2.7449802748374
21	6685	65.702189874764	7.4252501364419
21	7517	73.127440011206	0.12330358494048
21	7525	73.250743596146	1.2058954551529
21	7641	74.456639051299	2.6339872276974
21	7890	77.090626278996	2.2606483929043
21	8076	79.3512746719	8.3263803065915
21	8914	87.677654978492	4.7868646022095
21	9458	92.464519580702	2.897281206615
21	9747	95.361800787317	0.2818747846201
21	9764	95.643675571937	1.1558943349514
21	9937	96.799569906888	1.8921172873046
21	10100	98.691687194193	0.49310068417657
21	10163	99.18478787837	2.5075836273411
21	10452	101.692371505711	4.5118770212182
21	10881	106.204248526929	0.23246276584961
21	10910	106.436711292779	0.48864420220105
21	10969	106.92535549498	0.27081152863387
21	11016	107.196167023614	0.59488156465298
21	11082	107.791048588267	6.1558611527418
21	11777	113.946909741009	1.2739219548773
21	11932	115.220831695886	0.96326249651814
21	12075	116.184094192404	0.85998471869829
21	12152	117.044078911102	0.71606752074168
21	12238	117.760146431844	3.3043041537505
21	12560	121.064450585594	1.1603607963239
21	12716	122.224811381918	0.87703123799834
21	12780	123.101842619916	10.161673347264
21	13814	133.26351596718	1.1011604159059
21	13934	134.364676383086	0.51819223827757
21	13979	134.882868621364	2.5206505665207
21	14237	137.403519187885	1.0146659268145
21	14371	138.418185114699	8.4879846387978
21	15156	146.906169753497	1.0764135761249
21	15289	147.982583329622	1.1889039339565
21	15379	149.171487263579	0.42028393377158
21	15423	149.591771197351	0.28572280206252
21	15448	149.877493999414	0.021436942221804
21	15449	149.898930941636	0.22065227072039
21	15457	150.119583212356	2.6277571788633
21	15784	152.747340391219	0.31952120227206
21	15837	153.066861593491	2.3334752418406
21	16040	155.400336835332	0.17917127936388
21	16061	155.579508114696	0.23370989166514
21	16081	155.813218006361	0.32622483916056
21	16111	156.139442845522	0.11819615907376
21	16125	156.257639004596	1.7680818892271
21	16299	158.025720893823	0.33529851510695
21	16341	158.36101940893	1.0700345362906
21	16486	159.431053945221	5.5298776815499
21	17117	164.960931626771	0.67556075096634
21	17201	165.636492377737	0.95192617959263
21	17297	166.58841855733	2.550996806395
21	17609	169.139415363725	10.834139171912
21	18901	179.973554535637	2.5432952463168
21	19247	182.516849781954	0.0283825618173
21	19251	182.545232343771	2.1262611069399
21	19496	184.671493450711	7.3109932381778
21	20351	191.982486688889	1.141852801622
21	20487	193.124339490511	1.3869411052934
21	20639	194.511280595804	1.3115821743033
21	20795	195.822862770107	0.54288020817668
21	20860	196.365742978284	0.80557181391037
21	20924	197.171314792194	0.59942989474348
21	20965	197.770744686937	6.6127007319757
21	21653	204.383445418913	4.3960932005804
21	22071	208.779538619493	0.74661926119515
21	22156	209.526157880688	0.60296938714564
21	22224	210.129127267834	1.0485031327511
21	22348	211.177630400585	0.62369953623853
21	22421	211.801329936824	0.88823522136906
21	22511	212.689565158193	0.20172953919776
21	22537	212.891294697391	1.7397466943784
21	22734	214.631041391769	2.6081202313476
21	22994	217.239161623117	1.4693062157735
21	23164	218.70846783889	2.5216076038732
21	23417	221.230075442763	1.7993409759016
21	23614	223.029416418665	0.13181962736912
21	23617	223.161236046034	0.075752538339973
21	23629	223.236988584374	2.2488788800038
21	23903	225.485867464378	1.0543001429536
21	24043	226.540167607332	0.11872444255759
21	24064	226.65889204989	2.2751635025756
21	24339	228.934055552466	2.7771278474387
21	24640	231.711183399905	2.4875314143456
21	24898	234.198714814251	3.234687946729
21	25236	237.43340276098	0.86670491942696
21	25304	238.300107680407	0.47403808400594
21	25368	238.774145764413	1.5860801426038
21	25564	240.360225907017	1.6207685410863
21	25767	241.980994448103	1.8620584145212
21	25951	243.843052862624	1.3100534954126
21	26084	245.153106358037	1.6170825852765
21	26271	246.770188943313	1.6825701663603
21	26455	248.452759109673	0.70926756274551
21	26532	249.162026672419	0.34386633462081
21	26571	249.50589300704	0.51335575951012
21	26616	250.01924876655	0.13291561639181
21	26622	250.152164382942	0.10517029643098
21	26644	250.257334679373	0.56554287926252
21	26721	250.822877558636	4.659777058555
21	27235	255.482654617191	0.11498665674728
21	27248	255.597641273938	0.20909790407482
21	27272	255.806739178013	3.7866666937296
21	27668	259.593405871743	1.4098011248925
21	27844	261.003206996635	5.1919233511384
21	28345	266.195130347773	0.10855525912441
21	28366	266.303685606897	2.162599880927
21	28543	268.466285487824	1.841337531447
21	28740	270.307623019271	2.8419279354345
21	29051	273.149550954706	2.0223873996456
21	29225	275.171938354352	0.30425496762049
21	29251	275.476193321972	0.96666056081551
21	29315	276.442853882788	6.7429746035584
21	30178	283.185828486346	0.12291986000565
21	30200	283.308748346352	0.22525918267745
21	30229	283.534007529029	4.4640732292978
21	30750	287.998080758327	1.1170689746619
21	30858	289.115149732989	0.54835421013569
21	30913	289.663503943125	1.6939804862413
21	31105	291.357484429366	1.2815768238094
21	31254	292.639061253175	1.7327080855139
21	31465	294.371769338689	4.3155901677395
21	31963	298.687359506429	3.0609976869808
21	32286	301.74835719341	0.76086949029137
21	32381	302.509226683701	0.47982139146481
21	32443	302.989048075166	0.33926853325181
21	32467	303.328316608418	5.7816140923106
21	33130	309.109930700729	0.96103353686689
21	33224	310.070964237596	1.1692637973516
21	33353	311.240228034948	6.7196961112934
21	33984	317.959924146241	2.3793180328063
21	34235	320.339242179047	0.14283378665402
21	34243	320.482075965701	1.0884514408602
21	34344	321.570527406561	3.2436426326216
21	34712	324.814170039183	2.8833310627231
21	35007	327.697501101906	4.9600973914503
21	35558	332.657598493356	0.5488596302957
21	35625	333.206458123652	1.5518290430191
21	35763	334.758287166671	6.4871836492778
21	36488	341.245470815949	0.46464245938326
21	36511	341.710113275332	0.13971913754829
21	36520	341.84983241288	0.057424135566348
21	36535	341.907256548446	1.8633408525441
21	36706	343.77059740099	0.21388378474527
21	36745	343.984481185735	1.3765656797503
21	36914	345.361046865485	1.2715299433842
21	37026	346.632576808869	0.10815879201401
21	37040	346.740735600883	0.27321263897959
21	37059	347.013948239863	2.8243603382526
21	37394	349.838308578116	2.1965561000384
21	37621	352.034864678154	2.4887454757492
21	37917	354.523610153903	0.071619650771762
21	37928	354.595229804675	0.010064886392543
21	37929	354.605294691068	0.99206577351679
21	38022	355.597360464585	0.12519772630077
21	38031	355.722558190886	0.7245847139472
21	38125	356.447142904833	1.8266695751329
21	38277	358.273812479966	2.0777091189617
21	38453	360.351521598928	3.2620684696451
21	38851	363.613590068573	0.9063222697643
21	38952	364.519912338337	1.3408199626875
21	39065	365.860732301024	3.7801646655596
21	39415	369.640896966584	9.2755519288643
21	40519	378.916448895448	4.2430028314131
21	40907	383.159451726861	7.6013710218699
21	41816	390.760822748731	0.086958608344229
21	41817	390.847781357075	2.1754141562712
21	42054	393.023195513346	1.4657569121553
21	42211	394.488952425501	3.1379183517888
21	42574	397.62687077729	9.1660615272066

