file 9687650 1614185312                                         
version 2
run Nonmonitoring-exponential-36-20210224-17:48:30-26572
attr configname Nonmonitoring-exponential
attr datetime 20210224-17:48:30
attr experiment Nonmonitoring-exponential
attr inifile aerocom.ini
attr iterationvars $0=9
attr iterationvarsf 9-
attr measurement $0=9
attr network Aerocom
attr processid 26572
attr repetition 36
attr replication #36
attr resultdir results
attr runnumber 36
attr seedset 36
param **.t 2s
param **.k 9ms
param **.X 0.05s
param **.m 1s
param **.tDistribution "\"exponential\""
param **.operationMode 1
param **.s "70 byte"
param **.dimPoolMax 10000
param **.dimPoolMin 8000
param **.nDL 16
param **.nA 1
param **.DLMaxCapacity 0
param **.trasmitting false

vector 0 Aerocom.aircraft[0].packetGenerator arrivalTime:vector ETV
attr "" ""
attr source computeArrivalTime
vector 1 Aerocom.aircraft[0].linkSelector responseTime:vector ETV
attr "" ""
attr source computeResponseTime
vector 2 Aerocom.aircraft[0].linkSelector waitingTime:vector ETV
attr "" ""
attr source computeWaitingTime
vector 3 Aerocom.aircraft[0].linkSelector queueLength:vector ETV
attr "" ""
attr source computeQueueLength
vector 4 Aerocom.aircraft[0].dataLink[8] actualCapacity:vector ETV
attr "" ""
attr source computeActualCapacity
vector 5 Aerocom.aircraft[0].linkSelector serviceTime:vector ETV
attr "" ""
attr source computeServiceTime
vector 6 Aerocom.aircraft[0].dataLink[13] tDistribution:vector ETV
attr "" ""
attr source computeTDistribution
vector 7 Aerocom.aircraft[0].dataLink[7] tDistribution:vector ETV
attr "" ""
attr source computeTDistribution
vector 8 Aerocom.aircraft[0].dataLink[3] tDistribution:vector ETV
attr "" ""
attr source computeTDistribution
vector 9 Aerocom.aircraft[0].dataLink[4] tDistribution:vector ETV
attr "" ""
attr source computeTDistribution
vector 10 Aerocom.aircraft[0].dataLink[15] tDistribution:vector ETV
attr "" ""
attr source computeTDistribution
vector 11 Aerocom.aircraft[0].dataLink[12] tDistribution:vector ETV
attr "" ""
attr source computeTDistribution
vector 12 Aerocom.aircraft[0].dataLink[5] tDistribution:vector ETV
attr "" ""
attr source computeTDistribution
vector 13 Aerocom.aircraft[0].dataLink[6] tDistribution:vector ETV
attr "" ""
attr source computeTDistribution
vector 14 Aerocom.aircraft[0].dataLink[0] tDistribution:vector ETV
attr "" ""
attr source computeTDistribution
vector 15 Aerocom.aircraft[0].dataLink[2] tDistribution:vector ETV
attr "" ""
attr source computeTDistribution
vector 16 Aerocom.aircraft[0].dataLink[10] tDistribution:vector ETV
attr "" ""
attr source computeTDistribution
vector 17 Aerocom.aircraft[0].dataLink[9] tDistribution:vector ETV
attr "" ""
attr source computeTDistribution
vector 18 Aerocom.aircraft[0].dataLink[1] tDistribution:vector ETV
attr "" ""
attr source computeTDistribution
vector 19 Aerocom.aircraft[0].dataLink[8] tDistribution:vector ETV
attr "" ""
attr source computeTDistribution
vector 20 Aerocom.aircraft[0].dataLink[14] tDistribution:vector ETV
attr "" ""
attr source computeTDistribution
vector 21 Aerocom.aircraft[0].dataLink[11] tDistribution:vector ETV
attr "" ""
attr source computeTDistribution
1	3127 1306732 5721 171828 10.007962422138 305.336796859782 32768 0.007025291048 0.232705783136 1218.6326131589 85.738614940447
2	1309859 1251093 5721 171828 10.007962422138 305.336796859782 32768 0 0.224416854776 962.20022996949 68.365921783013
3	2560952 887699 5721 171828 10.007962422138 305.336796859782 32768 0 27 106581 941973
4	3448651 982728 5721 171828 10.007962422138 305.336796859782 32768 8004 9967 293963963 2643724655729
5	4431379 1436955 5721 171828 10.007962422138 305.336796859782 32768 0.0070231764823919 0.0087456271864068 256.31485402345 2.0098226247873
0	5868334 1306269 5719 171885 10.003203738658 305.438080853114 32768 6.95589e-07 0.089908259484 295.43532435494 5.3119809690769
0	7174603 432785 171887 225779 305.438528093596 399.997984027623 10616 1.239249e-06 0.088718449411 94.563906958181 1.6785852220497
1	7607388 433347 171831 225781 305.344716307683 399.99896336277 10627 0.007020359041 0.221255188094 357.86563572327 21.903880861672
2	8040735 414233 171831 225781 305.344716307683 399.99896336277 10627 0 0.213056546726 276.30152488145 16.982639088742
3	8454968 297090 171831 225781 305.344716307683 399.99896336277 10627 0 26 31105 245159
4	8752058 328257 171831 225781 305.344716307683 399.99896336277 10627 8049 9989 97153618 890254996830
5	9080315 475561 171831 225781 305.344716307683 399.99896336277 10627 0.0070077084793273 0.0086967325133557 81.562035571884 0.62749782725923
6	9555876 7797 5731 224179 10.021791757361 397.255046881761 188 0.017181732606413 11.802600386356 394.50265856278 1616.6389454749
7	9563673 7845 6033 224062 10.532183792487 397.050336494815 189 0.028202272478118 8.9874420782558 392.66443803524 1450.2657794179
8	9571518 8027 6225 222556 10.84105121164 394.18748581187 193 0.002261391591906 10.956611452868 392.49948880411 1554.333152703
9	9579545 8161 6366 223138 11.07169121453 395.325671598103 197 0.0045844194231123 9.55212545685 391.53215093201 1482.3520433692
10	9587706 7330 6428 224528 11.175548461367 397.828146012313 173 0.00084805817549275 12.557222301288 388.90654714333 1762.1045693043
11	9595036 7831 6713 225553 11.665769013957 399.570968536423 184 0.049599234441405 13.987986740113 390.24437040263 1736.3966662852
12	9602867 8866 6826 224903 11.842660628846 398.433217776059 208 0.010089370985371 10.308176124486 390.73898238062 1458.3092270891
13	9611733 7558 7124 225662 12.34403204257 399.793295858842 177 0.0018279274508688 16.466490141048 387.91852643166 1961.1474586458
14	9619291 7448 7254 224201 12.584247434695 397.296745082447 175 0.014336441550671 16.307053622683 387.6979660296 1790.1112605405
15	9626739 8985 7603 224965 13.162175148387 398.528260664929 211 0.0046402098269713 8.9596525062502 388.13915145324 1402.701954717
16	9635724 8682 7711 223976 13.355855101821 396.891380243964 204 0.0038150712222118 12.41351548974 389.17633420677 1537.8853532114
17	9644406 8059 8159 224535 14.162795094324 397.839621329892 189 0.0011730592821301 12.760353760234 386.16845684792 1591.4470128216
18	9652465 9788 8213 224962 14.242486305198 398.52613196278 229 0.01714978999583 10.189197519478 387.20016415807 1257.7599119221
19	9662253 8811 8236 223012 14.293367990219 395.108086012538 207 0.00066577826970002 12.330075031513 386.18238050302 1526.635081228
20	9671064 8314 8540 223217 14.875234627292 395.4881990413 195 0.019258325818422 11.980182692546 386.61994280042 1576.6169583632
21	9679378 8271 8884 219351 15.460485428723 388.541985787715 193 0.017178676877472 14.135674341094 387.21717470009 1769.6536597152

