file 8580433 1614185331                                         
version 2
run Nonmonitoring-exponential-140-20210224-17:48:50-26736
attr configname Nonmonitoring-exponential
attr datetime 20210224-17:48:50
attr experiment Nonmonitoring-exponential
attr inifile aerocom.ini
attr iterationvars $0=10
attr iterationvarsf 10-
attr measurement $0=10
attr network Aerocom
attr processid 26736
attr repetition 40
attr replication #40
attr resultdir results
attr runnumber 140
attr seedset 40
param **.t 2s
param **.k 10ms
param **.X 0.05s
param **.m 1s
param **.tDistribution "\"exponential\""
param **.operationMode 1
param **.s "70 byte"
param **.dimPoolMax 10000
param **.dimPoolMin 8000
param **.nDL 16
param **.nA 1
param **.DLMaxCapacity 0
param **.trasmitting false

vector 0 Aerocom.aircraft[0].linkSelector responseTime:vector ETV
attr "" ""
attr source computeResponseTime
vector 1 Aerocom.aircraft[0].linkSelector waitingTime:vector ETV
attr "" ""
attr source computeWaitingTime
vector 2 Aerocom.aircraft[0].linkSelector queueLength:vector ETV
attr "" ""
attr source computeQueueLength
vector 3 Aerocom.aircraft[0].dataLink[6] actualCapacity:vector ETV
attr "" ""
attr source computeActualCapacity
vector 4 Aerocom.aircraft[0].linkSelector serviceTime:vector ETV
attr "" ""
attr source computeServiceTime
vector 5 Aerocom.aircraft[0].packetGenerator arrivalTime:vector ETV
attr "" ""
attr source computeArrivalTime
vector 6 Aerocom.aircraft[0].dataLink[14] tDistribution:vector ETV
attr "" ""
attr source computeTDistribution
vector 7 Aerocom.aircraft[0].dataLink[5] tDistribution:vector ETV
attr "" ""
attr source computeTDistribution
vector 8 Aerocom.aircraft[0].dataLink[12] tDistribution:vector ETV
attr "" ""
attr source computeTDistribution
vector 9 Aerocom.aircraft[0].dataLink[10] tDistribution:vector ETV
attr "" ""
attr source computeTDistribution
vector 10 Aerocom.aircraft[0].dataLink[3] tDistribution:vector ETV
attr "" ""
attr source computeTDistribution
vector 11 Aerocom.aircraft[0].dataLink[11] tDistribution:vector ETV
attr "" ""
attr source computeTDistribution
vector 12 Aerocom.aircraft[0].dataLink[1] tDistribution:vector ETV
attr "" ""
attr source computeTDistribution
vector 13 Aerocom.aircraft[0].dataLink[8] tDistribution:vector ETV
attr "" ""
attr source computeTDistribution
vector 14 Aerocom.aircraft[0].dataLink[13] tDistribution:vector ETV
attr "" ""
attr source computeTDistribution
vector 15 Aerocom.aircraft[0].dataLink[4] tDistribution:vector ETV
attr "" ""
attr source computeTDistribution
vector 16 Aerocom.aircraft[0].dataLink[0] tDistribution:vector ETV
attr "" ""
attr source computeTDistribution
vector 17 Aerocom.aircraft[0].dataLink[6] tDistribution:vector ETV
attr "" ""
attr source computeTDistribution
vector 18 Aerocom.aircraft[0].dataLink[15] tDistribution:vector ETV
attr "" ""
attr source computeTDistribution
vector 19 Aerocom.aircraft[0].dataLink[9] tDistribution:vector ETV
attr "" ""
attr source computeTDistribution
vector 20 Aerocom.aircraft[0].dataLink[2] tDistribution:vector ETV
attr "" ""
attr source computeTDistribution
vector 21 Aerocom.aircraft[0].dataLink[7] tDistribution:vector ETV
attr "" ""
attr source computeTDistribution
0	3133 1307463 4726 171197 10.0022351628 339.195383749946 32768 0.007005604484 0.15652475327 709.4292985375 24.476684271296
1	1310596 1212324 4726 171197 10.0022351628 339.195383749946 32768 0 0.14822304549 453.52728855996 15.305843944564
2	2522920 885376 4726 171197 10.0022351628 339.195383749946 32768 0 17 44896 192866
3	3408296 983468 4726 171197 10.0022351628 339.195383749946 32768 8000 9994 294407239 2651609730319
4	4391764 1437891 4726 171197 10.0022351628 339.195383749946 32768 0.0070042025215129 0.00875 255.92501846406 2.0037233436151
5	5829655 1307227 4732 171200 10.011621992067 339.199258733153 32768 1.8388e-07 0.091302334561 329.19459306708 6.5830986359283
0	7136882 240047 171202 201103 339.202848028044 399.994461170011 5888 0.007115267331 0.111336566378 130.86051917176 4.4803581640696
1	7376929 223177 171202 201103 339.202848028044 399.994461170011 5888 0 0.102905878675 83.576336826036 2.7428885019613
2	7600106 164184 171202 201103 339.202848028044 399.994461170011 5888 0 12 8045 32249
3	7764290 181822 171202 201103 339.202848028044 399.994461170011 5888 8030 9964 51459726 450668478342
4	7946112 263409 171202 201103 339.202848028044 399.994461170011 5888 0.007025291047772 0.0087173100871731 47.253649510843 0.37997119020601
5	8209521 239857 171205 201101 339.206215059142 399.994420866581 5886 3.70608e-07 0.108040050329 60.815043418419 1.2489021571687
6	8449378 8520 4734 197902 10.011938856429 393.608949456136 205 0.0054145980244246 10.20432764257 390.43139704693 1540.4351946994
7	8457898 8388 4762 200755 10.080049702041 399.239646057615 202 0.025312051001123 13.620948674559 392.00381601851 1426.4577175994
8	8466286 8070 4857 200431 10.247702584939 398.439151146399 195 0.021110496282625 10.658234222659 392.63403607341 1582.989133009
9	8474356 8166 4926 199776 10.380345201749 397.237215640871 197 0.0023691091193444 11.911861373506 391.3287245169 1601.3815735026
10	8482522 7702 4950 200930 10.404166944242 399.599988032157 182 0.02135587170734 10.204499261808 392.83223913275 1547.3903404319
11	8490224 8382 5003 198146 10.494636270919 394.066048924878 197 0.0097127160175035 12.730779877885 391.97714148026 1636.3480381458
12	8498606 8027 5028 198707 10.565802178999 395.236590470666 189 0.0066234626278573 10.553513833571 389.88161321646 1582.2441611968
13	8506633 8655 5084 200992 10.644168593617 399.795633792454 204 0.020402211080435 10.807334430202 391.71483139116 1363.38997521
14	8515288 7952 5741 200632 11.929423955906 399.000876249086 187 0.0018641996084759 11.545635482489 389.63084489204 1616.4610552737
15	8523240 7956 5776 200248 11.988459792906 398.097956056232 188 0.05045678548087 11.385227445296 388.22089514416 1473.2487802687
16	8531196 8681 5828 200996 12.103229980886 399.800191872206 204 0.0050786340340391 11.029682321304 389.70463311763 1449.5970192968
17	8539877 8605 6063 200768 12.554197797752 399.268551910276 202 0.001321152258398 9.8806945204157 388.41231521574 1545.6171238968
18	8548482 7892 6372 201093 13.106682162581 399.969093621814 186 0.018107995679761 10.917803679104 387.36438258173 1437.8679893401
19	8556374 8958 7111 198953 14.433802386278 395.740455194358 211 0.0064378288122841 10.455008593847 386.06222324355 1300.6009854955
20	8565332 8826 7713 200881 15.815994623195 399.500429062847 207 0.0031942659796743 9.1082673645721 388.63330479391 1460.169396194
21	8574158 6274 8147 199846 16.67211362572 397.364661634776 148 0.055869786766911 12.802778185656 384.49965003492 1976.1241823776

