file 8812554 1614185333                                         
version 2
run Nonmonitoring-exponential-173-20210224-17:48:52-26756
attr configname Nonmonitoring-exponential
attr datetime 20210224-17:48:52
attr experiment Nonmonitoring-exponential
attr inifile aerocom.ini
attr iterationvars $0=10
attr iterationvarsf 10-
attr measurement $0=10
attr network Aerocom
attr processid 26756
attr repetition 73
attr replication #73
attr resultdir results
attr runnumber 173
attr seedset 73
param **.t 2s
param **.k 10ms
param **.X 0.05s
param **.m 1s
param **.tDistribution "\"exponential\""
param **.operationMode 1
param **.s "70 byte"
param **.dimPoolMax 10000
param **.dimPoolMin 8000
param **.nDL 16
param **.nA 1
param **.DLMaxCapacity 0
param **.trasmitting false

vector 0 Aerocom.aircraft[0].linkSelector responseTime:vector ETV
attr "" ""
attr source computeResponseTime
vector 1 Aerocom.aircraft[0].linkSelector waitingTime:vector ETV
attr "" ""
attr source computeWaitingTime
vector 2 Aerocom.aircraft[0].linkSelector queueLength:vector ETV
attr "" ""
attr source computeQueueLength
vector 3 Aerocom.aircraft[0].dataLink[10] actualCapacity:vector ETV
attr "" ""
attr source computeActualCapacity
vector 4 Aerocom.aircraft[0].linkSelector serviceTime:vector ETV
attr "" ""
attr source computeServiceTime
vector 5 Aerocom.aircraft[0].packetGenerator arrivalTime:vector ETV
attr "" ""
attr source computeArrivalTime
vector 6 Aerocom.aircraft[0].dataLink[10] tDistribution:vector ETV
attr "" ""
attr source computeTDistribution
vector 7 Aerocom.aircraft[0].dataLink[7] tDistribution:vector ETV
attr "" ""
attr source computeTDistribution
vector 8 Aerocom.aircraft[0].dataLink[9] tDistribution:vector ETV
attr "" ""
attr source computeTDistribution
vector 9 Aerocom.aircraft[0].dataLink[11] tDistribution:vector ETV
attr "" ""
attr source computeTDistribution
vector 10 Aerocom.aircraft[0].dataLink[5] tDistribution:vector ETV
attr "" ""
attr source computeTDistribution
vector 11 Aerocom.aircraft[0].dataLink[13] tDistribution:vector ETV
attr "" ""
attr source computeTDistribution
vector 12 Aerocom.aircraft[0].dataLink[2] tDistribution:vector ETV
attr "" ""
attr source computeTDistribution
vector 13 Aerocom.aircraft[0].dataLink[12] tDistribution:vector ETV
attr "" ""
attr source computeTDistribution
vector 14 Aerocom.aircraft[0].dataLink[15] tDistribution:vector ETV
attr "" ""
attr source computeTDistribution
vector 15 Aerocom.aircraft[0].dataLink[3] tDistribution:vector ETV
attr "" ""
attr source computeTDistribution
vector 16 Aerocom.aircraft[0].dataLink[6] tDistribution:vector ETV
attr "" ""
attr source computeTDistribution
vector 17 Aerocom.aircraft[0].dataLink[1] tDistribution:vector ETV
attr "" ""
attr source computeTDistribution
vector 18 Aerocom.aircraft[0].dataLink[8] tDistribution:vector ETV
attr "" ""
attr source computeTDistribution
vector 19 Aerocom.aircraft[0].dataLink[0] tDistribution:vector ETV
attr "" ""
attr source computeTDistribution
vector 20 Aerocom.aircraft[0].dataLink[14] tDistribution:vector ETV
attr "" ""
attr source computeTDistribution
vector 21 Aerocom.aircraft[0].dataLink[4] tDistribution:vector ETV
attr "" ""
attr source computeTDistribution
0	3134 1307451 5048 171384 10.00417921649 332.229846276096 32768 0.007012622721 0.186902771989 794.58132825697 32.212505707425
1	1310585 1221182 5048 171388 10.00417921649 332.237090926281 32768 0 0.178337985497 538.71270778429 21.672018714022
2	2531767 885611 5048 171388 10.00417921649 332.237090926281 32768 0 20 55144 278362
3	3417378 983423 5048 171388 10.00417921649 332.237090926281 32768 8002 9988 294542858 2654651204674
4	4400801 1437731 5048 171388 10.00417921649 332.237090926281 32768 0.0070084100921105 0.0087478130467383 255.86809243973 2.0033298501107
5	5838532 1307052 5051 171389 10.011256950887 332.238023655608 32768 8.1603e-08 0.101478542606 322.24855732315 6.3530975768169
0	7145584 281484 171391 206373 332.244848878182 399.996766090864 6901 0.007075710098 0.12843369715 157.04903066903 5.456211647102
1	7427068 263379 171391 206373 332.244848878182 399.996766090864 6901 0 0.120938247958 103.1214695363 3.415010257084
2	7690447 192583 171391 206373 332.244848878182 399.996766090864 6901 0 16 10409 43937
3	7883030 213243 171391 206373 332.244848878182 399.996766090864 6901 8077 9901 61935316 556987300394
4	8096273 308901 171391 206373 332.244848878182 399.996766090864 6901 0.0070699929300071 0.0086665841277702 53.933646006508 0.4223550354906
5	8405174 281357 171397 206371 332.259814274042 399.99053196089 6900 1.683246e-06 0.08445901812 67.740742010085 1.3328626722342
6	8686531 7281 5075 203843 10.041532808758 395.156936737513 176 0.013351534428354 12.849543001122 390.53430561048 1708.0251990775
7	8693812 8008 5103 204642 10.092798127144 396.762847016485 193 0.0074410486427224 9.5788332040523 391.58143017111 1522.6605148337
8	8701820 7780 5268 204503 10.374037362307 396.464238974012 188 0.0077406333067674 11.633240723338 393.06030860408 1756.8687477715
9	8709600 7001 5269 203074 10.374898003086 393.769522104309 169 0.059834779746709 8.2690466355751 391.21424761234 1470.6078860373
10	8716601 8232 5345 205886 10.558639360834 398.948045007319 194 0.036920429199957 9.6877861296342 390.15959468893 1504.6745514922
11	8724833 7825 5356 204487 10.578131101322 396.444689502425 184 0.0091437620959677 11.441917406866 389.49798030138 1587.6827657744
12	8732658 7906 5391 205969 10.670706834802 399.105787051622 186 0.0046969278311677 10.015556454927 389.34047459943 1478.2911244166
13	8740564 6933 5569 204208 11.065411279305 395.911693966542 164 0.022293741354428 10.545885189819 389.06413874714 1651.6916633083
14	8747497 7807 5570 206357 11.068102926206 399.926779333154 184 0.0074183472983786 15.554837332363 389.00876690018 1613.717651214
15	8755304 7818 5581 205972 11.115187866961 399.106829314217 184 0.012327218763274 11.712720818495 389.41219747031 1654.0286240204
16	8763122 8622 5888 206071 11.64927901318 399.358233098245 203 0.020900678815575 8.5663146523258 391.97192069736 1400.6865951996
17	8771744 8185 5969 205008 11.795509813523 397.424523081239 192 0.01293399787047 8.6213929808132 392.04648900436 1479.7071922234
18	8779929 7891 6795 204957 13.20867465987 397.325823635675 186 0.0062154773686739 10.968172608533 394.60772119436 1642.5895834497
19	8787820 8380 7164 204681 13.921330664507 396.833444123462 197 0.00053243207780863 13.291902252647 390.59086560964 1469.8650716649
20	8796200 8550 7884 205324 15.22606552402 398.027990276977 201 0.0006567256156947 13.265494355848 385.83721060323 1534.8485748815
21	8804750 7803 9836 205009 19.219590339819 397.427453652882 184 0.0039579447886069 7.8260623838606 383.89704447542 1378.6951668409

