file 5692550 1614185357                                         
version 2
run Nonmonitoring-exponential-366-20210224-17:49:16-26887
attr configname Nonmonitoring-exponential
attr datetime 20210224-17:49:16
attr experiment Nonmonitoring-exponential
attr inifile aerocom.ini
attr iterationvars $0=15
attr iterationvarsf 15-
attr measurement $0=15
attr network Aerocom
attr processid 26887
attr repetition 66
attr replication #66
attr resultdir results
attr runnumber 366
attr seedset 66
param **.t 2s
param **.k 15ms
param **.X 0.05s
param **.m 1s
param **.tDistribution "\"exponential\""
param **.operationMode 1
param **.s "70 byte"
param **.dimPoolMax 10000
param **.dimPoolMin 8000
param **.nDL 16
param **.nA 1
param **.DLMaxCapacity 0
param **.trasmitting false

vector 0 Aerocom.aircraft[0].packetGenerator arrivalTime:vector ETV
attr "" ""
attr source computeArrivalTime
vector 1 Aerocom.aircraft[0].linkSelector waitingTime:vector ETV
attr "" ""
attr source computeWaitingTime
vector 2 Aerocom.aircraft[0].linkSelector queueLength:vector ETV
attr "" ""
attr source computeQueueLength
vector 3 Aerocom.aircraft[0].dataLink[5] actualCapacity:vector ETV
attr "" ""
attr source computeActualCapacity
vector 4 Aerocom.aircraft[0].linkSelector serviceTime:vector ETV
attr "" ""
attr source computeServiceTime
vector 5 Aerocom.aircraft[0].linkSelector responseTime:vector ETV
attr "" ""
attr source computeResponseTime
vector 6 Aerocom.aircraft[0].dataLink[11] tDistribution:vector ETV
attr "" ""
attr source computeTDistribution
vector 7 Aerocom.aircraft[0].dataLink[5] tDistribution:vector ETV
attr "" ""
attr source computeTDistribution
vector 8 Aerocom.aircraft[0].dataLink[2] tDistribution:vector ETV
attr "" ""
attr source computeTDistribution
vector 9 Aerocom.aircraft[0].dataLink[6] tDistribution:vector ETV
attr "" ""
attr source computeTDistribution
vector 10 Aerocom.aircraft[0].dataLink[9] tDistribution:vector ETV
attr "" ""
attr source computeTDistribution
vector 11 Aerocom.aircraft[0].dataLink[8] tDistribution:vector ETV
attr "" ""
attr source computeTDistribution
vector 12 Aerocom.aircraft[0].dataLink[10] tDistribution:vector ETV
attr "" ""
attr source computeTDistribution
vector 13 Aerocom.aircraft[0].dataLink[12] tDistribution:vector ETV
attr "" ""
attr source computeTDistribution
vector 14 Aerocom.aircraft[0].dataLink[1] tDistribution:vector ETV
attr "" ""
attr source computeTDistribution
vector 15 Aerocom.aircraft[0].dataLink[13] tDistribution:vector ETV
attr "" ""
attr source computeTDistribution
vector 16 Aerocom.aircraft[0].dataLink[4] tDistribution:vector ETV
attr "" ""
attr source computeTDistribution
vector 17 Aerocom.aircraft[0].dataLink[14] tDistribution:vector ETV
attr "" ""
attr source computeTDistribution
vector 18 Aerocom.aircraft[0].dataLink[0] tDistribution:vector ETV
attr "" ""
attr source computeTDistribution
vector 19 Aerocom.aircraft[0].dataLink[7] tDistribution:vector ETV
attr "" ""
attr source computeTDistribution
vector 20 Aerocom.aircraft[0].dataLink[3] tDistribution:vector ETV
attr "" ""
attr source computeTDistribution
vector 21 Aerocom.aircraft[0].dataLink[15] tDistribution:vector ETV
attr "" ""
attr source computeTDistribution
0	3133 1034824 3668 136873 10.000490695725 399.970119222553 26027 5.312e-09 0.142220439487 390.03400702323 11.752069049169
1	1037957 874287 3669 136874 10.000490695725 399.970119222553 26027 0 0.056501050648 112.11666937014 1.5519631386886
2	1912244 699680 3669 136874 10.000490695725 399.970119222553 26027 0 7 7563 14351
3	2611924 777761 3669 136874 10.000490695725 399.970119222553 26027 8009 9979 234976753 2127037184703
4	3389685 1138772 3669 136874 10.000490695725 399.970119222553 26027 0.0070147309349634 0.0087401673117743 202.34044138512 1.5772912964363
5	4528457 1035079 3670 136875 10.007902809236 399.977765317583 26027 0.007014730935 0.064362685868 314.45711075519 4.886059002528
6	5563536 8797 3713 136824 10.110570117848 399.83845557799 213 0.014701140421225 10.404273484338 391.25194650068 1428.2922870924
7	5572333 8436 3739 136771 10.201021655974 399.614243256599 205 0.0013917664462733 10.576022597869 389.95526786368 1406.369103027
8	5580769 7772 3740 136828 10.208747268304 399.848207716534 189 0.0042403943964082 10.209205004591 390.12709319984 1518.1254512934
9	5588541 7355 3773 136745 10.276977359089 399.531968275725 179 0.011314663875256 9.4699668357303 390.39080521454 1619.3713682953
10	5595896 7285 3928 136819 10.664931034554 399.809429751248 173 0.034175952142269 12.31689434687 391.39272362654 1644.9496626054
11	5603181 7159 3936 135827 10.686910672861 396.664121728669 170 0.018675170248336 14.18746397249 389.45067206092 1774.1710298821
12	5610340 8000 4125 136803 11.155583418321 399.755988004076 189 0.003222878768968 17.191734518717 389.65832996957 1830.8405648808
13	5618340 9020 4193 136848 11.362329375737 399.880511038859 214 0.01410236657873 15.801408973702 393.14685994817 1554.3661249912
14	5627360 9072 4289 136274 11.571934141187 398.0874467965 215 0.00063263850751612 9.8446213072536 388.43042462601 1420.537601117
15	5636432 8581 4322 136794 11.66679137979 399.722149103968 203 0.0018345114077893 9.4030899254565 388.86445226455 1378.4756873739
16	5645013 8137 4454 136557 11.95210265189 398.98022512931 193 0.00075336017816691 10.174013996068 389.28191618715 1468.0663124427
17	5653150 7516 4633 136603 12.465282725986 399.085886724736 178 0.010001407845134 11.404435312999 389.23409564524 1648.5040719329
18	5660666 8082 5190 136333 13.974651158272 398.327323368405 192 0.0035802776529738 10.072268623493 392.01565029566 1449.59071179
19	5668748 8353 5263 136878 14.173738705206 399.989697080211 197 0.0074633922145966 12.19502759456 385.84191550964 1592.7687656397
20	5677101 7205 5350 134647 14.50235090866 393.184654765199 171 0.010458720523934 14.500667466043 388.28189669664 1687.5410134577
21	5684306 8243 5854 136172 16.171228272601 397.781549701761 195 0.010959503860317 13.944061578957 386.11556288195 1456.1714113083

