file 1761637 1614185372                                         
version 2
run Nonmonitoring-exponential-568-20210224-17:49:32-27092
attr configname Nonmonitoring-exponential
attr datetime 20210224-17:49:32
attr experiment Nonmonitoring-exponential
attr inifile aerocom.ini
attr iterationvars $0=50
attr iterationvarsf 50-
attr measurement $0=50
attr network Aerocom
attr processid 27092
attr repetition 68
attr replication #68
attr resultdir results
attr runnumber 568
attr seedset 68
param **.t 2s
param **.k 50ms
param **.X 0.05s
param **.m 1s
param **.tDistribution "\"exponential\""
param **.operationMode 1
param **.s "70 byte"
param **.dimPoolMax 10000
param **.dimPoolMin 8000
param **.nDL 16
param **.nA 1
param **.DLMaxCapacity 0
param **.trasmitting false

vector 0 Aerocom.aircraft[0].packetGenerator arrivalTime:vector ETV
attr "" ""
attr source computeArrivalTime
vector 1 Aerocom.aircraft[0].linkSelector waitingTime:vector ETV
attr "" ""
attr source computeWaitingTime
vector 2 Aerocom.aircraft[0].linkSelector queueLength:vector ETV
attr "" ""
attr source computeQueueLength
vector 3 Aerocom.aircraft[0].dataLink[15] actualCapacity:vector ETV
attr "" ""
attr source computeActualCapacity
vector 4 Aerocom.aircraft[0].linkSelector serviceTime:vector ETV
attr "" ""
attr source computeServiceTime
vector 5 Aerocom.aircraft[0].linkSelector responseTime:vector ETV
attr "" ""
attr source computeResponseTime
vector 6 Aerocom.aircraft[0].dataLink[9] tDistribution:vector ETV
attr "" ""
attr source computeTDistribution
vector 7 Aerocom.aircraft[0].dataLink[13] tDistribution:vector ETV
attr "" ""
attr source computeTDistribution
vector 8 Aerocom.aircraft[0].dataLink[7] tDistribution:vector ETV
attr "" ""
attr source computeTDistribution
vector 9 Aerocom.aircraft[0].dataLink[10] tDistribution:vector ETV
attr "" ""
attr source computeTDistribution
vector 10 Aerocom.aircraft[0].dataLink[5] tDistribution:vector ETV
attr "" ""
attr source computeTDistribution
vector 11 Aerocom.aircraft[0].dataLink[6] tDistribution:vector ETV
attr "" ""
attr source computeTDistribution
vector 12 Aerocom.aircraft[0].dataLink[12] tDistribution:vector ETV
attr "" ""
attr source computeTDistribution
vector 13 Aerocom.aircraft[0].dataLink[11] tDistribution:vector ETV
attr "" ""
attr source computeTDistribution
vector 14 Aerocom.aircraft[0].dataLink[14] tDistribution:vector ETV
attr "" ""
attr source computeTDistribution
vector 15 Aerocom.aircraft[0].dataLink[4] tDistribution:vector ETV
attr "" ""
attr source computeTDistribution
vector 16 Aerocom.aircraft[0].dataLink[0] tDistribution:vector ETV
attr "" ""
attr source computeTDistribution
vector 17 Aerocom.aircraft[0].dataLink[8] tDistribution:vector ETV
attr "" ""
attr source computeTDistribution
vector 18 Aerocom.aircraft[0].dataLink[15] tDistribution:vector ETV
attr "" ""
attr source computeTDistribution
vector 19 Aerocom.aircraft[0].dataLink[1] tDistribution:vector ETV
attr "" ""
attr source computeTDistribution
vector 20 Aerocom.aircraft[0].dataLink[2] tDistribution:vector ETV
attr "" ""
attr source computeTDistribution
vector 21 Aerocom.aircraft[0].dataLink[3] tDistribution:vector ETV
attr "" ""
attr source computeTDistribution
0	3134 310795 942 43544 10.000246207814 399.918663030395 7903 4.055783e-06 0.493452857041 390.10653068605 38.582962521127
1	313929 224461 943 43545 10.000246207814 399.918663030395 7903 0 0.022774151475 5.874219330886 0.041783500411051
2	538390 208968 943 43545 10.000246207814 399.918663030395 7903 0 2 150 172
3	747358 232677 943 43545 10.000246207814 399.918663030395 7903 8048 9975 71076821 640799375851
4	980035 342287 943 43545 10.000246207814 399.918663030395 7903 0.0070175438596491 0.0086978131212724 61.661239737618 0.48226812096483
5	1322322 310933 944 43546 10.008310723943 399.926177791533 7903 0.00701754386 0.030595380525 67.535459068492 0.61650517400664
6	1633255 8262 992 43538 10.709266097482 399.805545118002 203 0.0011247522433759 10.771163693455 390.58383861871 1503.2422616957
7	1641517 8369 1018 43034 10.941780178899 395.2891518238 205 0.0017625388329964 24.498436057945 389.99544306724 1950.4451654598
8	1649886 9383 1025 43549 11.069497237315 399.942613858006 230 0.0048740112892182 9.789488314851 392.86163406974 1303.8018585817
9	1659269 7654 1031 42706 11.180094603868 392.649959936863 188 0.00023589417039243 12.574497578856 389.35116465731 1674.1195010239
10	1666923 8208 1032 43521 11.272865207298 399.676871790545 197 0.0059416837635402 10.021877621365 391.10449391826 1524.6323093372
11	1675131 7574 1033 42966 11.297633767526 394.649697491497 181 0.0012854784563694 10.570503082331 389.08301742284 1508.6905712485
12	1682705 9554 1042 43333 11.409390422272 397.887107724573 229 0.0020008159427457 7.7472366936666 388.77085553189 1210.9642416763
13	1692259 7712 1118 43431 11.880949518206 399.042520384561 185 0.0014340084730436 13.866578981812 388.95575309064 1582.8694770195
14	1699971 7195 1150 43238 12.020285212383 397.263099928284 173 0.017786455357876 12.105704261345 388.62467729415 1739.7422015385
15	1707166 8234 1187 43526 12.245731793314 399.729518167194 197 0.0011486831358844 11.143913401806 389.24749855381 1499.4204152559
16	1715400 8445 1231 43352 12.588100674151 398.0858937836 202 0.0036724369214126 11.826423347135 388.86170636269 1535.048469594
17	1723845 7406 1232 42825 12.590960249003 393.293737552064 177 0.0047976549469252 16.228039157068 388.94541144969 1781.1894644682
18	1731251 7473 1295 43355 13.120754270668 398.185527519734 179 0.0078552697936118 9.9137268880559 390.42338046715 1690.4151192892
19	1738724 8134 1370 43386 13.87197524174 398.404357826915 194 0.0064639326286986 9.7103435370079 386.22734592127 1565.4464071946
20	1746858 7794 1372 43340 13.988324789408 398.004221212612 186 0.012449921988141 12.566452769405 390.89168988648 1665.2493381782
21	1754652 6984 1613 43488 16.693633101327 399.401815121228 167 0.00016229652840872 15.041949584022 383.62622588735 1796.9946847927

