version 2
run Nonmonitoring-exponential-507-20210224-17:49:27-27046
attr configname Nonmonitoring-exponential
attr datetime 20210224-17:49:27
attr experiment Nonmonitoring-exponential
attr inifile aerocom.ini
attr iterationvars $0=50
attr iterationvarsf 50-
attr measurement $0=50
attr network Aerocom
attr processid 27046
attr repetition 7
attr replication #7
attr resultdir results
attr runnumber 507
attr seedset 7
param **.t 2s
param **.k 50ms
param **.X 0.05s
param **.m 1s
param **.tDistribution "\"exponential\""
param **.operationMode 1
param **.s "70 byte"
param **.dimPoolMax 10000
param **.dimPoolMin 8000
param **.nDL 16
param **.nA 1
param **.DLMaxCapacity 0
param **.trasmitting false

vector 0 Aerocom.aircraft[0].packetGenerator arrivalTime:vector ETV
attr "" ""
attr source computeArrivalTime
vector 1 Aerocom.aircraft[0].linkSelector waitingTime:vector ETV
attr "" ""
attr source computeWaitingTime
vector 2 Aerocom.aircraft[0].linkSelector queueLength:vector ETV
attr "" ""
attr source computeQueueLength
vector 3 Aerocom.aircraft[0].dataLink[6] actualCapacity:vector ETV
attr "" ""
attr source computeActualCapacity
vector 4 Aerocom.aircraft[0].linkSelector serviceTime:vector ETV
attr "" ""
attr source computeServiceTime
vector 5 Aerocom.aircraft[0].linkSelector responseTime:vector ETV
attr "" ""
attr source computeResponseTime
vector 6 Aerocom.aircraft[0].dataLink[14] tDistribution:vector ETV
attr "" ""
attr source computeTDistribution
vector 7 Aerocom.aircraft[0].dataLink[5] tDistribution:vector ETV
attr "" ""
attr source computeTDistribution
vector 8 Aerocom.aircraft[0].dataLink[9] tDistribution:vector ETV
attr "" ""
attr source computeTDistribution
vector 9 Aerocom.aircraft[0].dataLink[12] tDistribution:vector ETV
attr "" ""
attr source computeTDistribution
vector 10 Aerocom.aircraft[0].dataLink[0] tDistribution:vector ETV
attr "" ""
attr source computeTDistribution
vector 11 Aerocom.aircraft[0].dataLink[11] tDistribution:vector ETV
attr "" ""
attr source computeTDistribution
vector 12 Aerocom.aircraft[0].dataLink[13] tDistribution:vector ETV
attr "" ""
attr source computeTDistribution
vector 13 Aerocom.aircraft[0].dataLink[2] tDistribution:vector ETV
attr "" ""
attr source computeTDistribution
vector 14 Aerocom.aircraft[0].dataLink[4] tDistribution:vector ETV
attr "" ""
attr source computeTDistribution
vector 15 Aerocom.aircraft[0].dataLink[7] tDistribution:vector ETV
attr "" ""
attr source computeTDistribution
vector 16 Aerocom.aircraft[0].dataLink[8] tDistribution:vector ETV
attr "" ""
attr source computeTDistribution
vector 17 Aerocom.aircraft[0].dataLink[6] tDistribution:vector ETV
attr "" ""
attr source computeTDistribution
vector 18 Aerocom.aircraft[0].dataLink[3] tDistribution:vector ETV
attr "" ""
attr source computeTDistribution
vector 19 Aerocom.aircraft[0].dataLink[10] tDistribution:vector ETV
attr "" ""
attr source computeTDistribution
vector 20 Aerocom.aircraft[0].dataLink[1] tDistribution:vector ETV
attr "" ""
attr source computeTDistribution
vector 21 Aerocom.aircraft[0].dataLink[15] tDistribution:vector ETV
attr "" ""
attr source computeTDistribution
0	1118	10.024981857526	0.081662208834
0	1124	10.10664406636	0.062300541257
0	1129	10.168944607617	0.11492671726
0	1137	10.283871324877	0.008171528924
0	1142	10.292042853801	0.017536231344
0	1147	10.309579085145	0.047694902736
0	1152	10.357273987881	0.012851452682
0	1157	10.370125440563	0.008176029448
0	1162	10.378301470011	0.105214354261
0	1168	10.483515824272	0.030969955225
0	1174	10.514485779497	0.026562628608
0	1179	10.541048408105	0.196263726211
0	1184	10.737312134316	0.006888995993
0	1186	10.744201130309	0.092741084728
0	1195	10.836942215037	0.108273110301
0	1201	10.945215325338	0.058868943178
0	1206	11.004084268516	0.012300415105
0	1211	11.016384683621	0.031069140888
0	1217	11.047453824509	0.047578710529
0	1222	11.095032535038	0.124309546022
0	1229	11.21934208106	0.029232974613
0	1235	11.248575055673	0.065944400886
0	1240	11.314519456559	0.069955944316
0	1245	11.384475400875	0.000105135634
0	1247	11.384580536509	0.030578268222
0	1255	11.415158804731	0.055878938664
0	1261	11.471037743395	0.001865155016
0	1263	11.472902898411	0.043225969355
0	1272	11.516128867766	0.054049966058
0	1277	11.570178833824	0.032600792397
0	1283	11.602779626221	0.021156535741
0	1288	11.623936161962	0.028645614104
0	1293	11.652581776066	0.074303640917
0	1299	11.726885416983	0.022573577057
0	1304	11.74945899404	0.054781096955
0	1309	11.804240090995	0.016713761474
0	1315	11.820953852469	0.027123465459
0	1320	11.848077317928	0.073926074246
0	1326	11.922003392174	0.050977316242
0	1331	11.972980708416	0.062907149791
0	1336	12.035887858207	0.021927291374
0	1341	12.057815149581	0.008886460611
0	1346	12.066701610192	0.027709310768
0	1351	12.09441092096	0.071503487376
0	1357	12.165914408336	0.165136974361
0	1364	12.331051382697	0.077048832523
0	1371	12.40810021522	0.024959394311
0	1376	12.433059609531	0.067086435465
0	1381	12.500146044996	0.019102795161
0	1386	12.519248840157	0.012990476228
0	1391	12.532239316385	0.024466056992
0	1398	12.556705373377	0.020039662939
0	1403	12.576745036316	0.077057708891
0	1409	12.653802745207	0.016157326487
0	1414	12.669960071694	0.018610100407
0	1419	12.688570172101	0.113942649128
0	1424	12.802512821229	0.184090880411
0	1431	12.98660370164	0.129595154628
0	1436	13.116198856268	0.034979700685
0	1441	13.151178556953	0.048192125612
0	1446	13.199370682565	0.162672753787
0	1451	13.362043436352	0.007500671482
0	1453	13.369544107834	0.034821158224
0	1461	13.404365266058	0.007397692426
0	1463	13.411762958484	0.001851566002
0	1468	13.413614524486	0.022774906562
0	1476	13.436389431048	0.039961445511
0	1481	13.476350876559	0.006134916462
0	1483	13.482485793021	0.000426086163
0	1485	13.482911879184	0.035854853256
0	1497	13.51876673244	0.017568195637
0	1502	13.536334928077	0.015011770831
0	1507	13.551346698908	0.067080137385
0	1513	13.618426836293	0.005853545966
0	1515	13.624280382259	0.058223428464
0	1523	13.682503810723	0.010419770136
0	1528	13.692923580859	0.082547309369
0	1533	13.775470890228	0.019575089865
0	1538	13.795045980093	0.014617597527
0	1543	13.80966357762	0.054761770853
0	1548	13.864425348473	0.061137342044
0	1554	13.925562690517	0.018695354948
0	1559	13.944258045465	0.017457060484
0	1565	13.961715105949	0.037111488759
0	1570	13.998826594708	0.028354926399
0	1576	14.027181521107	0.020305896993
0	1581	14.0474874181	0.052235034512
0	1586	14.099722452612	0.004624126295
0	1588	14.104346578907	0.092046616181
0	1596	14.196393195088	0.004621433389
0	1598	14.201014628477	0.027725539808
0	1606	14.228740168285	0.014537196181
0	1612	14.243277364466	0.033133726678
0	1617	14.276411091144	0.012311586043
0	1622	14.288722677187	0.065709978898
0	1627	14.354432656085	0.003237017136
0	1629	14.357669673221	0.042385684069
0	1637	14.40005535729	0.075203710368
0	1642	14.475259067658	0.016736655034
0	1647	14.491995722692	0.034272060472
0	1652	14.526267783164	0.03178299207
0	1657	14.558050775234	0.016027526634
0	1662	14.574078301868	0.013559500383
0	1667	14.587637802251	0.082992712518
0	1672	14.670630514769	0.013593440207
0	1677	14.684223954976	0.020600029546
0	1682	14.704823984522	0.046661029111
0	1687	14.751485013633	0.01088357687
0	1692	14.762368590503	0.020596351825
0	1697	14.782964942328	0.020925234311
0	1702	14.803890176639	0.009591088126
0	1707	14.813481264765	0.055854576705
0	1712	14.86933584147	0.006748249458
0	1714	14.876084090928	0.016641953472
0	1722	14.8927260444	0.023703137409
0	1727	14.916429181809	0.015438861636
0	1732	14.931868043445	0.008345736074
0	1737	14.940213779519	0.106490940188
0	1743	15.046704719707	0.021833752452
0	1748	15.068538472159	0.038731956339
0	1753	15.107270428498	0.011245043399
0	1758	15.118515471897	0.068083040788
0	1766	15.186598512685	0.043903276047
0	1772	15.230501788732	0.114045343466
0	1778	15.344547132198	0.00276257127
0	1780	15.347309703468	0.016007583737
0	1788	15.363317287205	0.020820988405
0	1793	15.38413827561	0.038117952549
0	1799	15.422256228159	0.040316078224
0	1804	15.462572306383	0.00714697212
0	1806	15.469719278503	0.008807662209
0	1814	15.478526940712	0.163318279374
0	1819	15.641845220086	0.023161828068
0	1824	15.665007048154	0.083687069086
0	1832	15.74869411724	0.060046517611
0	1837	15.808740634851	0.052692797577
0	1842	15.861433432428	0.069056004353
0	1848	15.930489436781	0.011298467469
0	1853	15.94178790425	0.033425840162
0	1859	15.975213744412	0.17671838355
0	1865	16.151932127962	0.113621342564
0	1871	16.265553470526	0.001809140636
0	1873	16.267362611162	0.019350258235
0	1882	16.286712869397	0.02751595154
0	1887	16.314228820937	0.015321427071
0	1892	16.329550248008	0.144491412397
0	1897	16.474041660405	0.14371142107
0	1902	16.617753081475	0.019225050394
0	1907	16.636978131869	0.092928856197
0	1913	16.729906988066	0.07500996271
0	1919	16.804916950776	0.081642810915
0	1927	16.886559761691	0.184627520085
0	1933	17.071187281776	0.007844941156
0	1935	17.079032222932	0.060522115762
0	1946	17.139554338694	0.146246410511
0	1951	17.285800749205	0.018014721999
0	1956	17.303815471204	0.091895825708
0	1962	17.395711296912	0.173149236713
0	1968	17.568860533625	0.033131518143
0	1973	17.601992051768	0.025185317241
0	1978	17.627177369009	0.060402280022
0	1983	17.687579649031	0.151113120636
0	1989	17.838692769667	0.005641786627
0	1991	17.844334556294	0.006928979105
0	1996	17.851263535399	0.02294878069
0	2004	17.874212316089	0.138281980786
0	2009	18.012494296875	0.163233728794
0	2014	18.175728025669	0.070756925532
0	2019	18.246484951201	0.067401713302
0	2025	18.313886664503	0.002360832421
0	2027	18.316247496924	0.010776645936
0	2032	18.32702414286	0.054364651645
0	2040	18.381388794505	0.013417888306
0	2045	18.394806682811	0.012846084724
0	2050	18.407652767535	0.046599956242
0	2055	18.454252723777	0.036641266459
0	2061	18.490893990236	0.006071438641
0	2063	18.496965428877	0.035736450242
0	2071	18.532701879119	0.002156856567
0	2073	18.534858735686	0.005688787403
0	2078	18.540547523089	0.010655487048
0	2083	18.551203010137	0.084387118122
0	2093	18.635590128259	0.005459126935
0	2095	18.641049255194	0.164108118726
0	2104	18.80515737392	0.015023740814
0	2109	18.820181114734	0.044443797903
0	2114	18.864624912637	0.094064523782
0	2119	18.958689436419	0.025896879947
0	2124	18.984586316366	0.075606555402
0	2129	19.060192871768	0.053337805009
0	2134	19.113530676777	0.072384269792
0	2141	19.185914946569	0.025187661085
0	2147	19.211102607654	0.012358819182
0	2152	19.223461426836	0.045220463803
0	2158	19.268681890639	0.006627835393
0	2160	19.275309726032	0.028340984683
0	2168	19.303650710715	0.193444104851
0	2174	19.497094815566	0.008295038504
0	2179	19.50538985407	0.011098080503
0	2184	19.516487934573	0.09637746901
0	2190	19.612865403583	0.051240885364
0	2196	19.664106288947	0.022262356544
0	2201	19.686368645491	0.036630544425
0	2207	19.722999189916	0.005396553453
0	2209	19.728395743369	0.094776887602
0	2217	19.823172630971	0.001898065498
0	2219	19.825070696469	0.122651080965
0	2228	19.947721777434	0.030434083853
0	2233	19.978155861287	0.047548843345
0	2238	20.025704704632	0.006856801984
0	2240	20.032561506616	0.227259630241
0	2250	20.259821136857	0.060825053873
0	2255	20.32064619073	0.006453314403
0	2258	20.327099505133	0.003274752183
0	2263	20.330374257316	0.11224821839
0	2273	20.442622475706	0.000151776357
0	2275	20.442774252063	0.099295161312
0	2286	20.542069413375	0.004668821578
0	2288	20.546738234953	0.013222887822
0	2296	20.559961122775	0.081959373403
0	2302	20.641920496178	0.017570726862
0	2307	20.65949122304	0.060397442824
0	2312	20.719888665864	0.02129943801
0	2317	20.741188103874	0.098323577107
0	2322	20.839511680981	9.4539575e-05
0	2324	20.839606220556	0.080885310462
0	2333	20.920491531018	0.065321767775
0	2338	20.985813298793	0.012980038577
0	2343	20.99879333737	0.014005639549
0	2348	21.012798976919	0.035534441683
0	2353	21.048333418602	0.137079362904
0	2358	21.185412781506	0.038888413378
0	2363	21.224301194884	0.028526567851
0	2369	21.252827762735	0.017386228514
0	2374	21.270213991249	0.036178973745
0	2380	21.306392964994	0.023039522039
0	2385	21.329432487033	0.004690694216
0	2387	21.334123181249	0.015753622109
0	2395	21.349876803358	0.020440510567
0	2400	21.370317313925	0.004897920905
0	2402	21.37521523483	0.010635163
0	2410	21.38585039783	0.069945083841
0	2416	21.455795481671	0.065950319108
0	2421	21.521745800779	0.065565039572
0	2426	21.587310840351	0.035457987436
0	2431	21.622768827787	0.000181600781
0	2433	21.622950428568	0.023317187102
0	2441	21.64626761567	0.013697467917
0	2446	21.659965083587	0.09680719893
0	2451	21.756772282517	0.015716180915
0	2456	21.772488463432	0.033818469375
0	2462	21.806306932807	0.078428175018
0	2468	21.884735107825	0.023973506305
0	2473	21.90870861413	0.035406370288
0	2479	21.944114984418	0.014389331922
0	2484	21.95850431634	0.031338632005
0	2489	21.989842948345	0.067787770535
0	2497	22.05763071888	0.015250578005
0	2502	22.072881296885	0.020365967793
0	2507	22.093247264678	0.046210051966
0	2512	22.139457316644	0.176722678108
0	2518	22.316179994752	0.104403776977
0	2523	22.420583771729	0.00367045725
0	2525	22.424254228979	0.250228887599
0	2535	22.674483116578	0.024839352574
0	2540	22.699322469152	0.001363729029
0	2542	22.700686198181	0.049169215795
0	2550	22.749855413976	0.037185137023
0	2555	22.787040550999	0.043086833519
0	2560	22.830127384518	0.002227334273
0	2562	22.832354718791	0.110147915617
0	2571	22.942502634408	0.092787292309
0	2576	23.035289926717	0.137783598605
0	2583	23.173073525322	0.050848473204
0	2591	23.223921998526	0.069687450199
0	2596	23.293609448725	0.025205249975
0	2602	23.3188146987	0.041953146437
0	2607	23.360767845137	0.018332928023
0	2612	23.37910077316	0.022313935901
0	2617	23.401414709061	0.003165327995
0	2619	23.404580037056	0.053882449129
0	2627	23.458462486185	0.113431193368
0	2633	23.571893679553	0.058452568587
0	2638	23.63034624814	0.120778691126
0	2643	23.751124939266	0.027048804399
0	2648	23.778173743665	0.150740460315
0	2656	23.92891420398	0.118064244328
0	2662	24.046978448308	0.12610505701
0	2668	24.173083505318	0.024465541156
0	2673	24.197549046474	0.001616005551
0	2675	24.199165052025	0.026997232485
0	2683	24.22616228451	0.104431580754
0	2689	24.330593865264	0.123360667344
0	2697	24.453954532608	0.002155817144
0	2699	24.456110349752	0.001318854501
0	2701	24.457429204253	0.197199491479
0	2712	24.654628695732	0.044926029236
0	2719	24.699554724968	0.071116507291
0	2724	24.770671232259	0.070013184752
0	2729	24.840684417011	0.112519934171
0	2735	24.953204351182	0.029282473127
0	2741	24.982486824309	0.069644368453
0	2748	25.052131192762	0.038441743227
0	2753	25.090572935989	0.118305664724
0	2759	25.208878600713	0.02734261577
0	2764	25.236221216483	0.067520442011
0	2769	25.303741658494	0.011931627994
0	2775	25.315673286488	0.117734435583
0	2781	25.433407722071	0.07561250449
0	2786	25.509020226561	0.001412257671
0	2788	25.510432484232	0.00124318414
0	2790	25.511675668372	0.056989190161
0	2803	25.568664858533	0.036200678263
0	2808	25.604865536796	0.093649082214
0	2814	25.69851461901	0.039332717733
0	2819	25.737847336743	0.109232758251
0	2824	25.847080094994	0.118372249596
0	2830	25.96545234459	0.002135218524
0	2832	25.967587563114	0.202655755422
0	2848	26.170243318536	0.032530368125
0	2853	26.202773686661	0.002049383013
0	2855	26.204823069674	0.043713128738
0	2863	26.248536198412	0.013323776815
0	2868	26.261859975227	0.012572803353
0	2873	26.27443277858	0.004218075819
0	2875	26.278650854399	0.02825285159
0	2883	26.306903705989	0.05693691986
0	2888	26.363840625849	0.090705816603
0	2893	26.454546442452	0.032800275455
0	2898	26.487346717907	0.192729304772
0	2905	26.680076022679	0.035814620102
0	2910	26.715890642781	0.055246993121
0	2915	26.771137635902	0.039314884868
0	2921	26.81045252077	0.125174767749
0	2927	26.935627288519	0.044677797083
0	2933	26.980305085602	0.007864592881
0	2938	26.988169678483	0.115660691409
0	2945	27.103830369892	0.030020413106
0	2950	27.133850782998	0.060806909003
0	2957	27.194657692001	0.004586520534
0	2959	27.199244212535	0.026780938221
0	2967	27.226025150756	0.010099334637
0	2972	27.236124485393	0.011566796127
0	2977	27.24769128152	0.038612300406
0	2982	27.286303581926	0.029663312074
0	2988	27.315966894	0.056721285281
0	2993	27.372688179281	0.004344832232
0	2995	27.377033011513	0.015835809486
0	3003	27.392868820999	0.043328009295
0	3008	27.436196830294	0.051139273478
0	3013	27.487336103772	0.046454596252
0	3018	27.533790700024	0.105940311787
0	3024	27.639731011811	0.438551869882
0	3033	28.078282881693	0.070028110623
0	3039	28.148310992316	0.03789843805
0	3044	28.186209430366	0.042240995405
0	3049	28.228450425771	0.007690021787
0	3051	28.236140447558	0.061249532326
0	3059	28.297389979884	0.043810621461
0	3065	28.341200601345	0.020096148768
0	3070	28.361296750113	0.020112619365
0	3075	28.381409369478	0.047902218583
0	3080	28.429311588061	0.026597089202
0	3086	28.455908677263	0.058938195504
0	3091	28.514846872767	0.066934264269
0	3098	28.581781137036	0.002319537387
0	3100	28.584100674423	0.002621091857
0	3102	28.58672176628	0.001866350887
0	3104	28.588588117167	0.042336986289
0	3118	28.630925103456	0.021109382951
0	3125	28.652034486407	0.125876197622
0	3132	28.777910684029	0.08313288775
0	3137	28.861043571779	0.045090253898
0	3143	28.906133825677	0.027701779733
0	3148	28.93383560541	0.021326165644
0	3153	28.955161771054	0.099058788381
0	3159	29.054220559435	0.056374918481
0	3164	29.110595477916	0.017350633588
0	3169	29.127946111504	0.034935641662
0	3174	29.162881753166	0.018164460724
0	3179	29.18104621389	0.008312817941
0	3184	29.189359031831	0.107087949197
0	3190	29.296446981028	0.018602815409
0	3195	29.315049796437	0.023831155237
0	3200	29.338880951674	0.044091251048
0	3205	29.382972202722	0.035380937813
0	3212	29.418353140535	0.187685481675
0	3218	29.60603862221	0.079385501696
0	3224	29.685424123906	0.071752732364
0	3229	29.75717685627	0.020475243493
0	3234	29.777652099763	0.064424180329
0	3240	29.842076280092	0.000249003159
0	3242	29.842325283251	0.022929879343
0	3250	29.865255162594	0.043998092846
0	3256	29.90925325544	0.163981302979
0	3262	30.073234558419	0.021512020145
0	3268	30.094746578564	0.008622829908
0	3273	30.103369408472	0.030247550973
0	3279	30.133616959445	0.025607018881
0	3285	30.159223978326	0.017303108646
0	3290	30.176527086972	0.010667302172
0	3295	30.187194389144	0.053291122048
0	3300	30.240485511192	0.183708991602
0	3307	30.424194502794	0.033831777408
0	3312	30.458026280202	0.082778763612
0	3318	30.540805043814	0.084858269153
0	3324	30.625663312967	0.006735576206
0	3326	30.632398889173	0.022591876039
0	3335	30.654990765212	0.102417499996
0	3342	30.757408265208	0.013915802054
0	3347	30.771324067262	0.028277636885
0	3352	30.799601704147	0.037906149322
0	3357	30.837507853469	0.002926104673
0	3359	30.840433958142	0.073016854354
0	3368	30.913450812496	0.0501912919
0	3375	30.963642104396	0.137001743312
0	3380	31.100643847708	0.081461527327
0	3388	31.182105375035	0.015222773302
0	3393	31.197328148337	0.045293568227
0	3398	31.242621716564	0.003548643923
0	3400	31.246170360487	0.0122810117
0	3405	31.258451372187	0.024192587459
0	3413	31.282643959646	0.020226312783
0	3419	31.302870272429	0.068111847688
0	3424	31.370982120117	0.002279073105
0	3426	31.373261193222	0.046233875989
0	3437	31.419495069211	0.042299907238
0	3442	31.461794976449	0.072622873555
0	3448	31.534417850004	0.057709231051
0	3453	31.592127081055	0.036120748184
0	3459	31.628247829239	0.01929209739
0	3464	31.647539926629	0.020270646234
0	3469	31.667810572863	0.094234722093
0	3475	31.762045294956	0.048606202742
0	3482	31.810651497698	0.007281403278
0	3485	31.817932900976	0.069370000855
0	3493	31.887302901831	0.017317572929
0	3498	31.90462047476	0.049906390474
0	3504	31.954526865234	0.003993048844
0	3506	31.958519914078	0.001088652048
0	3508	31.959608566126	0.004050995156
0	3513	31.963659561282	0.019962341792
0	3524	31.983621903074	0.02975035951
0	3529	32.013372262584	0.030351747437
0	3534	32.043724010021	0.028027584872
0	3541	32.071751594893	0.020760076168
0	3546	32.092511671061	0.07107306352
0	3551	32.163584734581	0.008338081138
0	3556	32.171922815719	0.038605564549
0	3562	32.210528380268	0.056293333544
0	3567	32.266821713812	0.025453870411
0	3572	32.292275584223	0.000796581057
0	3574	32.29307216528	0.062113916609
0	3582	32.355186081889	0.032941150956
0	3587	32.388127232845	0.010350646626
0	3592	32.398477879471	0.001570124458
0	3594	32.400048003929	0.028855599184
0	3602	32.428903603113	0.018269384109
0	3607	32.447172987222	0.083355971817
0	3612	32.530528959039	0.163234651366
0	3618	32.693763610405	0.089502133496
0	3623	32.783265743901	0.136088359589
0	3629	32.91935410349	0.025980103743
0	3634	32.945334207233	0.02729442177
0	3639	32.972628629003	0.057157511264
0	3644	33.029786140267	0.006482550368
0	3646	33.036268690635	0.000175337276
0	3648	33.036444027911	0.148817278207
0	3661	33.185261306118	0.021434037101
0	3666	33.206695343219	0.146282384112
0	3673	33.352977727331	0.003221750878
0	3675	33.356199478209	0.022925860331
0	3683	33.37912533854	0.036478370267
0	3689	33.415603708807	0.002730177882
0	3691	33.418333886689	0.127518158346
0	3700	33.545852045035	0.006621741969
0	3702	33.552473787004	0.086597044227
0	3710	33.639070831231	0.113834138264
0	3717	33.752904969495	0.029088338767
0	3722	33.781993308262	0.004310617864
0	3724	33.786303926126	0.002336419619
0	3726	33.788640345745	0.02768823303
0	3738	33.816328578775	0.129881846845
0	3743	33.94621042562	0.01640460559
0	3748	33.96261503121	0.007520577041
0	3750	33.970135608251	0.012769527096
0	3758	33.982905135347	0.037512763287
0	3763	34.020417898634	0.00477941947
0	3765	34.025197318104	0.221150524485
0	3774	34.246347842589	5.209035e-05
0	3776	34.246399932939	0.056924064314
0	3784	34.303323997253	0.009175828627
0	3789	34.31249982588	0.054673958356
0	3794	34.367173784236	0.046458527904
0	3799	34.41363231214	0.008969533408
0	3804	34.422601845548	0.019977116627
0	3809	34.442578962175	0.013091942279
0	3814	34.455670904454	0.060733543965
0	3819	34.516404448419	0.011404524669
0	3824	34.527808973088	0.030328629563
0	3829	34.558137602651	0.00634055508
0	3831	34.564478157731	0.063161347972
0	3839	34.627639505703	0.053472455025
0	3844	34.681111960728	0.010659130431
0	3850	34.691771091159	0.009217477766
0	3855	34.700988568925	0.012859756696
0	3860	34.713848325621	0.013680674208
0	3865	34.727528999829	0.144223320468
0	3870	34.871752320297	0.184453909694
0	3876	35.056206229991	0.121252907069
0	3881	35.17745913706	0.019072486282
0	3886	35.196531623342	0.042492960326
0	3891	35.239024583668	0.019314085142
0	3896	35.25833866881	0.192973914447
0	3903	35.451312583257	0.030209309809
0	3908	35.481521893066	0.100488437081
0	3914	35.582010330147	0.127859711596
0	3919	35.709870041743	0.104479227551
0	3924	35.814349269294	0.021337442359
0	3929	35.835686711653	0.037450636478
0	3934	35.873137348131	0.132703494814
0	3939	36.005840842945	0.006195773952
0	3941	36.012036616897	0.113972941958
0	3950	36.126009558855	0.049442354069
0	3956	36.175451912924	0.026122497176
0	3961	36.2015744101	0.165720409422
0	3971	36.367294819522	0.016840925999
0	3976	36.384135745521	0.029015222921
0	3981	36.413150968442	0.022741396573
0	3986	36.435892365015	0.037557615251
0	3992	36.473449980266	0.018831053833
0	3997	36.492281034099	0.0054634511
0	3999	36.497744485199	0.051043236244
0	4008	36.548787721443	0.02009604781
0	4014	36.568883769253	0.136439725731
0	4020	36.705323494984	0.007645701852
0	4022	36.712969196836	0.029010685215
0	4030	36.741979882051	0.117998980819
0	4035	36.85997886287	0.009422695922
0	4040	36.869401558792	0.268182186713
0	4046	37.137583745505	0.125962939146
0	4052	37.263546684651	0.112171636778
0	4058	37.375718321429	0.024587728571
0	4063	37.40030605	0.059714125639
0	4069	37.460020175639	0.06850718334
0	4074	37.528527358979	0.038966439164
0	4079	37.567493798143	0.042287331194
0	4086	37.609781129337	0.023254293341
0	4091	37.633035422678	0.052770509362
0	4097	37.68580593204	0.017356507914
0	4102	37.703162439954	0.124444675814
0	4107	37.827607115768	0.070224147104
0	4112	37.897831262872	0.029023952754
0	4117	37.926855215626	0.001764043523
0	4119	37.928619259149	0.000786471125
0	4121	37.929405730274	0.106307816962
0	4134	38.035713547236	0.011369061904
0	4139	38.04708260914	0.023868804669
0	4144	38.070951413809	0.114167936981
0	4151	38.18511935079	0.017810005143
0	4156	38.202929355933	0.03759179981
0	4161	38.240521155743	0.073605134925
0	4167	38.314126290668	0.032313619316
0	4173	38.346439909984	0.030956593255
0	4178	38.377396503239	0.013782020339
0	4183	38.391178523578	0.125095432817
0	4190	38.516273956395	0.028321990202
0	4196	38.544595946597	0.037614224499
0	4201	38.582210171096	0.011631980398
0	4206	38.593842151494	0.108294271981
0	4211	38.702136423475	0.00118141329
0	4213	38.703317836765	0.036438323097
0	4221	38.739756159862	0.039605424731
0	4226	38.779361584593	0.165215338103
0	4231	38.944576922696	0.178195047619
0	4237	39.122771970315	0.014880886232
0	4242	39.137652856547	0.053646466598
0	4248	39.191299323145	0.015896164676
0	4253	39.207195487821	0.143067389145
0	4259	39.350262876966	0.248353903251
0	4265	39.598616780217	0.18572848005
0	4271	39.784345260267	0.092128526505
0	4276	39.876473786772	0.14416634184
0	4282	40.020640128612	0.008686966312
0	4287	40.029327094924	0.039998067767
0	4292	40.069325162691	0.066831377928
0	4299	40.136156540619	0.015318618649
0	4304	40.151475159268	0.027091320102
0	4309	40.17856647937	0.013412693892
0	4314	40.191979173262	0.006478678087
0	4317	40.198457851349	0.023398416565
0	4325	40.221856267914	0.066868764145
0	4331	40.288725032059	0.005726543396
0	4333	40.294451575455	0.237863126526
0	4343	40.532314701981	0.044215162809
0	4348	40.57652986479	0.093054262885
0	4355	40.669584127675	0.03476523873
0	4361	40.704349366405	0.069237296135
0	4366	40.77358666254	0.02109704052
0	4371	40.79468370306	0.026087886214
0	4379	40.820771589274	0.185615082193
0	4387	41.006386671467	0.00358863446
0	4389	41.009975305927	0.008799672255
0	4394	41.018774978182	0.010385828004
0	4402	41.029160806186	0.021218580687
0	4408	41.050379386873	0.074677461645
0	4413	41.125056848518	0.001154542346
0	4415	41.126211390864	0.041647214666
0	4424	41.16785860553	0.326617985475
0	4432	41.494476591005	0.109056565584
0	4438	41.603533156589	0.012353819673
0	4443	41.615886976262	0.179752499227
0	4449	41.795639475489	0.018585469732
0	4454	41.814224945221	0.12526255684
0	4459	41.939487502061	0.020061930893
0	4464	41.959549432954	0.058613928024
0	4470	42.018163360978	0.01275789676
0	4475	42.030921257738	0.011351917917
0	4480	42.042273175655	0.033613821858
0	4486	42.075886997513	0.070946873853
0	4492	42.146833871366	0.003066358602
0	4494	42.149900229968	0.03022417027
0	4502	42.180124400238	0.039074011104
0	4508	42.219198411342	0.074568603736
0	4513	42.293767015078	0.032552310024
0	4518	42.326319325102	0.032039348587
0	4523	42.358358673689	0.000495963887
0	4525	42.358854637576	0.037879408123
0	4533	42.396734045699	0.07572758237
0	4538	42.472461628069	0.048124606224
0	4543	42.520586234293	0.047437081542
0	4548	42.568023315835	0.015328422734
0	4553	42.583351738569	0.183445437339
0	4559	42.766797175908	0.108018420491
0	4565	42.874815596399	0.082790305645
0	4571	42.957605902044	0.120162751884
0	4578	43.077768653928	0.071367899079
0	4584	43.149136553007	0.042645853015
0	4589	43.191782406022	0.015822087148
0	4594	43.20760449317	0.041281048489
0	4599	43.248885541659	0.002821160701
0	4601	43.25170670236	0.045758011328
0	4610	43.297464713688	0.020156494654
0	4616	43.317621208342	0.067500330794
0	4622	43.385121539136	0.084570630779
0	4627	43.469692169915	0.022319889284
0	4632	43.492012059199	0.003188644408
0	4634	43.495200703607	0.007594306703
0	4639	43.50279501031	0.024167206957
0	4647	43.526962217267	0.005547339396
0	4649	43.532509556663	0.072135200376
0	4657	43.604644757039	0.056567872463
0	4664	43.661212629502	0.135028725368
0	4669	43.79624135487	0.028725737151
0	4674	43.824967092021	0.09001063866
0	4679	43.914977730681	0.049128400907
0	4685	43.964106131588	0.010404342266
0	4690	43.974510473854	0.077528647483
0	4695	44.052039121337	0.054964375923
0	4701	44.10700349726	0.053236320824
0	4707	44.160239818084	0.019389140955
0	4712	44.179628959039	0.012764978185
0	4717	44.192393937224	0.177491717933
0	4722	44.369885655157	0.101432140236
0	4730	44.471317795393	0.230017905641
0	4737	44.701335701034	0.115956050269
0	4743	44.817291751303	0.021774268431
0	4749	44.839066019734	0.011362814348
0	4754	44.850428834082	0.086283923569
0	4759	44.936712757651	0.013449173513
0	4764	44.950161931164	0.091569731244
0	4769	45.041731662408	0.013545588849
0	4774	45.055277251257	0.011740226616
0	4779	45.067017477873	0.0331306003
0	4784	45.100148078173	0.04061625996
0	4789	45.140764338133	0.172818264327
0	4794	45.31358260246	0.015060352994
0	4799	45.328642955454	0.047104686082
0	4804	45.375747641536	0.010487228286
0	4809	45.386234869822	0.017178239853
0	4815	45.403413109675	0.009710542147
0	4820	45.413123651822	0.083492171413
0	4826	45.496615823235	0.000666152665
0	4828	45.4972819759	0.076044236122
0	4837	45.573326212022	0.118711473137
0	4843	45.692037685159	0.025477892413
0	4848	45.717515577572	0.005464636617
0	4850	45.722980214189	0.022744365067
0	4858	45.745724579256	0.021769212079
0	4863	45.767493791335	0.045829087203
0	4869	45.813322878538	0.015489087332
0	4874	45.82881196587	0.084005520805
0	4880	45.912817486675	0.228917290942
0	4887	46.141734777617	0.056165482224
0	4892	46.197900259841	0.020143337544
0	4897	46.218043597385	0.004729090947
0	4899	46.222772688332	0.061659385046
0	4907	46.284432073378	0.002867584417
0	4909	46.287299657795	0.010800852672
0	4914	46.298100510467	0.076568132959
0	4922	46.374668643426	0.006924724909
0	4924	46.381593368335	0.017861617061
0	4932	46.399454985396	0.085055653402
0	4937	46.484510638798	0.005405838419
0	4939	46.489916477217	0.005543507652
0	4944	46.495459984869	0.013757773485
0	4952	46.509217758354	0.064631569726
0	4958	46.57384932808	0.079075676301
0	4964	46.652925004381	0.039129256644
0	4970	46.692054261025	0.26307513118
0	4977	46.955129392205	0.023090490734
0	4982	46.978219882939	0.125127445865
0	4988	47.103347328804	8.3926705e-05
0	4990	47.103431255509	0.004609004036
0	4992	47.108040259545	0.023668157098
0	5004	47.131708416643	0.054199659596
0	5010	47.185908076239	0.148818324337
0	5017	47.334726400576	0.021766155851
0	5022	47.356492556427	0.064094463777
0	5028	47.420587020204	0.032256147261
0	5033	47.452843167465	0.028236710761
0	5038	47.481079878226	0.033913746683
0	5043	47.514993624909	0.085710053
0	5049	47.600703677909	0.024150605287
0	5054	47.624854283196	0.011808917111
0	5059	47.636663200307	0.016887629761
0	5064	47.653550830068	0.144907403857
0	5069	47.798458233925	0.049915386691
0	5075	47.848373620616	0.014821097509
0	5080	47.863194718125	0.022551739286
0	5085	47.885746457411	0.074091523752
0	5090	47.959837981163	0.020331352468
0	5095	47.980169333631	0.06527148918
0	5100	48.045440822811	0.011370755457
0	5106	48.056811578268	0.025527804373
0	5111	48.082339382641	0.16459035768
0	5116	48.246929740321	0.009240278316
0	5121	48.256170018637	0.028138223112
0	5126	48.284308241749	0.025613806211
0	5131	48.30992204796	0.026931341354
0	5136	48.336853389314	0.026634723069
0	5141	48.363488112383	0.028419312057
0	5146	48.39190742444	0.080741409424
0	5152	48.472648833864	0.04847076673
0	5158	48.521119600594	0.063658681087
0	5163	48.584778281681	0.00943615529
0	5168	48.594214436971	0.033071666825
0	5173	48.627286103796	0.005130093137
0	5175	48.632416196933	0.088323823856
0	5184	48.720740020789	0.085479971978
0	5189	48.806219992767	0.070858358897
0	5194	48.877078351664	0.087528981872
0	5199	48.964607333536	0.147030696929
0	5205	49.111638030465	0.01038221782
0	5210	49.122020248285	0.012234507832
0	5216	49.134254756117	0.065997875541
0	5221	49.200252631658	0.004820494423
0	5223	49.205073126081	0.014551538953
0	5231	49.219624665034	0.067811816354
0	5236	49.287436481388	0.021703094072
0	5241	49.30913957546	0.130289318898
0	5247	49.439428894358	0.181759337124
0	5252	49.621188231482	0.034469063254
0	5258	49.655657294736	0.06719062503
0	5264	49.722847919766	0.079756022207
0	5270	49.802603941973	0.118307306937
0	5277	49.92091124891	0.001462381155
0	5279	49.922373630065	0.013315290638
0	5284	49.935688920703	0.031293969905
0	5292	49.966982890608	0.037435684997
0	5297	50.004418575605	0.204402907909
0	5306	50.208821483514	0.010642583178
0	5311	50.219464066692	0.030117960654
0	5316	50.249582027346	0.105573537017
0	5321	50.355155564363	0.089866810964
0	5326	50.445022375327	0.002444714757
0	5328	50.447467090084	0.007833635873
0	5333	50.455300725957	0.090327382034
0	5342	50.545628107991	0.12579293411
0	5348	50.671421042101	0.063229159604
0	5354	50.734650201705	0.002687162552
0	5356	50.737337364257	0.127678701193
0	5365	50.86501606545	0.012951712923
0	5371	50.877967778373	0.085634520086
0	5376	50.963602298459	0.025923606368
0	5381	50.989525904827	0.009711771551
0	5386	50.999237676378	0.023516192063
0	5391	51.022753868441	0.044303596932
0	5396	51.067057465373	0.142535157623
0	5402	51.209592622996	0.068426437553
0	5407	51.278019060549	0.030632932444
0	5412	51.308651992993	0.185275908924
0	5419	51.493927901917	0.004995221269
0	5421	51.498923123186	0.051748802905
0	5429	51.550671926091	0.026707746315
0	5435	51.577379672406	0.019274792775
0	5440	51.596654465181	0.021130233956
0	5445	51.617784699137	0.078114028916
0	5450	51.695898728053	0.0369039834
0	5455	51.732802711453	0.000887207787
0	5457	51.73368991924	0.004803168909
0	5459	51.738493088149	0.040133438633
0	5470	51.778626526782	0.069833255823
0	5475	51.848459782605	0.048559926449
0	5480	51.897019709054	0.022658499941
0	5485	51.919678208995	0.016083448542
0	5490	51.935761657537	0.01443550295
0	5496	51.950197160487	0.02454566358
0	5501	51.974742824067	0.037885950119
0	5506	52.012628774186	0.104690874841
0	5514	52.117319649027	0.010562257855
0	5519	52.127881906882	0.213413631369
0	5524	52.341295538251	0.081135757432
0	5531	52.422431295683	0.007514341691
0	5533	52.429945637374	0.026829240786
0	5542	52.45677487816	0.141584423885
0	5547	52.598359302045	0.032283091342
0	5552	52.630642393387	0.026833916416
0	5557	52.657476309803	0.012674287763
0	5563	52.670150597566	0.034215368408
0	5569	52.704365965974	0.011632973665
0	5574	52.715998939639	0.064025720754
0	5580	52.780024660393	0.072515803734
0	5585	52.852540464127	0.041688941264
0	5591	52.894229405391	0.052390761037
0	5597	52.946620166428	0.044764050759
0	5602	52.991384217187	0.001995573996
0	5604	52.993379791183	0.033905421285
0	5612	53.027285212468	0.085011477852
0	5618	53.11229669032	0.016280946962
0	5623	53.128577637282	0.114626954922
0	5631	53.243204592204	0.02103056764
0	5636	53.264235159844	0.062201621314
0	5641	53.326436781158	0.134034924454
0	5647	53.460471705612	0.009538041834
0	5652	53.470009747446	0.048888990438
0	5658	53.518898737884	0.026755724247
0	5663	53.545654462131	0.089216228197
0	5669	53.634870690328	0.00952844233
0	5675	53.644399132658	0.02290107755
0	5680	53.667300210208	0.058637332202
0	5686	53.72593754241	0.137759967039
0	5692	53.863697509449	0.054207676235
0	5697	53.917905185684	0.040190596528
0	5702	53.958095782212	0.034132309118
0	5707	53.99222809133	0.016088934656
0	5712	54.008317025986	0.132175914627
0	5717	54.140492940613	0.060851725683
0	5724	54.201344666296	0.00144050826
0	5726	54.202785174556	0.01447590499
0	5734	54.217261079546	0.031325885873
0	5740	54.248586965419	0.040995844445
0	5746	54.289582809864	0.084662678156
0	5751	54.37424548802	0.035193670884
0	5757	54.409439158904	0.091974789824
0	5763	54.501413948728	0.002776864247
0	5765	54.504190812975	0.045292447605
0	5773	54.54948326058	0.078100201297
0	5778	54.627583461877	0.061589247322
0	5783	54.689172709199	0.012003689841
0	5789	54.70117639904	0.000171862809
0	5791	54.701348261849	0.002797391989
0	5793	54.704145653838	0.041185569715
0	5804	54.745331223553	0.016678947196
0	5809	54.762010170749	0.050444457742
0	5814	54.812454628491	0.039956544547
0	5819	54.852411173038	0.12573408798
0	5824	54.978145261018	0.0376837058
0	5829	55.015828966818	0.005360079575
0	5831	55.021189046393	0.048641437311
0	5840	55.069830483704	0.110019344362
0	5845	55.179849828066	0.007693061872
0	5850	55.187542889938	0.048344299607
0	5855	55.235887189545	0.21977148063
0	5863	55.455658670175	0.119031366385
0	5868	55.57469003656	0.053195693243
0	5873	55.627885729803	0.054646780052
0	5878	55.682532509855	0.049660948993
0	5883	55.732193458848	0.105471787513
0	5890	55.837665246361	0.006258606566
0	5892	55.843923852927	0.014657196634
0	5900	55.858581049561	0.001812161193
0	5902	55.860393210754	0.075270529843
0	5912	55.935663740597	0.209809979561
0	5918	56.145473720158	0.025808700406
0	5923	56.171282420564	0.011061241962
0	5928	56.182343662526	0.022696168539
0	5934	56.205039831065	0.014879436723
0	5939	56.219919267788	0.066323068279
0	5946	56.286242336067	0.016223688799
0	5951	56.302466024866	0.018311002622
0	5957	56.320777027488	0.014655285806
0	5962	56.335432313294	0.013669779012
0	5968	56.349102092306	0.061561057888
0	5973	56.410663150194	0.087536178126
0	5978	56.49819932832	0.064804936158
0	5985	56.563004264478	0.006299181754
0	5987	56.569303446232	0.184094153275
0	5996	56.753397599507	0.04170671397
0	6001	56.795104313477	0.004498741662
0	6003	56.799603055139	0.098653531488
0	6012	56.898256586627	0.077711893685
0	6019	56.975968480312	0.06460369001
0	6024	57.040572170322	0.028141397906
0	6029	57.068713568228	0.015938067508
0	6034	57.084651635736	0.018368735526
0	6039	57.103020371262	0.005123572476
0	6041	57.108143943738	0.131938106498
0	6050	57.240082050236	0.067778301211
0	6055	57.307860351447	0.024705112032
0	6060	57.332565463479	0.050946063423
0	6065	57.383511526902	0.007961411832
0	6067	57.391472938734	0.001183745695
0	6072	57.392656684429	0.015263802852
0	6077	57.407920487281	0.066604651503
0	6085	57.474525138784	0.117597925815
0	6090	57.592123064599	0.017892225917
0	6095	57.610015290516	0.098430767642
0	6101	57.708446058158	0.02959070852
0	6106	57.738036766678	0.05266631398
0	6111	57.790703080658	0.046555805172
0	6117	57.83725888583	0.150168406688
0	6125	57.987427292518	0.015853233701
0	6130	58.003280526219	0.014578675806
0	6135	58.017859202025	0.036798758004
0	6141	58.054657960029	0.053739241937
0	6146	58.108397201966	0.080982384831
0	6151	58.189379586797	0.149644471361
0	6156	58.339024058158	0.108473217792
0	6161	58.44749727595	0.01407346329
0	6166	58.46157073924	0.029842345142
0	6171	58.491413084382	0.007965163329
0	6173	58.499378247711	0.005942698433
0	6178	58.505320946144	0.181680446272
0	6187	58.687001392416	0.053560424429
0	6192	58.740561816845	0.19196419273
0	6199	58.932526009575	0.040866215862
0	6205	58.973392225437	0.013233079913
0	6210	58.98662530535	0.02888133919
0	6215	59.01550664454	0.02896896893
0	6220	59.04447561347	0.004469709153
0	6222	59.048945322623	0.047134695778
0	6231	59.096080018401	0.044235624854
0	6236	59.140315643255	0.058885293334
0	6243	59.199200936589	0.001429391387
0	6245	59.200630327976	0.064046969049
0	6253	59.264677297025	0.026464173006
0	6258	59.291141470031	0.031868612339
0	6263	59.32301008237	0.049984715815
0	6269	59.372994798185	0.003338162357
0	6271	59.376332960542	0.012023119929
0	6276	59.388356080471	0.205512924027
0	6284	59.593869004498	0.007312345045
0	6286	59.601181349543	0.050047694479
0	6294	59.651229044022	0.008689092791
0	6299	59.659918136813	0.091950003953
0	6304	59.751868140766	0.03318939685
0	6309	59.785057537616	0.014782074114
0	6314	59.79983961173	0.021311400498
0	6319	59.821151012228	0.036190115176
0	6324	59.857341127404	0.052124750639
0	6330	59.909465878043	0.11166501924
0	6335	60.021130897283	0.076259548246
0	6341	60.097390445529	0.005279389059
0	6343	60.102669834588	0.037536167739
0	6351	60.140206002327	0.008852245383
0	6356	60.14905824771	0.014675858162
0	6361	60.163734105872	0.013491079651
0	6366	60.177225185523	0.058034126537
0	6371	60.23525931206	0.000564586867
0	6373	60.235823898927	0.021098303955
0	6381	60.256922202882	0.004694471515
0	6383	60.261616674397	0.017698036908
0	6391	60.279314711305	0.055115170883
0	6396	60.334429882188	0.025884637384
0	6401	60.360314519572	0.181749317119
0	6407	60.542063836691	0.029816934633
0	6413	60.571880771324	0.064650478261
0	6418	60.636531249585	0.060363212936
0	6424	60.696894462521	0.095839493965
0	6429	60.792733956486	0.007423661471
0	6431	60.800157617957	0.00060287427
0	6433	60.800760492227	0.013750915276
0	6441	60.814511407503	0.071037175871
0	6449	60.885548583374	0.017580865733
0	6454	60.903129449107	0.075619933406
0	6461	60.978749382513	0.041821251777
0	6466	61.02057063429	0.005560893588
0	6468	61.026131527878	0.013708534139
0	6476	61.039840062017	0.027958090608
0	6481	61.067798152625	0.050320709127
0	6487	61.118118861752	0.018283205658
0	6492	61.13640206741	0.01516443167
0	6497	61.15156649908	0.067818592328
0	6502	61.219385091408	0.071570198848
0	6509	61.290955290256	0.008185182338
0	6511	61.299140472594	0.035440007857
0	6519	61.334580480451	0.015707864353
0	6524	61.350288344804	0.0273738898
0	6529	61.377662234604	0.035638747862
0	6534	61.413300982466	0.05606905605
0	6539	61.469370038516	0.213579167825
0	6548	61.682949206341	0.033076547063
0	6554	61.716025753404	0.024846228272
0	6559	61.740871981676	0.008476717455
0	6564	61.749348699131	0.01080152455
0	6569	61.760150223681	0.006280465725
0	6571	61.766430689406	0.085863866121
0	6579	61.852294555527	0.118466076256
0	6585	61.970760631783	0.019066043074
0	6590	61.989826674857	0.018406255484
0	6595	62.008232930341	0.038004157632
0	6600	62.046237087973	0.026428161329
0	6605	62.072665249302	0.039340457159
0	6611	62.112005706461	0.016613158127
0	6617	62.128618864588	0.043154808972
0	6622	62.17177367356	0.127699731809
0	6627	62.299473405369	0.043981099354
0	6634	62.343454504723	0.014727231171
0	6639	62.358181735894	0.012742573383
0	6644	62.370924309277	0.025254690401
0	6649	62.396178999678	0.006132598042
0	6651	62.40231159772	0.100463091795
0	6661	62.502774689515	0.020499277417
0	6666	62.523273966932	0.033810343029
0	6671	62.557084309961	0.183468827858
0	6677	62.740553137819	0.011190431028
0	6682	62.751743568847	0.059544516244
0	6687	62.811288085091	0.016882236353
0	6692	62.828170321444	0.018489985524
0	6697	62.846660306968	0.022317124882
0	6702	62.86897743185	0.011302824865
0	6707	62.880280256715	0.036165036012
0	6714	62.916445292727	0.000630802566
0	6716	62.917076095293	0.05898263968
0	6725	62.976058734973	0.006365504153
0	6727	62.982424239126	0.046623668102
0	6735	63.029047907228	0.053785012096
0	6740	63.082832919324	0.084371254524
0	6748	63.167204173848	0.039822777166
0	6753	63.207026951014	0.096076086298
0	6759	63.303103037312	0.151773235065
0	6765	63.454876272377	0.053867482403
0	6770	63.50874375478	0.030639891275
0	6775	63.539383646055	0.081903796954
0	6780	63.621287443009	0.104221432767
0	6786	63.725508875776	0.013614068109
0	6791	63.739122943885	0.045020209237
0	6797	63.784143153122	0.096249954589
0	6802	63.880393107711	0.002083664864
0	6805	63.882476772575	0.105604459101
0	6814	63.988081231676	0.003570259026
0	6816	63.991651490702	0.002704022714
0	6818	63.994355513416	0.012094369231
0	6827	64.006449882647	0.111593952817
0	6835	64.118043835464	0.112853624255
0	6840	64.230897459719	0.021209258411
0	6846	64.25210671813	0.034961033221
0	6851	64.287067751351	0.023133802411
0	6856	64.310201553762	0.004819367552
0	6858	64.315020921314	0.001178049853
0	6861	64.316198971167	0.01421821693
0	6869	64.330417188097	0.161415748924
0	6879	64.491832937021	0.008092617424
0	6884	64.499925554445	0.00892738745
0	6889	64.508852941895	0.041877027992
0	6894	64.550729969887	0.094731406927
0	6899	64.645461376814	0.09697495479
0	6904	64.742436331604	0.147767283102
0	6910	64.890203614706	0.017891987836
0	6915	64.908095602542	0.029323615188
0	6921	64.93741921773	0.068029085175
0	6926	65.005448302905	0.019233948416
0	6931	65.024682251321	0.018590569778
0	6936	65.043272821099	0.01700259426
0	6941	65.060275415359	0.06222178381
0	6946	65.122497199169	0.048251410333
0	6951	65.170748609502	0.350291004794
0	6960	65.521039614296	0.021874984038
0	6965	65.542914598334	0.020859246103
0	6970	65.563773844437	0.15283087488
0	6976	65.716604719317	0.003612555703
0	6978	65.72021727502	0.029917481837
0	6986	65.750134756857	0.00901167749
0	6991	65.759146434347	0.006107337575
0	6993	65.765253771922	0.004282151719
0	6998	65.769535923641	0.026267296295
0	7006	65.795803219936	0.048152186507
0	7011	65.843955406443	0.046656781377
0	7017	65.89061218782	0.146214374784
0	7025	66.036826562604	0.072075589815
0	7030	66.108902152419	0.012437976884
0	7035	66.121340129303	0.012021329737
0	7040	66.13336145904	0.001796465897
0	7042	66.135157924937	0.034937668989
0	7050	66.170095593926	0.02179652115
0	7055	66.191892115076	0.330104642912
0	7065	66.521996757988	0.02443194516
0	7070	66.546428703148	0.158414586379
0	7075	66.704843289527	0.006310131994
0	7077	66.711153421521	0.010976417291
0	7085	66.722129838812	0.044736845792
0	7091	66.766866684604	0.091774594815
0	7096	66.858641279419	0.001014908314
0	7098	66.859656187733	0.057445843829
0	7107	66.917102031562	0.160689946654
0	7112	67.077791978216	0.042050924889
0	7118	67.119842903105	0.112795286023
0	7124	67.232638189128	0.048676085817
0	7130	67.281314274945	0.017467512047
0	7136	67.298781786992	0.036016714207
0	7141	67.334798501199	0.003920130064
0	7144	67.338718631263	0.104438779186
0	7153	67.443157410449	0.020133017618
0	7159	67.463290428067	0.010816354731
0	7164	67.474106782798	0.038399833382
0	7169	67.51250661618	0.039873352158
0	7174	67.552379968338	0.007425889315
0	7176	67.559805857653	0.174850723665
0	7184	67.734656581318	0.00089342431
0	7186	67.735550005628	0.011438797374
0	7191	67.746988803002	0.010876363107
0	7199	67.757865166109	0.061411000991
0	7204	67.8192761671	0.03084661945
0	7209	67.85012278655	0.006489338381
0	7211	67.856612124931	0.045510587483
0	7219	67.902122712414	0.117081492374
0	7225	68.019204204788	0.027595716643
0	7230	68.046799921431	0.04819385653
0	7235	68.094993777961	0.012773453454
0	7240	68.107767231415	0.088283824434
0	7246	68.196051055849	0.199100183436
0	7253	68.395151239285	0.066656680195
0	7259	68.46180791948	0.056857231408
0	7264	68.518665150888	0.028537684816
0	7269	68.547202835704	0.131926252873
0	7276	68.679129088577	0.046315095743
0	7281	68.72544418432	0.255240816804
0	7286	68.980685001124	0.009144104472
0	7291	68.989829105596	0.027209524107
0	7297	69.017038629703	0.050166504538
0	7302	69.067205134241	0.089539581315
0	7308	69.156744715556	0.00571829069
0	7310	69.162463006246	0.013781532649
0	7318	69.176244538895	0.056174182618
0	7323	69.232418721513	0.003924536136
0	7325	69.236343257649	0.178276662569
0	7333	69.414619920218	0.005667911167
0	7335	69.420287831385	0.078380810171
0	7344	69.498668641556	0.041840740393
0	7350	69.540509381949	0.075894989392
0	7356	69.616404371341	0.033709806521
0	7361	69.650114177862	0.040893461164
0	7367	69.691007639026	0.008925948848
0	7372	69.699933587874	0.026634991589
0	7377	69.726568579463	0.028037947161
0	7382	69.754606526624	0.167851590429
0	7387	69.922458117053	0.043216863068
0	7392	69.965674980121	0.014129561547
0	7399	69.979804541668	0.008239311813
0	7404	69.988043853481	0.003650829081
0	7406	69.991694682562	0.009090742614
0	7411	70.000785425176	0.03359708657
0	7419	70.034382511746	0.050377692414
0	7424	70.08476020416	0.046737040781
0	7429	70.131497244941	0.002333132567
0	7431	70.133830377508	0.112371603929
0	7439	70.246201981437	0.078651675832
0	7445	70.324853657269	0.008284026336
0	7450	70.333137683605	0.014913185832
0	7455	70.348050869437	0.011904134494
0	7460	70.359955003931	0.011522029734
0	7465	70.371477033665	0.050682658764
0	7470	70.422159692429	0.000546961639
0	7472	70.422706654068	0.009277816998
0	7477	70.431984471066	0.013300376023
0	7486	70.445284847089	0.029460043046
0	7491	70.474744890135	0.000156936983
0	7493	70.474901827118	0.114195979537
0	7501	70.589097806655	0.016213277094
0	7506	70.605311083749	0.000568781176
0	7508	70.605879864925	0.023370907682
0	7516	70.629250772607	0.028931668958
0	7521	70.658182441565	0.132852951531
0	7528	70.791035393096	0.052077970108
0	7533	70.843113363204	0.021714203915
0	7538	70.864827567119	0.004836173852
0	7540	70.869663740971	0.001870623893
0	7542	70.871534364864	0.190778238371
0	7554	71.062312603235	0.260468022599
0	7565	71.322780625834	0.081491885091
0	7570	71.404272510925	0.034233325005
0	7575	71.43850583593	0.14350889603
0	7580	71.58201473196	0.041492714455
0	7585	71.623507446415	0.0218866384
0	7590	71.645394084815	0.02611739167
0	7595	71.671511476485	0.01533739406
0	7600	71.686848870545	0.045978788428
0	7606	71.732827658973	0.033666006869
0	7611	71.766493665842	0.060742429862
0	7616	71.827236095704	0.022569673335
0	7621	71.849805769039	0.049723644434
0	7626	71.899529413473	0.013795921763
0	7631	71.913325335236	0.115746747286
0	7637	72.029072082522	0.00911584128
0	7643	72.038187923802	0.032394174523
0	7648	72.070582098325	0.294075519737
0	7653	72.364657618062	0.005238199974
0	7655	72.369895818036	0.060878942968
0	7663	72.430774761004	0.015406238327
0	7668	72.446180999331	0.013128975784
0	7673	72.459309975115	0.131207103594
0	7678	72.590517078709	0.035622395535
0	7683	72.626139474244	0.026220468974
0	7689	72.652359943218	0.022629303538
0	7694	72.674989246756	0.006862124982
0	7696	72.681851371738	0.033573872672
0	7704	72.71542524441	0.113152997631
0	7710	72.828578242041	0.036305172902
0	7715	72.864883414943	0.043442418305
0	7720	72.908325833248	0.0763745911
0	7726	72.984700424348	0.025349923278
0	7731	73.010050347626	0.026340577978
0	7736	73.036390925604	0.003607155074
0	7738	73.039998080678	0.146136274901
0	7747	73.186134355579	0.020844597477
0	7752	73.206978953056	0.004965613483
0	7755	73.211944566539	0.04237456581
0	7763	73.254319132349	0.006319255654
0	7765	73.260638388003	0.091591620573
0	7774	73.352230008576	0.015981533986
0	7780	73.368211542562	0.118002011068
0	7786	73.48621355363	0.026910045172
0	7791	73.513123598802	0.096446684097
0	7797	73.609570282899	0.039359110833
0	7803	73.648929393732	0.032135829307
0	7809	73.681065223039	0.005652241711
0	7811	73.68671746475	0.041312046835
0	7819	73.728029511585	0.09867798062
0	7824	73.826707492205	0.00311747751
0	7826	73.829824969715	0.017615789552
0	7834	73.847440759267	0.01965156123
0	7839	73.867092320497	0.003030139564
0	7841	73.870122460061	0.023290021062
0	7849	73.893412481123	0.000475820998
0	7851	73.893888302121	0.067210862597
0	7859	73.961099164718	0.004635085218
0	7861	73.965734249936	0.02949267182
0	7869	73.995226921756	0.098613016446
0	7874	74.093839938202	0.031672544306
0	7879	74.125512482508	0.026708359473
0	7884	74.152220841981	0.034854083669
0	7889	74.18707492565	0.091759632539
0	7895	74.278834558189	0.012853177808
0	7900	74.291687735997	0.034413626879
0	7905	74.326101362876	0.067825142093
0	7911	74.393926504969	0.094773385676
0	7916	74.488699890645	0.019983597402
0	7921	74.508683488047	0.01139211348
0	7926	74.520075601527	0.135908739318
0	7932	74.655984340845	0.057068929315
0	7937	74.71305327016	0.01202735755
0	7942	74.72508062771	0.004158376537
0	7944	74.729239004247	0.031797658478
0	7952	74.761036662725	0.215383654866
0	7960	74.976420317591	0.013662588402
0	7966	74.990082905993	0.028336203409
0	7972	75.018419109402	0.030050969654
0	7977	75.048470079056	0.000460406237
0	7979	75.048930485293	0.012704989285
0	7985	75.061635474578	0.204279858251
0	7996	75.265915332829	0.016558232648
0	8001	75.282473565477	0.12673371662
0	8013	75.409207282097	0.010419737644
0	8018	75.419627019741	0.079463741014
0	8024	75.499090760755	0.040627004901
0	8029	75.539717765656	0.062354888841
0	8035	75.602072654497	0.022080181721
0	8040	75.624152836218	0.013977098712
0	8045	75.63812993493	0.002317107229
0	8047	75.640447042159	0.049038085696
0	8055	75.689485127855	0.278273133496
0	8060	75.967758261351	0.151175829826
0	8066	76.118934091177	0.015508751948
0	8071	76.134442843125	0.05523597355
0	8079	76.189678816675	0.011096462698
0	8084	76.200775279373	0.040132494006
0	8089	76.240907773379	0.013272625955
0	8095	76.254180399334	0.094730220215
0	8100	76.348910619549	0.011849804776
0	8105	76.360760424325	0.012351692639
0	8110	76.373112116964	0.058884932392
0	8117	76.431997049356	0.046602698228
0	8122	76.478599747584	0.064661252152
0	8128	76.543260999736	0.01132777213
0	8133	76.554588771866	0.008260075711
0	8138	76.562848847577	0.034196811547
0	8143	76.597045659124	0.036082714662
0	8149	76.633128373786	0.003481999955
0	8151	76.636610373741	0.002260821937
0	8153	76.638871195678	0.037899536092
0	8164	76.67677073177	0.034637370159
0	8170	76.711408101929	0.08678439326
0	8176	76.798192495189	0.031844570162
0	8181	76.830037065351	0.000666807876
0	8183	76.830703873227	0.026712965019
0	8191	76.857416838246	0.032203676645
0	8196	76.889620514891	0.135561892685
0	8201	77.025182407576	0.109028597328
0	8207	77.134211004904	0.006243755275
0	8209	77.140454760179	0.085643277438
0	8217	77.226098037617	0.004869022163
0	8219	77.23096705978	0.116939995506
0	8227	77.347907055286	0.033924771291
0	8232	77.381831826577	0.013760782239
0	8238	77.395592608816	0.088613172326
0	8243	77.484205781142	0.093827039146
0	8249	77.578032820288	0.016013783915
0	8255	77.594046604203	0.004931671948
0	8257	77.598978276151	0.022833095325
0	8265	77.621811371476	0.078834772678
0	8270	77.700646144154	0.040742034309
0	8275	77.741388178463	0.01502520632
0	8281	77.756413384783	0.016042041392
0	8286	77.772455426175	0.012746937844
0	8292	77.785202364019	0.175051679187
0	8299	77.960254043206	0.054734967846
0	8304	78.014989011052	0.032364206694
0	8309	78.047353217746	0.004868484804
0	8311	78.05222170255	0.24768312701
0	8321	78.29990482956	0.022784460502
0	8326	78.322689290062	0.004549279328
0	8328	78.32723856939	0.062403866347
0	8336	78.389642435737	0.052129793378
0	8341	78.441772229115	0.151094739402
0	8348	78.592866968517	0.107903387298
0	8354	78.700770355815	0.267426062358
0	8363	78.968196418173	0.106898982574
0	8368	79.075095400747	0.031004510238
0	8373	79.106099910985	0.022703590286
0	8378	79.128803501271	0.052089618574
0	8384	79.180893119845	0.035102113613
0	8390	79.215995233458	0.001648589279
0	8392	79.217643822737	0.085170704271
0	8400	79.302814527008	0.010232985235
0	8405	79.313047512243	0.011646615829
0	8411	79.324694128072	0.018219933287
0	8416	79.342914061359	0.024526927498
0	8422	79.367440988857	0.088412361221
0	8428	79.455853350078	0.015283906106
0	8433	79.471137256184	0.01550586636
0	8438	79.486643122544	0.035241217754
0	8443	79.521884340298	0.09843840003
0	8448	79.620322740328	0.005035128422
0	8450	79.62535786875	0.043241739675
0	8458	79.668599608425	0.017892696821
0	8463	79.686492305246	0.026384544151
0	8468	79.712876849397	0.080408463692
0	8474	79.793285313089	0.051016683794
0	8479	79.844301996883	0.028026763621
0	8484	79.872328760504	0.090574167122
0	8490	79.962902927626	0.056597578546
0	8495	80.019500506172	0.002552882968
0	8497	80.02205338914	0.061761881236
0	8505	80.083815270376	0.184715793275
0	8512	80.268531063651	0.103187777408
0	8518	80.371718841059	0.007241939268
0	8523	80.378960780327	0.021579506006
0	8529	80.400540286333	0.037941174481
0	8534	80.438481460814	0.019114584974
0	8540	80.457596045788	0.019401630901
0	8545	80.476997676689	0.009211103687
0	8550	80.486208780376	0.013841740468
0	8555	80.500050520844	0.031831615468
0	8560	80.531882136312	0.109403677846
0	8565	80.641285814158	0.028341385337
0	8570	80.669627199495	0.045710850557
0	8575	80.715338050052	0.01525232115
0	8582	80.730590371202	0.03426826559
0	8587	80.764858636792	0.030406215202
0	8593	80.795264851994	0.04976155478
0	8599	80.845026406774	0.015566656049
0	8604	80.860593062823	0.03909866253
0	8609	80.899691725353	0.060812315961
0	8615	80.960504041314	0.003712125439
0	8617	80.964216166753	0.006147592003
0	8622	80.970363758756	0.006400936272
0	8627	80.976764695028	0.161110162663
0	8636	81.137874857691	0.007256044496
0	8641	81.145130902187	0.014319076296
0	8646	81.159449978483	0.090865980589
0	8652	81.250315959072	0.021645163817
0	8657	81.271961122889	0.084782060529
0	8664	81.356743183418	0.041868034469
0	8669	81.398611217887	0.025952346412
0	8674	81.424563564299	0.081940985478
0	8680	81.506504549777	0.033839954195
0	8685	81.540344503972	0.011317852986
0	8690	81.551662356958	0.048563072596
0	8695	81.600225429554	0.034022754298
0	8700	81.634248183852	0.020168996593
0	8705	81.654417180445	0.047204240383
0	8710	81.701621420828	0.013991167726
0	8715	81.715612588554	0.003819447056
0	8717	81.71943203561	0.146842890499
0	8725	81.866274926109	0.035651213298
0	8730	81.901926139407	0.265159383001
0	8737	82.167085522408	0.03142217773
0	8742	82.198507700138	0.061402966761
0	8747	82.259910666899	0.049677585385
0	8752	82.309588252284	0.004856407587
0	8754	82.314444659871	0.108669596887
0	8763	82.423114256758	0.070592816929
0	8768	82.493707073687	0.058755991238
0	8773	82.552463064925	0.004147715137
0	8775	82.556610780062	0.186067585921
0	8788	82.742678365983	0.057346979183
0	8793	82.800025345166	0.074025047274
0	8798	82.87405039244	0.06178762297
0	8804	82.93583801541	0.024892375601
0	8809	82.960730391011	0.001406548431
0	8811	82.962136939442	0.025403769536
0	8819	82.987540708978	0.029285814513
0	8825	83.016826523491	0.030793219816
0	8830	83.047619743307	0.028644166491
0	8835	83.076263909798	0.012630092894
0	8840	83.088894002692	0.035538877458
0	8846	83.12443288015	0.010100551155
0	8851	83.134533431305	0.011009779406
0	8856	83.145543210711	0.055601619999
0	8861	83.20114483071	0.01526313718
0	8867	83.21640796789	0.025499173954
0	8873	83.241907141844	0.026950421539
0	8878	83.268857563383	0.056343491062
0	8885	83.325201054445	0.000264399522
0	8887	83.325465453967	0.001570134933
0	8889	83.3270355889	0.004033673271
0	8891	83.331069262171	0.043380897457
0	8905	83.374450159628	0.056597170521
0	8911	83.431047330149	0.023385047011
0	8916	83.45443237716	0.046280125012
0	8922	83.500712502172	0.013677267861
0	8927	83.514389770033	0.011638274933
0	8933	83.526028044966	0.015403554279
0	8938	83.541431599245	0.050816798289
0	8945	83.592248397534	0.029638130514
0	8950	83.621886528048	0.037388974386
0	8956	83.659275502434	0.010616981679
0	8961	83.669892484113	0.041016340434
0	8966	83.710908824547	0.026556005549
0	8971	83.737464830096	0.002029314345
0	8973	83.739494144441	0.122386506778
0	8981	83.861880651219	0.107452737817
0	8986	83.969333389036	0.000745731115
0	8988	83.970079120151	0.34080319531
0	8997	84.310882315461	0.005844344839
0	8999	84.3167266603	0.027979909372
0	9007	84.344706569672	0.104968791114
0	9012	84.449675360786	0.119062648351
0	9018	84.568738009137	0.014907471874
0	9023	84.583645481011	0.011651588899
0	9029	84.59529706991	0.048507746976
0	9035	84.643804816886	0.020723756665
0	9040	84.664528573551	0.220209004531
0	9047	84.884737578082	0.061134796728
0	9053	84.94587237481	0.117219674568
0	9060	85.063092049378	0.025291313149
0	9065	85.088383362527	0.022705421087
0	9070	85.111088783614	0.0003208167
0	9072	85.111409600314	0.020997445685
0	9080	85.132407045999	0.00396593845
0	9082	85.136372984449	0.103989764351
0	9090	85.2403627488	0.129603986363
0	9096	85.369966735163	0.038527173577
0	9101	85.40849390874	0.226987961255
0	9106	85.635481869995	0.04206145769
0	9111	85.677543327685	0.073961308734
0	9116	85.751504636419	0.013174425152
0	9121	85.764679061571	0.027235421029
0	9126	85.7919144826	0.009041725617
0	9131	85.800956208217	0.041642659795
0	9136	85.842598868012	0.072434755839
0	9141	85.915033623851	0.04121802284
0	9147	85.956251646691	0.07593910594
0	9152	86.032190752631	0.061768426075
0	9158	86.093959178706	0.101285661698
0	9164	86.195244840404	0.024564651965
0	9169	86.219809492369	0.024678006496
0	9174	86.244487498865	0.160248895557
0	9181	86.404736394422	0.031146110862
0	9186	86.435882505284	0.038711446627
0	9191	86.474593951911	0.148595916911
0	9198	86.623189868822	0.085484101027
0	9204	86.708673969849	0.010267802929
0	9209	86.718941772778	0.001482625382
0	9211	86.72042439816	0.009793632056
0	9216	86.730218030216	0.042387941836
0	9224	86.772605972052	0.005459554376
0	9226	86.778065526428	0.098131675857
0	9234	86.876197202285	0.003189659056
0	9236	86.879386861341	0.154038106515
0	9246	87.033424967856	0.02613556257
0	9251	87.059560530426	0.11668398486
0	9256	87.176244515286	0.172538327389
0	9263	87.348782842675	0.03001396143
0	9268	87.378796804105	0.022822685748
0	9273	87.401619489853	0.104720546172
0	9278	87.506340036025	0.029140310294
0	9284	87.535480346319	0.00718745879
0	9286	87.542667805109	0.059368898584
0	9295	87.602036703693	0.022129999572
0	9300	87.624166703265	0.037493863463
0	9306	87.661660566728	0.06070761028
0	9311	87.722368177008	0.128676059299
0	9318	87.851044236307	0.016789853666
0	9323	87.867834089973	0.012957101299
0	9328	87.880791191272	0.141994793286
0	9334	88.022785984558	0.0201489914
0	9339	88.042934975958	0.04052224883
0	9344	88.083457224788	0.028617305892
0	9349	88.11207453068	0.102261932825
0	9354	88.214336463505	0.030291302632
0	9359	88.244627766137	0.074051183783
0	9364	88.31867894992	0.109698102675
0	9369	88.428377052595	0.0139743788
0	9374	88.442351431395	0.074135825704
0	9379	88.516487257099	0.147184519927
0	9384	88.663671777026	0.060707507884
0	9389	88.72437928491	0.005127289583
0	9391	88.729506574493	0.011361761718
0	9399	88.740868336211	0.000633726123
0	9401	88.741502062334	0.00087148967
0	9403	88.742373552004	0.033794734771
0	9414	88.776168286775	0.025186230021
0	9420	88.801354516796	0.017465297593
0	9425	88.818819814389	0.016969562553
0	9431	88.835789376942	0.00340753915
0	9433	88.839196916092	0.015032382657
0	9441	88.854229298749	0.102592077887
0	9447	88.956821376636	0.000552291071
0	9449	88.957373667707	0.132694465715
0	9457	89.090068133422	0.008273152142
0	9462	89.098341285564	0.088162892236
0	9467	89.1865041778	0.063379142692
0	9473	89.249883320492	0.040524229076
0	9478	89.290407549568	0.111328828244
0	9483	89.401736377812	0.001701212146
0	9485	89.403437589958	0.105296260712
0	9494	89.50873385067	0.034329129615
0	9499	89.543062980285	0.019255279143
0	9504	89.562318259428	0.116828631389
0	9509	89.679146890817	0.020255651141
0	9514	89.699402541958	0.023178017177
0	9519	89.722580559135	0.215083466179
0	9527	89.937664025314	0.069576684414
0	9532	90.007240709728	0.112602264291
0	9537	90.119842974019	0.064361279291
0	9542	90.18420425331	0.009350753306
0	9547	90.193555006616	0.051132376449
0	9552	90.244687383065	0.012141326462
0	9557	90.256828709527	0.015656212447
0	9562	90.272484921974	0.041825461167
0	9568	90.314310383141	0.036615801297
0	9574	90.350926184438	0.000131131836
0	9576	90.351057316274	0.043828518158
0	9584	90.394885834432	0.020599272467
0	9589	90.415485106899	0.106204607362
0	9597	90.521689714261	0.030473083885
0	9603	90.552162798146	0.017870983464
0	9608	90.57003378161	0.084820370876
0	9613	90.654854152486	0.062202219349
0	9618	90.717056371835	0.000746662521
0	9620	90.717803034356	0.005804273887
0	9622	90.723607308243	0.078496115651
0	9634	90.802103423894	0.030221697481
0	9640	90.832325121375	0.028602684893
0	9645	90.860927806268	0.066707613023
0	9652	90.927635419291	0.051580969697
0	9657	90.979216388988	0.050355224753
0	9662	91.029571613741	0.038313029473
0	9667	91.067884643214	0.021498025544
0	9672	91.089382668758	0.022880337917
0	9677	91.112263006675	0.023038891248
0	9682	91.135301897923	0.00031456181
0	9684	91.135616459733	0.009303221715
0	9689	91.144919681448	0.052018907388
0	9697	91.196938588836	0.166963653458
0	9704	91.363902242294	0.126778706809
0	9709	91.490680949103	0.116269867345
0	9715	91.606950816448	0.127981045177
0	9722	91.734931861625	0.070176991482
0	9727	91.805108853107	0.030968292467
0	9732	91.836077145574	0.065591471655
0	9739	91.901668617229	0.065425427098
0	9744	91.967094044327	0.085843757548
0	9750	92.052937801875	0.053627643245
0	9756	92.10656544512	0.006217905699
0	9758	92.112783350819	0.035917835484
0	9766	92.148701186303	0.003917767068
0	9768	92.152618953371	0.00368868978
0	9773	92.156307643151	0.002478193495
0	9775	92.158785836646	0.116806597531
0	9788	92.275592434177	0.0844469095
0	9793	92.360039343677	0.060465830427
0	9798	92.420505174104	0.002396096612
0	9800	92.422901270716	0.073671274415
0	9808	92.496572545131	0.11128880746
0	9813	92.607861352591	0.008859069317
0	9818	92.616720421908	0.072595781763
0	9824	92.689316203671	0.01445814414
0	9829	92.703774347811	2.8223418e-05
0	9831	92.703802571229	0.02117115756
0	9840	92.724973728789	0.090625255316
0	9846	92.815598984105	0.018620848919
0	9851	92.834219833024	0.18136729086
0	9858	93.015587123884	0.000235373834
0	9860	93.015822497718	0.051931286847
0	9868	93.067753784565	0.045935276144
0	9874	93.113689060709	0.01694168539
0	9880	93.130630746099	0.085565131278
0	9887	93.216195877377	0.055977321241
0	9893	93.272173198618	0.004866614793
0	9895	93.277039813411	0.028667668971
0	9903	93.305707482382	0.156317838944
0	9911	93.462025321326	0.079516033226
0	9916	93.541541354552	0.025234192469
0	9921	93.566775547021	0.048194196946
0	9926	93.614969743967	0.042326057883
0	9932	93.65729580185	0.040878162303
0	9937	93.698173964153	0.044107629502
0	9942	93.742281593655	0.027789188424
0	9948	93.770070782079	0.078455494486
0	9953	93.848526276565	0.097979641089
0	9960	93.946505917654	0.108771113321
0	9966	94.055277030975	0.023225246084
0	9972	94.078502277059	0.00376282673
0	9974	94.082265103789	0.090984602308
0	9983	94.173249706097	0.088580431472
0	9991	94.261830137569	0.004316986499
0	9993	94.266147124068	0.025808296133
0	10001	94.291955420201	0.075881607217
0	10007	94.367837027418	0.16267331477
0	10012	94.530510342188	0.014825966193
0	10017	94.545336308381	0.026533612596
0	10022	94.571869920977	0.069475063091
0	10027	94.641344984068	0.063984347633
0	10032	94.705329331701	0.040830510354
0	10037	94.746159842055	0.01179219012
0	10042	94.757952032175	0.013637826002
0	10048	94.771589858177	0.029221376385
0	10053	94.800811234562	0.009394654655
0	10058	94.810205889217	0.044909788344
0	10064	94.855115677561	0.011234049842
0	10069	94.866349727403	0.012098188252
0	10074	94.878447915655	0.118832452025
0	10080	94.99728036768	0.061537756277
0	10087	95.058818123957	0.00533012717
0	10089	95.064148251127	0.065574134703
0	10098	95.12972238583	0.128526270712
0	10105	95.258248656542	0.01638961967
0	10112	95.274638276212	0.105574944389
0	10119	95.380213220601	0.064941749913
0	10124	95.445154970514	0.05342049767
0	10129	95.498575468184	0.040497409949
0	10134	95.539072878133	0.111606131604
0	10140	95.650679009737	0.057592555786
0	10146	95.708271565523	0.064882104713
0	10151	95.773153670236	0.039371189239
0	10156	95.812524859475	0.205730142912
0	10163	96.018255002387	0.00076485506
0	10165	96.019019857447	0.058043112778
0	10173	96.077062970225	0.111445110475
0	10179	96.1885080807	0.055865203133
0	10185	96.244373283833	0.090165952892
0	10190	96.334539236725	0.013023596037
0	10195	96.347562832762	0.014987190961
0	10200	96.362550023723	0.131573216237
0	10205	96.49412323996	0.012412590025
0	10210	96.506535829985	0.022160623159
0	10216	96.528696453144	0.006620037021
0	10218	96.535316490165	0.011374289605
0	10226	96.54669077977	0.077762079313
0	10232	96.624452859083	0.189855349184
0	10237	96.814308208267	0.096892582957
0	10243	96.911200791224	0.104173671435
0	10249	97.015374462659	0.090333957355
0	10255	97.105708420014	0.018421023269
0	10260	97.124129443283	0.047253470709
0	10265	97.171382913992	0.109660814122
0	10272	97.281043728114	0.022799932171
0	10277	97.303843660285	0.047771063326
0	10283	97.351614723611	0.196575685917
0	10292	97.548190409528	0.092742177616
0	10297	97.640932587144	0.056779335254
0	10302	97.697711922398	0.05231699478
0	10308	97.750028917178	0.030182885384
0	10313	97.780211802562	0.120948084429
0	10320	97.901159886991	0.051739825275
0	10325	97.952899712266	0.048807668448
0	10330	98.001707380714	0.087839353401
0	10336	98.089546734115	0.009025868836
0	10341	98.098572602951	0.053762805165
0	10346	98.152335408116	0.038249194046
0	10352	98.190584602162	0.098660316108
0	10358	98.28924491827	0.043870372506
0	10363	98.333115290776	0.0075645957
0	10368	98.340679886476	0.045741687051
0	10374	98.386421573527	0.013664076164
0	10379	98.400085649691	0.074965091874
0	10385	98.475050741565	0.000282433009
0	10387	98.475333174574	0.015849822898
0	10396	98.491182997472	0.20410744078
0	10402	98.695290438252	0.05343779609
0	10408	98.748728234342	0.045357503081
0	10414	98.794085737423	0.064614222257
0	10420	98.85869995968	0.014912555275
0	10425	98.873612514955	0.012489459457
0	10430	98.886101974412	0.007924320754
0	10435	98.894026295166	0.002201145562
0	10437	98.896227440728	0.082404598683
0	10447	98.978632039411	0.053197313424
0	10452	99.031829352835	0.042641893105
0	10457	99.07447124594	0.031561809674
0	10462	99.106033055614	0.000235159602
0	10464	99.106268215216	0.050730822716
0	10473	99.156999037932	0.008089851741
0	10478	99.165088889673	0.156479205476
0	10484	99.321568095149	0.102496287411
0	10489	99.42406438256	0.002322339036
0	10491	99.426386721596	0.04187888484
0	10499	99.468265606436	0.016665202429
0	10504	99.484930808865	0.024858084889
0	10509	99.509788893754	0.02216411978
0	10515	99.531953013534	0.177870076851
0	10521	99.709823090385	0.048081063458
0	10526	99.757904153843	0.061430592566
0	10531	99.819334746409	0.187675950015
0	10537	100.007010696424	0.085788252541
0	10542	100.092798948965	0.01848508996
0	10547	100.111284038925	0.052096874549
0	10553	100.163380913474	0.016905601511
0	10558	100.180286514985	0.047772401431
0	10564	100.228058916416	0.077097769941
0	10569	100.305156686357	0.000312824235
0	10571	100.305469510592	0.009332458115
0	10576	100.314801968707	0.066838659893
0	10584	100.3816406286	0.073706964955
0	10589	100.455347593555	0.081758076655
0	10594	100.53710567021	0.077949685006
0	10599	100.615055355216	0.080748476662
0	10606	100.695803831878	0.028885745931
0	10611	100.724689577809	0.024067733008
0	10616	100.748757310817	0.045088063997
0	10621	100.793845374814	0.091703562155
0	10627	100.885548936969	0.045567335431
0	10632	100.9311162724	0.1098846222
0	10637	101.0410008946	0.037777232654
0	10642	101.078778127254	0.028322172863
0	10648	101.107100300117	0.004154783695
0	10650	101.111255083812	0.020638455708
0	10658	101.13189353952	0.06561295407
0	10664	101.19750649359	0.024890878502
0	10669	101.222397372092	0.04901011187
0	10676	101.271407483962	0.065446682126
0	10681	101.336854166088	0.000308070995
0	10683	101.337162237083	0.01154671986
0	10688	101.348708956943	0.096215865729
0	10698	101.444924822672	0.028242557187
0	10703	101.473167379859	0.102830657345
0	10710	101.575998037204	0.205831399754
0	10718	101.781829436958	0.066625878832
0	10724	101.84845531579	0.005330863601
0	10726	101.853786179391	0.132560914011
0	10734	101.986347093402	0.035223722336
0	10739	102.021570815738	0.085062630248
0	10746	102.106633445986	0.002298794467
0	10748	102.108932240453	0.026284468882
0	10757	102.135216709335	0.035413528501
0	10763	102.170630237836	0.075988906592
0	10768	102.246619144428	0.003242504705
0	10770	102.249861649133	0.135687260519
0	10779	102.385548909652	0.002122700101
0	10781	102.387671609753	0.059716808303
0	10790	102.447388418056	0.03524226278
0	10795	102.482630680836	0.109090971028
0	10800	102.591721651864	0.112867714578
0	10806	102.704589366442	0.034234293444
0	10811	102.738823659886	0.067414461524
0	10816	102.80623812141	0.014769761929
0	10821	102.821007883339	0.091068797333
0	10826	102.912076680672	0.008448344952
0	10831	102.920525025624	0.001477534612
0	10833	102.922002560236	0.002446509353
0	10835	102.924449069589	0.025682668194
0	10846	102.950131737783	0.132458151813
0	10853	103.082589889596	0.083534687855
0	10858	103.166124577451	0.113235865854
0	10863	103.279360443305	0.012313104017
0	10869	103.291673547322	0.088510471623
0	10874	103.380184018945	0.011373480818
0	10879	103.391557499763	0.025891917493
0	10884	103.417449417256	0.062119045344
0	10889	103.4795684626	0.097049382113
0	10895	103.576617844713	0.087708428385
0	10900	103.664326273098	0.044949858289
0	10906	103.709276131387	0.008309969986
0	10911	103.717586101373	0.011348442671
0	10916	103.728934544044	0.111926349596
0	10923	103.84086089364	0.002315168855
0	10925	103.843176062495	0.037969998439
0	10934	103.881146060934	0.000984229917
0	10936	103.882130290851	0.083480887526
0	10944	103.965611178377	0.037843767988
0	10949	104.003454946365	0.039242520572
0	10954	104.042697466937	0.047533665359
0	10959	104.090231132296	0.074836089592
0	10965	104.165067221888	0.035059134181
0	10970	104.200126356069	0.010184690251
0	10975	104.21031104632	0.031026298688
0	10980	104.241337345008	0.008502647461
0	10985	104.249839992469	9.3593482e-05
0	10987	104.249933585951	0.112269780101
0	10996	104.362203366052	0.013190544385
0	11001	104.375393910437	0.005986525289
0	11003	104.381380435726	0.090415049302
0	11011	104.471795485028	0.024004417344
0	11016	104.495799902372	0.109375359477
0	11021	104.605175261849	0.034030884823
0	11026	104.639206146672	0.000580128664
0	11028	104.639786275336	0.029084230105
0	11036	104.668870505441	0.033604112704
0	11041	104.702474618145	0.193596453174
0	11047	104.896071071319	0.080806473954
0	11052	104.976877545273	0.037870629142
0	11057	105.014748174415	5.4491005e-05
0	11059	105.01480266542	0.138407239966
0	11070	105.153209905386	0.029862392534
0	11075	105.18307229792	0.009556712228
0	11080	105.192629010148	0.010859414148
0	11086	105.203488424296	0.045362265465
0	11091	105.248850689761	0.041283483111
0	11096	105.290134172872	0.091763655957
0	11104	105.381897828829	0.183799334008
0	11112	105.565697162837	0.006737545628
0	11114	105.572434708465	0.010996134376
0	11122	105.583430842841	0.023726703111
0	11127	105.607157545952	0.005174802646
0	11129	105.612332348598	0.064602505276
0	11137	105.676934853874	0.037260871938
0	11142	105.714195725812	0.005156092138
0	11144	105.71935181795	0.024747931843
0	11152	105.744099749793	0.025650218583
0	11157	105.769749968376	0.108357034769
0	11162	105.878107003145	0.023341433078
0	11167	105.901448436223	0.011578722583
0	11172	105.913027158806	0.083274032372
0	11179	105.996301191178	0.035974282897
0	11185	106.032275474075	0.031944978397
0	11192	106.064220452472	0.079409149847
0	11198	106.143629602319	0.135351896076
0	11205	106.278981498395	0.033002084624
0	11210	106.311983583019	0.039524354909
0	11215	106.351507937928	0.001969196429
0	11217	106.353477134357	0.008781150746
0	11222	106.362258285103	0.000491830444
0	11224	106.362750115547	0.026361877567
0	11235	106.389111993114	0.135400130361
0	11240	106.524512123475	0.07546483991
0	11245	106.599976963385	0.019641864573
0	11250	106.619618827958	0.009322381103
0	11255	106.628941209061	0.051213832249
0	11260	106.68015504131	0.03160642729
0	11266	106.7117614686	0.118405638271
0	11272	106.830167106871	0.002062466638
0	11274	106.832229573509	0.06135993262
0	11282	106.893589506129	0.123646940564
0	11289	107.017236446693	0.040252545622
0	11294	107.057488992315	0.002407071539
0	11296	107.059896063854	0.006393573728
0	11301	107.066289637582	0.059926457764
0	11309	107.126216095346	0.169341711127
0	11316	107.295557806473	0.036686238896
0	11321	107.332244045369	0.085125153312
0	11327	107.417369198681	0.100616476946
0	11332	107.517985675627	0.020794393162
0	11338	107.538780068789	0.007756000171
0	11340	107.54653606896	0.008591583972
0	11348	107.555127652932	0.024676329489
0	11355	107.579803982421	0.014130390839
0	11361	107.59393437326	0.043475782138
0	11367	107.637410155398	0.100408185603
0	11372	107.737818341001	0.050269310998
0	11377	107.788087651999	0.018056312678
0	11383	107.806143964677	0.013916729685
0	11388	107.820060694362	0.052506912722
0	11393	107.872567607084	0.160611994726
0	11401	108.03317960181	0.155923095235
0	11409	108.189102697045	0.023727878926
0	11414	108.212830575971	0.075816412401
0	11419	108.288646988372	0.079065385261
0	11424	108.367712373633	0.025998405266
0	11429	108.393710778899	0.0553315796
0	11434	108.449042358499	0.04077239585
0	11440	108.489814754349	0.030362699122
0	11446	108.520177453471	0.032365199313
0	11451	108.552542652784	0.026016101625
0	11456	108.578558754409	0.040094572866
0	11461	108.618653327275	0.039055616574
0	11466	108.657708943849	0.022851034985
0	11473	108.680559978834	0.028074874771
0	11479	108.708634853605	0.012597773203
0	11484	108.721232626808	0.00133427141
0	11486	108.722566898218	0.034295260388
0	11494	108.756862158606	0.035902075297
0	11500	108.792764233903	0.047453066868
0	11507	108.840217300771	0.13527304401
0	11513	108.975490344781	0.129448464123
0	11519	109.104938808904	0.032667622582
0	11525	109.137606431486	0.028945897672
0	11530	109.166552329158	0.005535410552
0	11532	109.17208773971	0.012199483131
0	11540	109.184287222841	0.010568329863
0	11545	109.194855552704	0.081881244365
0	11550	109.276736797069	0.013218620298
0	11555	109.289955417367	0.124539481243
0	11560	109.41449489861	0.037007741727
0	11566	109.451502640337	0.075087972055
0	11572	109.526590612392	0.094447681363
0	11579	109.621038293755	0.019840446943
0	11584	109.640878740698	0.006103835328
0	11586	109.646982576026	0.013514971492
0	11594	109.660497547518	0.085873601825
0	11599	109.746371149343	0.001824426468
0	11601	109.748195575811	0.050452866082
0	11610	109.798648441893	0.020678257256
0	11615	109.819326699149	0.058618960263
0	11621	109.877945659412	0.163599944098
0	11626	110.04154560351	0.003660899752
0	11628	110.045206503262	0.011265512474
0	11634	110.056472015736	0.05529061174
0	11643	110.111762627476	0.007683695956
0	11648	110.119446323432	0.024712367489
0	11653	110.144158690921	0.002159675577
0	11655	110.146318366498	0.054354258224
0	11663	110.200672624722	0.072397827546
0	11669	110.273070452268	0.001061240717
0	11671	110.274131692985	0.059415727315
0	11680	110.3335474203	0.02326760059
0	11685	110.35681502089	0.021440741378
0	11690	110.378255762268	0.010710866942
0	11696	110.38896662921	0.01919204155
0	11701	110.40815867076	0.074741745784
0	11707	110.482900416544	0.026793362084
0	11712	110.509693778628	0.171841101424
0	11719	110.681534880052	0.078509920567
0	11724	110.760044800619	0.198640809913
0	11731	110.958685610532	0.029161996256
0	11736	110.987847606788	0.049105265379
0	11741	111.036952872167	0.02760681303
0	11747	111.064559685197	0.010781388359
0	11752	111.075341073556	0.041638520622
0	11757	111.116979594178	0.045133445904
0	11763	111.162113040082	0.154463889531
0	11770	111.316576929613	0.007047343137
0	11772	111.32362427275	0.017781656934
0	11780	111.341405929684	0.06137811695
0	11785	111.402784046634	0.024850916877
0	11790	111.427634963511	0.165892817759
0	11797	111.59352778127	0.027499590293
0	11802	111.621027371563	0.020979321247
0	11807	111.64200669281	0.018636247978
0	11812	111.660642940788	0.029516831048
0	11817	111.690159771836	0.06167440778
0	11822	111.751834179616	0.033092011788
0	11827	111.784926191404	0.029678345303
0	11832	111.814604536707	0.029633049566
0	11838	111.844237586273	0.0040515707
0	11840	111.848289156973	0.081674928244
0	11849	111.929964085217	0.11743229462
0	11855	112.047396379837	0.064400639819
0	11863	112.111797019656	0.03648961026
0	11868	112.148286629916	0.021908193357
0	11873	112.170194823273	0.078423571515
0	11878	112.248618394788	0.03749537863
0	11885	112.286113773418	0.02328839965
0	11890	112.309402173068	0.085102626714
0	11895	112.394504799782	0.18548992443
0	11903	112.579994724212	0.042233921726
0	11909	112.622228645938	0.109380161333
0	11916	112.731608807271	0.074001121984
0	11921	112.805609929255	0.049047767171
0	11926	112.854657696426	0.010807407512
0	11931	112.865465103938	0.11948582968
0	11939	112.984950933618	0.009565973653
0	11944	112.994516907271	0.050711753089
0	11949	113.04522866036	0.032925936984
0	11954	113.078154597344	0.186081005588
0	11961	113.264235602932	0.112525967165
0	11966	113.376761570097	0.039833469325
0	11972	113.416595039422	0.044306689599
0	11977	113.460901729021	0.09524029316
0	11983	113.556142022181	0.005126145638
0	11985	113.561268167819	0.024562882995
0	11993	113.585831050814	0.020056460723
0	11998	113.605887511537	0.026284529438
0	12003	113.632172040975	0.183191492472
0	12009	113.815363533447	0.058010804638
0	12015	113.873374338085	0.015380677929
0	12020	113.888755016014	0.041306243289
0	12025	113.930061259303	0.114676786446
0	12030	114.044738045749	0.011024745092
0	12035	114.055762790841	0.064346586668
0	12041	114.120109377509	0.037390719945
0	12046	114.157500097454	0.000467008891
0	12048	114.157967106345	0.047933854158
0	12058	114.205900960503	0.003775836173
0	12060	114.209676796676	0.02673391382
[...]
19	31088	290.131044280474	2.7283153521682
19	31409	292.859359632642	0.35031295024583
19	31438	293.209672582888	0.83639914944548
19	31548	294.046071732333	0.10238465010087
19	31551	294.148456382434	1.8751403963478
19	31724	296.023596778782	0.50588955179606
19	31770	296.529486330578	0.049278234934466
19	31782	296.578764565512	0.17256050211159
19	31805	296.751325067624	0.35383881186505
19	31857	297.105163879489	0.98260691735712
19	31973	298.087770796846	1.104191182382
19	32108	299.191961979228	0.93500688763797
19	32197	300.126968866866	0.38513832353195
19	32229	300.512107190398	1.6194192997982
19	32330	302.131526490196	2.2248972101732
19	32525	304.356423700369	1.9665358689215
19	32740	306.32295956929	0.61448011605736
19	32803	306.937439685347	1.6100964752538
19	32971	308.547536160601	0.7172178888766
19	33039	309.264754049478	2.7774979453073
19	33347	312.042251994785	0.39051128046265
19	33399	312.432763275248	1.1957642341417
19	33516	313.62852750939	1.3276438409092
19	33651	314.956171350299	1.3747776654466
19	33779	316.330949015746	2.405537992004
19	34063	318.73648700775	0.12499113662632
19	34092	318.861478144376	1.1663203449993
19	34254	320.027798489375	0.91641000777692
19	34344	320.944208497152	0.27332842379494
19	34360	321.217536920947	3.2324274827259
19	34705	324.449964403673	4.6028970562823
19	35180	329.052861459955	0.92341388849085
19	35307	329.976275348446	3.5810816609834
19	35650	333.557357009429	4.4641355356081
19	36112	338.021492545037	1.9215228595655
19	36418	339.943015404602	2.0300481894181
19	36608	341.97306359402	3.0187948243511
19	36945	344.991858418371	0.59033563155747
19	36981	345.582194049928	8.3359762288787
19	37982	353.918170278807	0.17783145730761
19	38024	354.096001736115	3.7101759471639
19	38433	357.806177683279	3.5379960343444
19	38806	361.344173717623	3.0708201562556
19	39125	364.414993873879	0.67296011356237
19	39202	365.087953987441	0.94717090520977
19	39289	366.035124892651	1.5160425768809
19	39452	367.551167469532	4.1927515681467
19	39930	371.743919037679	1.1211292444482
19	40068	372.865048282127	0.6497886207815
19	40136	373.514836902908	3.9803946951565
19	40497	377.495231598065	0.14879762529232
19	40513	377.644029223357	1.1603265905648
19	40664	378.804355813922	2.4763124083307
19	40985	381.280668222253	2.9205272912103
19	41289	384.201195513463	4.3087228283219
19	41741	388.509918341785	4.0158072940994
19	42118	392.525725635884	0.44584916284424
19	42151	392.971574798728	2.2535347795869
19	42365	395.225109578315	0.015802390227624
19	42368	395.240911968543	0.75450895373135
19	42449	395.995420922274	0.8657341687412
19	42558	396.861155091015	4.4476947954246
20	1564	13.956346065473	0.27637247801246
20	1608	14.232718543485	4.9636083590176
20	2146	19.196326902503	1.3428251300409
20	2285	20.539152032544	0.69070504200723
20	2365	21.229857074551	3.1336247463266
20	2695	24.363481820878	1.7130393021031
20	2845	26.076521122981	0.46194725232888
20	2904	26.53846837531	0.45963533204096
20	2943	26.998103707351	0.049969794680785
20	2944	27.048073502032	6.1824801105856
20	3671	33.230553612618	3.0360230898276
20	3967	36.266576702446	0.24776831477848
20	4007	36.514345017224	1.4452169355924
20	4132	37.959561952816	2.5344292280097
20	4342	40.493991180826	0.40731400810796
20	4385	40.901305188934	5.0360559871021
20	4886	45.937361176036	1.3594682730113
20	5016	47.296829449047	0.25932606762964
20	5048	47.556155516677	3.3169029949973
20	5367	50.873058511674	1.0692930979939
20	5492	51.942351609668	0.083253601178641
20	5511	52.025605210847	1.4333423996887
20	5646	53.458947610536	0.95939370014112
20	5762	54.418341310677	7.5299391366636
20	6584	61.948280447341	0.15180001708541
20	6610	62.100080464426	0.63061932698152
20	6676	62.730699791408	11.89420493786
20	7931	74.624904729268	0.31297976972085
20	7959	74.937884498989	0.28068502555685
20	7994	75.218569524546	1.860721031953
20	8206	77.079290556499	3.6972781001112
20	8592	80.77656865661	0.68914937966714
20	8679	81.465718036277	0.89557077143917
20	8762	82.361288807716	0.35968945120539
20	8786	82.720978258921	0.48884771377202
20	8866	83.209825972693	3.1629576716743
20	9179	86.372783644367	1.153470286824
20	9283	87.526253931191	3.2990633649578
20	9639	90.825317296149	0.042639535940402
20	9647	90.867956832089	2.0090188689795
20	9856	92.876975701069	0.024998308369715
20	9857	92.901974009439	0.17459990672788
20	9873	93.076573916167	0.046884762327436
20	9879	93.123458678494	0.95111735272337
20	9971	94.074576031217	3.7922180521094
20	10318	97.866794083326	2.3278365333352
20	10563	100.194630616661	1.5761422320585
20	10717	101.77077284872	4.1487126918289
20	11175	105.919485540549	0.20178942953969
20	11197	106.121274970089	1.4474579253538
20	11354	107.568732895443	1.8569313348661
20	11565	109.425664230309	5.4092800815474
20	12137	114.834944311856	1.4886642660063
20	12286	116.323608577862	0.82928384541863
20	12378	117.152892423281	2.1364853351977
20	12662	119.289377758479	9.7366888315059
20	13702	129.026066589985	1.531580102632
20	13905	130.557646692617	0.0048751722149137
20	13911	130.562521864832	0.7650590463608
20	13985	131.327580911193	1.7192761955032
20	14178	133.046857106696	0.92955956855583
20	14264	133.976416675252	3.676683935566
20	14702	137.653100610818	2.1158347301862
20	14957	139.768935341004	0.34395198466172
20	14989	140.112887325666	11.430927637391
20	16296	151.543814963057	0.092201827166081
20	16312	151.636016790223	0.78166391533312
20	16388	152.417680705556	1.1415726440324
20	16509	153.559253349588	0.29687227024411
20	16519	153.856125619832	4.6585409807046
20	17012	158.514666600537	0.97433453468205
20	17143	159.489001135219	2.492320364394
20	17368	161.981321499613	0.28057385426433
20	17401	162.261895353877	0.61708164463151
20	17491	162.878976998509	0.24565270077732
20	17518	163.124629699286	2.8630987069637
20	17837	165.98772840625	1.4567380918489
20	17969	167.444466498099	0.10994279644958
20	17981	167.554409294549	2.5967440560305
20	18329	170.15115335058	9.274355515414
20	19339	179.425508865994	9.2335543760914
20	20192	188.659063242085	2.1745855933928
20	20485	190.833648835478	2.012509594965
20	20703	192.846158430443	3.9920785575051
20	21098	196.838236987948	7.0471024249954
20	21902	203.885339412943	3.3836400558501
20	22236	207.268979468793	4.0649970462565
20	22671	211.333976515049	1.256313270856
20	22799	212.590289785905	1.6547040719378
20	22933	214.244993857843	1.9617255648566
20	23130	216.2067194227	0.10556498990775
20	23147	216.312284412608	0.20546712127286
20	23171	216.517751533881	0.26329230004719
20	23203	216.781043833928	0.46764543130134
20	23252	217.248689265229	0.59130491801754
20	23310	217.839994183247	0.86289889894753
20	23370	218.702893082195	0.082570952322764
20	23378	218.785464034518	0.57405491604774
20	23449	219.359518950566	0.91594309610176
20	23577	220.275462046668	1.0547883626794
20	23703	221.330250409347	1.5679645999062
20	23909	222.898215009253	0.70593101034309
20	23968	223.604146019596	0.12627255855348
20	23974	223.730418578149	0.34243491087648
20	24025	224.072853489025	2.0313785560548
20	24224	226.10423204508	1.2722322156221
20	24382	227.376464260702	0.32085425624739
20	24410	227.697318516949	0.82785793087301
20	24507	228.525176447822	1.4209886715522
20	24620	229.946165119374	0.75563851400215
20	24714	230.701803633376	0.083765689544857
20	24720	230.785569322921	1.6656840152665
20	24926	232.451253338188	4.0907441577616
20	25349	236.54199749595	0.60965047860658
20	25418	237.151647974557	2.6608952321755
20	25721	239.812543206733	1.1452432550403
20	25826	240.957786461773	1.3113861128588
20	25945	242.269172574632	3.4624513210523
20	26415	245.731623895684	1.2710184895247
20	26586	247.002642385209	3.413736622505
20	26970	250.416379007714	3.9052524085945
20	27385	254.321631416309	0.29320373939185
20	27417	254.614835155701	0.68587005434321
20	27466	255.300705210044	0.89907622706903
20	27538	256.199781437113	0.14086854898767
20	27555	256.340649986101	2.6140677553567
20	27820	258.954717741458	4.999830418672
20	28320	263.95454816013	0.52818880348708
20	28363	264.482736963617	3.9450294219349
20	28743	268.427766385552	4.0432156165169
20	29214	272.470982002069	0.73542017579054
20	29253	273.20640217786	0.80437757000706
20	29365	274.010779747867	0.7283307976136
20	29467	274.739110545481	0.043939503222844
20	29478	274.783050048704	0.0010763238365304
20	29481	274.784126372541	0.54647373502553
20	29534	275.330600107567	2.6411223414843
20	29817	277.971722449051	1.835928715218
20	30002	279.807651164269	3.5445500463776
20	30418	283.352201210647	3.4240803630248
20	30730	286.776281573672	2.0669867047264
20	30951	288.843268278398	0.022690840339195
20	30959	288.865959118737	0.2165370215954
20	30979	289.082496140332	0.34898460192092
20	31023	289.431480742253	2.0770136426099
20	31238	291.508494384863	1.5099384905007
20	31421	293.018432875364	3.1723006004857
20	31735	296.19073347585	3.9238014544818
20	32195	300.114534930332	0.23427166568884
20	32213	300.348806596021	0.72583105529811
20	32261	301.074637651319	1.5181548238786
20	32348	302.592792475198	0.60985249582914
20	32414	303.202644971027	5.2140022704965
20	32965	308.416647241523	0.62519346824687
20	33023	309.04184070977	3.6362687036642
20	33402	312.678109413434	0.95824089576187
20	33520	313.636350309196	2.1841650958168
20	33746	315.820515405013	1.1767940841074
20	33851	316.99730948912	0.29766605944489
20	33901	317.294975548565	0.45180802713716
20	33955	317.746783575702	1.276342796079
20	34121	319.023126371781	0.2546451068542
20	34161	319.277771478635	0.75206257868084
20	34255	320.029834057316	0.59864606864263
20	34307	320.628480125959	0.93562631240842
20	34404	321.564106438367	3.2617589061285
20	34722	324.825865344496	0.79297291381069
20	34790	325.618838258307	0.44970458039837
20	34856	326.068542838705	4.7864066411391
20	35364	330.854949479844	2.5283069811055
20	35638	333.38325646095	0.91699890009822
20	35728	334.300255361048	7.4870517466799
20	36590	341.787307107728	0.35749251270971
20	36622	342.144799620438	0.83267199853152
20	36755	342.97747161897	1.0218661459285
20	36837	343.999337764899	0.11184248265556
20	36853	344.111180247555	2.1416812696697
20	37063	346.252861517225	1.1455082904399
20	37190	347.398369807665	2.0343368707159
20	37387	349.432706678381	1.6886773622548
20	37627	351.121384040636	0.63832688050911
20	37701	351.759710921145	0.21015905265462
20	37719	351.9698699738	2.3200286223887
20	38059	354.289898596189	2.5370899771622
20	38336	356.826988573351	2.8292088575395
20	38639	359.65619743089	5.4415408681005
20	39203	365.09773829899	1.3964532711816
20	39338	366.494191570172	1.7217987617158
20	39545	368.215990331888	0.54598372354047
20	39614	368.761974055428	1.3106952939606
20	39752	370.072669349389	1.5109604629504
20	39910	371.583629812339	2.105736820841
20	40142	373.68936663318	0.8106981939156
20	40203	374.500064827096	1.8532889726611
20	40399	376.353353799757	1.0328913575298
20	40491	377.386245157287	4.0894761435776
20	40996	381.475721300865	0.33793886029281
20	41041	381.813660161158	2.9987135855212
20	41352	384.812373746679	0.85916408822167
20	41455	385.671537834901	3.6302752186969
20	41851	389.301813053598	0.19508347769446
20	41863	389.496896531292	0.089313279112352
20	41874	389.586209810404	5.1298884825081
20	42318	394.716098292912	1.1308833951544
20	42423	395.846981688066	1.0327972085651
20	42559	396.879778896631	4.3441458972302
21	1864	16.011855018115	5.2746298241224
21	2379	21.286484842237	0.76944373636946
21	2496	22.055928578606	0.15475414348014
21	2517	22.210682722086	0.72941476395424
21	2570	22.94009748604	1.1439811691475
21	2667	24.084078655187	2.0626188593846
21	2847	26.146697514572	4.1785359571232
21	3306	30.325233471695	0.7973385636349
21	3386	31.12257203533	6.5584538623329
21	4096	37.681025897663	0.32232915731039
21	4133	38.003355054973	0.25487717729156
21	4166	38.258232232265	1.0535208912502
21	4258	39.311753123515	4.8316829795861
21	4706	44.143436103101	0.32735998219064
21	4729	44.470796085292	1.4382167755402
21	4879	45.909012860832	9.3751245028313
21	5860	55.284137363663	2.6799897603799
21	6123	57.964127124043	0.72046858441997
21	6186	58.684595708463	0.20100101114763
21	6198	58.885596719611	2.3945464904669
21	6508	61.280143210078	2.9663654268934
21	6845	64.246508636971	3.2126423285568
21	7158	67.459150965528	0.96994346874812
21	7258	68.429094434276	0.56266077225555
21	7293	68.991755206532	2.971363852952
21	7636	71.963119059484	5.7828749891745
21	8277	77.745994048658	0.75733974394662
21	8347	78.503333792605	1.5808432885014
21	8507	80.084177081106	0.3565692336392
21	8536	80.440746314745	2.8362459868382
21	8883	83.276992301583	0.033171551009447
21	8884	83.310163852592	0.082584099322451
21	8910	83.392747951914	0.25507494994129
21	8955	83.647822901855	2.9054924212124
21	9197	86.553315323067	3.2640580337183
21	9525	89.817373356785	0.70874118329595
21	9599	90.526114540081	2.8411021742097
21	9908	93.367216714291	0.2816432899488
21	9931	93.64886000424	0.60912090725547
21	9990	94.257980911495	0.75483929053389
21	10085	95.012820202029	0.033020746130005
21	10086	95.045840948159	3.6311366525439
21	10401	98.676977600703	7.3630505520442
21	11190	106.040028152747	2.0200332479899
21	11406	108.060061400737	2.6097017998399
21	11718	110.669763200577	1.4206938955412
21	11861	112.090457096118	1.5646424662648
21	12008	113.655099562383	0.98421778797849
21	12111	114.639317350361	4.9161535238404
21	12692	119.555470874201	3.7845350097645
21	13045	123.340005883965	0.096534477922888
21	13071	123.436540361888	0.32285300514658
21	13123	123.759393367035	1.0410670964268
21	13235	124.800460463462	1.3724882740555
21	13355	126.172948737518	0.24064923235033
21	13372	126.413597969868	2.2262128934855
21	13646	128.639810863353	0.44493175874904
21	13708	129.084742622102	1.4398520292891
21	13897	130.524594651391	0.26348683631565
21	13950	130.788081487707	3.224194633926
21	14268	134.012276121633	0.33228264502552
21	14285	134.344558766659	1.0621226723657
21	14429	135.406681439025	2.8332729075136
21	14782	138.239954346539	0.34562931356889
21	14815	138.585583660108	3.2970324890235
21	15250	141.882616149132	2.3027208595663
21	15490	144.185337008698	0.78841110228767
21	15603	144.973748110986	2.0519477063719
21	15825	147.025695817358	5.7658009580766
21	16442	152.791496775435	0.29652535405602
21	16477	153.088022129491	2.1867565464807
21	16650	155.274778675972	0.9746020626531
21	16744	156.249380738625	1.6282910278287
21	16949	157.877671766454	0.35152486404847
21	16981	158.229196630502	1.3672618873607
21	17151	159.596458517863	0.19562046168268
21	17191	159.792078979546	0.34226520922094
21	17207	160.134344188767	0.73760717034044
21	17252	160.871951359107	1.2159091770313
21	17379	162.087860536138	0.39134965054504
21	17427	162.479210186683	0.45710279882252
21	17492	162.936312985506	0.62647852765472
21	17577	163.562791513161	0.57916339546426
21	17651	164.141954908625	3.2213691556943
21	17967	167.363324064319	4.6379806591176
21	18551	172.001304723437	0.39877007971807
21	18609	172.400074803155	1.3314474553764
21	18757	173.731522258531	0.45843605256205
21	18784	174.189958311093	5.4999818492906
21	19353	179.689940160384	0.50079219126889
21	19378	180.190732351653	0.14870176712206
21	19389	180.339434118775	1.7619187261007
21	19562	182.101352844876	1.1281602997887
21	19701	183.229513144665	6.5769438489913
21	20330	189.806456993656	1.8152726185423
21	20567	191.621729612198	1.4120530772191
21	20729	193.033782689417	3.6837819244495
21	21085	196.717564613866	1.595522966057
21	21282	198.313087579923	0.11486478474241
21	21293	198.427952364665	1.3953874518237
21	21443	199.823339816489	0.35920901319712
21	21486	200.182548829686	5.0159386940014
21	22028	205.198487523687	1.8401233044238
21	22204	207.038610828111	0.45279193232607
21	22252	207.491402760437	2.739449917621
21	22529	210.230852678058	3.0433035573158
21	22858	213.274156235374	0.83705899271442
21	22927	214.111215228088	1.5751977625183
21	23076	215.686412990606	4.7873513543317
21	23600	220.473764344938	0.25888276511601
21	23617	220.732647110054	1.5336169572736
21	23835	222.266264067328	1.7225156078844
21	24019	223.988779675212	2.6525491121351
21	24292	226.641328787347	0.059143620882996
21	24293	226.70047240823	2.271402395359
21	24548	228.971874803589	2.3423821091402
21	24803	231.314256912729	0.46815403084806
21	24875	231.782410943577	0.21769087022437
21	24900	232.000101813801	1.3311119410434
21	25019	233.331213754844	0.29257941591388
21	25047	233.623793170758	1.590706123171
21	25199	235.214499293929	0.5253610384601
21	25240	235.739860332389	8.5885316800764
21	26239	244.328392012465	2.0126967378889
21	26468	246.341088750354	4.1168057652898
21	26974	250.457894515644	0.31153272706721
21	26994	250.769427242711	1.1137342270583
21	27114	251.883161469769	2.3502767119215
21	27374	254.233438181691	0.3338516583496
21	27406	254.567289840041	1.9943687261002
21	27582	256.561658566141	1.9552049211793
21	27769	258.51686348732	1.008313673607
21	27858	259.525177160927	1.866899380858
21	28047	261.392076541785	3.5715149799649
21	28428	264.96359152175	0.48773468453041
21	28454	265.45132620628	0.48808344586332
21	28495	265.939409652143	2.3457555097118
21	28731	268.285165161855	2.8413126592847
21	29058	271.12647782114	0.53295886955545
21	29148	271.659436690695	2.6342118943097
21	29415	274.293648585005	6.4101183748726
21	30109	280.703766959878	2.43270266499
21	30379	283.136469624868	0.33870057201068
21	30427	283.475170196879	0.75428724739935
21	30484	284.229457444278	0.4279578068689
21	30533	284.657415251147	1.0897762946078
21	30626	285.747191545755	2.660898964742
21	30897	288.408090510497	0.88922203306569
21	31017	289.297312543563	2.7591022126248
21	31315	292.056414756188	0.3071762802459
21	31348	292.363591036434	0.44930994309477
21	31408	292.812900979529	3.7780904298093
21	31783	296.590991409338	6.1295961918746
21	32349	302.720587601213	0.52808858253307
21	32420	303.248676183746	3.6453807853832
21	32793	306.894056969129	1.3256072508791
21	32933	308.219664220008	3.2086488361036
21	33272	311.428313056112	7.4336087331544
21	34093	318.861921789266	1.7765880970776
21	34308	320.638509886344	2.1103053135706
21	34567	322.748815199915	1.1824218403708
21	34670	323.931237040286	0.047262889689749
21	34671	323.978499929976	1.3668749998014
21	34767	325.345374929777	0.24056660716242
21	34789	325.585941536939	0.23498369323688
21	34833	325.820925230176	3.6177006620075
21	35225	329.438625892184	1.8437086603742
21	35408	331.282334552558	0.19923902060422
21	35429	331.481573573162	0.16819747798862
21	35462	331.649771051151	2.1137956747069
21	35672	333.763566725858	0.15715055294046
21	35690	333.920717278798	1.2921717010579
21	35807	335.212888979856	0.49165319883915
21	35841	335.704542178695	2.7576039582312
21	36181	338.462146136926	1.5779727110136
21	36436	340.04011884794	0.69185579203833
21	36487	340.731974639978	2.949234540128
21	36806	343.681209180106	4.4559370316217
21	37264	348.137146211728	1.615826059527
21	37424	349.752972271255	1.7338861844916
21	37684	351.486858455747	0.71740353547819
21	37745	352.204261991225	0.6016835379052
21	37843	352.80594552913	0.80348734562051
21	37939	353.609432874751	1.0441748358089
21	38087	354.65360771056	2.1168196736912
21	38330	356.770427384251	2.6492063075207
21	38602	359.419633691772	1.931318161316
21	38807	361.350951853088	4.5741439912068
21	39273	365.925095844295	1.904139259294
21	39492	367.829235103589	2.1110153478115
21	39750	369.9402504514	2.0790404229183
21	39953	372.019290874318	0.047560937896439
21	39956	372.066851812214	1.6382345330488
21	40148	373.705086345263	1.5752840272474
21	40263	375.28037037251	2.3256239208537
21	40507	377.605994293364	0.3540585388478
21	40546	377.960052832212	5.2354076973293
21	41153	383.195460529541	4.2454777667612
21	41655	387.440938296302	0.16191351175452
21	41671	387.602851808057	1.0594523587964
21	41770	388.662304166853	1.4085237110062
21	41898	390.070827877859	1.2484530094012
21	42005	391.31928088726	0.4216776682129
21	42044	391.740958555473	2.6432536811375
21	42286	394.38421223661	0.43005369678026
21	42330	394.81426593339	1.2976855996705
21	42475	396.111951533061	0.70460260770664
21	42556	396.816554140768	1.7174285648076
21	42742	398.533982705576	10.580237144055

