file 9562836 1614185306                                         
version 2
run Nonmonitoring-exponential-40-20210224-17:48:25-26574
attr configname Nonmonitoring-exponential
attr datetime 20210224-17:48:25
attr experiment Nonmonitoring-exponential
attr inifile aerocom.ini
attr iterationvars $0=9
attr iterationvarsf 9-
attr measurement $0=9
attr network Aerocom
attr processid 26574
attr repetition 40
attr replication #40
attr resultdir results
attr runnumber 40
attr seedset 40
param **.t 2s
param **.k 9ms
param **.X 0.05s
param **.m 1s
param **.tDistribution "\"exponential\""
param **.operationMode 1
param **.s "70 byte"
param **.dimPoolMax 10000
param **.dimPoolMin 8000
param **.nDL 16
param **.nA 1
param **.DLMaxCapacity 0
param **.trasmitting false

vector 0 Aerocom.aircraft[0].linkSelector responseTime:vector ETV
attr "" ""
attr source computeResponseTime
vector 1 Aerocom.aircraft[0].packetGenerator arrivalTime:vector ETV
attr "" ""
attr source computeArrivalTime
vector 2 Aerocom.aircraft[0].linkSelector waitingTime:vector ETV
attr "" ""
attr source computeWaitingTime
vector 3 Aerocom.aircraft[0].linkSelector queueLength:vector ETV
attr "" ""
attr source computeQueueLength
vector 4 Aerocom.aircraft[0].dataLink[6] actualCapacity:vector ETV
attr "" ""
attr source computeActualCapacity
vector 5 Aerocom.aircraft[0].linkSelector serviceTime:vector ETV
attr "" ""
attr source computeServiceTime
vector 6 Aerocom.aircraft[0].dataLink[14] tDistribution:vector ETV
attr "" ""
attr source computeTDistribution
vector 7 Aerocom.aircraft[0].dataLink[5] tDistribution:vector ETV
attr "" ""
attr source computeTDistribution
vector 8 Aerocom.aircraft[0].dataLink[12] tDistribution:vector ETV
attr "" ""
attr source computeTDistribution
vector 9 Aerocom.aircraft[0].dataLink[10] tDistribution:vector ETV
attr "" ""
attr source computeTDistribution
vector 10 Aerocom.aircraft[0].dataLink[3] tDistribution:vector ETV
attr "" ""
attr source computeTDistribution
vector 11 Aerocom.aircraft[0].dataLink[11] tDistribution:vector ETV
attr "" ""
attr source computeTDistribution
vector 12 Aerocom.aircraft[0].dataLink[1] tDistribution:vector ETV
attr "" ""
attr source computeTDistribution
vector 13 Aerocom.aircraft[0].dataLink[8] tDistribution:vector ETV
attr "" ""
attr source computeTDistribution
vector 14 Aerocom.aircraft[0].dataLink[13] tDistribution:vector ETV
attr "" ""
attr source computeTDistribution
vector 15 Aerocom.aircraft[0].dataLink[4] tDistribution:vector ETV
attr "" ""
attr source computeTDistribution
vector 16 Aerocom.aircraft[0].dataLink[0] tDistribution:vector ETV
attr "" ""
attr source computeTDistribution
vector 17 Aerocom.aircraft[0].dataLink[6] tDistribution:vector ETV
attr "" ""
attr source computeTDistribution
vector 18 Aerocom.aircraft[0].dataLink[15] tDistribution:vector ETV
attr "" ""
attr source computeTDistribution
vector 19 Aerocom.aircraft[0].dataLink[9] tDistribution:vector ETV
attr "" ""
attr source computeTDistribution
vector 20 Aerocom.aircraft[0].dataLink[2] tDistribution:vector ETV
attr "" ""
attr source computeTDistribution
vector 21 Aerocom.aircraft[0].dataLink[7] tDistribution:vector ETV
attr "" ""
attr source computeTDistribution
1	3127 1306198 5295 171511 10.011484713667 306.205709897334 32768 1.65492e-07 0.082172101105 296.19500807743 5.3297295575942
0	1309325 1306715 5292 171533 10.004746490998 306.22632880376 32768 0.007006305675 0.270644851634 1174.4176365369 79.683639604234
2	2616040 1248761 5296 171533 10.011484713667 306.22632880376 32768 0 0.261914494937 918.14160800746 63.005073157893
3	3864801 886746 5296 171533 10.011484713667 306.22632880376 32768 0 30 101048 850710
4	4751547 982657 5296 171533 10.011484713667 306.22632880376 32768 8000 9991 293981016 2643949369930
5	5734204 1437140 5296 171533 10.011484713667 306.22632880376 32768 0.0070063056751076 0.00875 256.29706660522 2.0095601168299
0	7171344 411372 171538 222676 306.23434345913 399.998480785298 10089 0.007004202522 0.345639082577 366.52334374541 31.816704920042
1	7582716 411265 171513 222671 306.206492791097 399.987466321102 10088 3.33547e-07 0.097236045296 93.795500341428 1.7458569819534
2	7993981 392817 171538 222673 306.23434345913 399.990918123241 10088 0 0.33743563713 286.67716898072 26.568315976326
3	8386798 281853 171538 222673 306.23434345913 399.990918123241 10088 0 41 31326 368172
4	8668651 311563 171538 222673 306.23434345913 399.990918123241 10088 8030 9994 89466908 795403168892
5	8980214 451378 171538 222673 306.23434345913 399.990918123241 10088 0.0070042025215129 0.0087173100871731 79.817541202916 0.63303456373914
6	9431592 8531 5297 219195 10.011938856429 393.608949456136 205 0.0054145980244246 10.20432764257 390.43139704693 1540.4351946994
7	9440123 8400 5330 222249 10.080049702041 399.239646057615 202 0.025312051001123 13.620948674559 392.00381601851 1426.4577175994
8	9448523 8086 5433 221761 10.247702584939 398.439151146399 195 0.021110496282625 10.658234222659 392.63403607341 1582.989133009
9	9456609 8181 5526 221123 10.380345201749 397.237215640871 197 0.0023691091193444 11.911861373506 391.3287245169 1601.3815735026
10	9464790 7712 5542 222479 10.404166944242 399.599988032157 182 0.02135587170734 10.204499261808 392.83223913275 1547.3903404319
11	9472502 8397 5604 219429 10.494636270919 394.066048924878 197 0.0097127160175035 12.730779877885 391.97714148026 1636.3480381458
12	9480899 8033 5653 220063 10.565802178999 395.236590470666 189 0.0066234626278573 10.553513833571 389.88161321646 1582.2441611968
13	9488932 8667 5696 222576 10.644168593617 399.795633792454 204 0.020402211080435 10.807334430202 391.71483139116 1363.38997521
14	9497599 7965 6437 222103 11.929423955906 399.000876249086 187 0.0018641996084759 11.545635482489 389.63084489204 1616.4610552737
15	9505564 7965 6474 221569 11.988459792906 398.097956056232 188 0.05045678548087 11.385227445296 388.22089514416 1473.2487802687
16	9513529 8690 6536 222577 12.103229980886 399.800191872206 204 0.0050786340340391 11.029682321304 389.70463311763 1449.5970192968
17	9522219 8614 6792 222270 12.554197797752 399.268551910276 202 0.001321152258398 9.8806945204157 388.41231521574 1545.6171238968
18	9530833 7912 7135 222665 13.106682162581 399.969093621814 186 0.018107995679761 10.917803679104 387.36438258173 1437.8679893401
19	9538745 8968 7809 220326 14.433802386278 395.740455194358 211 0.0064378288122841 10.455008593847 386.06222324355 1300.6009854955
20	9547713 8838 8591 222423 15.815994623195 399.500429062847 207 0.0031942659796743 9.1082673645721 388.63330479391 1460.169396194
21	9556551 6284 9004 221203 16.67211362572 397.364661634776 148 0.055869786766911 12.802778185656 384.49965003492 1976.1241823776

