version 2
run Nonmonitoring-exponential-564-20210224-17:49:33-27085
attr configname Nonmonitoring-exponential
attr datetime 20210224-17:49:33
attr experiment Nonmonitoring-exponential
attr inifile aerocom.ini
attr iterationvars $0=50
attr iterationvarsf 50-
attr measurement $0=50
attr network Aerocom
attr processid 27085
attr repetition 64
attr replication #64
attr resultdir results
attr runnumber 564
attr seedset 64
param **.t 2s
param **.k 50ms
param **.X 0.05s
param **.m 1s
param **.tDistribution "\"exponential\""
param **.operationMode 1
param **.s "70 byte"
param **.dimPoolMax 10000
param **.dimPoolMin 8000
param **.nDL 16
param **.nA 1
param **.DLMaxCapacity 0
param **.trasmitting false

vector 0 Aerocom.aircraft[0].packetGenerator arrivalTime:vector ETV
attr "" ""
attr source computeArrivalTime
vector 1 Aerocom.aircraft[0].linkSelector waitingTime:vector ETV
attr "" ""
attr source computeWaitingTime
vector 2 Aerocom.aircraft[0].linkSelector queueLength:vector ETV
attr "" ""
attr source computeQueueLength
vector 3 Aerocom.aircraft[0].dataLink[4] actualCapacity:vector ETV
attr "" ""
attr source computeActualCapacity
vector 4 Aerocom.aircraft[0].linkSelector serviceTime:vector ETV
attr "" ""
attr source computeServiceTime
vector 5 Aerocom.aircraft[0].linkSelector responseTime:vector ETV
attr "" ""
attr source computeResponseTime
vector 6 Aerocom.aircraft[0].dataLink[6] tDistribution:vector ETV
attr "" ""
attr source computeTDistribution
vector 7 Aerocom.aircraft[0].dataLink[2] tDistribution:vector ETV
attr "" ""
attr source computeTDistribution
vector 8 Aerocom.aircraft[0].dataLink[1] tDistribution:vector ETV
attr "" ""
attr source computeTDistribution
vector 9 Aerocom.aircraft[0].dataLink[14] tDistribution:vector ETV
attr "" ""
attr source computeTDistribution
vector 10 Aerocom.aircraft[0].dataLink[0] tDistribution:vector ETV
attr "" ""
attr source computeTDistribution
vector 11 Aerocom.aircraft[0].dataLink[9] tDistribution:vector ETV
attr "" ""
attr source computeTDistribution
vector 12 Aerocom.aircraft[0].dataLink[11] tDistribution:vector ETV
attr "" ""
attr source computeTDistribution
vector 13 Aerocom.aircraft[0].dataLink[8] tDistribution:vector ETV
attr "" ""
attr source computeTDistribution
vector 14 Aerocom.aircraft[0].dataLink[7] tDistribution:vector ETV
attr "" ""
attr source computeTDistribution
vector 15 Aerocom.aircraft[0].dataLink[15] tDistribution:vector ETV
attr "" ""
attr source computeTDistribution
vector 16 Aerocom.aircraft[0].dataLink[3] tDistribution:vector ETV
attr "" ""
attr source computeTDistribution
vector 17 Aerocom.aircraft[0].dataLink[10] tDistribution:vector ETV
attr "" ""
attr source computeTDistribution
vector 18 Aerocom.aircraft[0].dataLink[5] tDistribution:vector ETV
attr "" ""
attr source computeTDistribution
vector 19 Aerocom.aircraft[0].dataLink[4] tDistribution:vector ETV
attr "" ""
attr source computeTDistribution
vector 20 Aerocom.aircraft[0].dataLink[12] tDistribution:vector ETV
attr "" ""
attr source computeTDistribution
vector 21 Aerocom.aircraft[0].dataLink[13] tDistribution:vector ETV
attr "" ""
attr source computeTDistribution
0	988	10.061754344541	0.001922728213
0	990	10.063677072754	0.027935151249
0	998	10.091612224003	0.003159412265
0	1000	10.094771636268	0.041829791254
0	1008	10.136601427522	0.05459667081
0	1013	10.191198098332	0.002202932569
0	1015	10.193401030901	0.142568748971
0	1023	10.335969779872	0.002832414199
0	1025	10.338802194071	0.015163626765
0	1033	10.353965820836	0.047242109982
0	1038	10.401207930818	0.001037347083
0	1040	10.402245277901	0.066632222515
0	1048	10.468877500416	0.053847612854
0	1055	10.52272511327	0.005773914196
0	1057	10.528499027466	0.00256425526
0	1062	10.531063282726	0.114580217672
0	1070	10.645643500398	0.051697777848
0	1075	10.697341278246	0.003900914312
0	1077	10.701242192558	0.033189370623
0	1085	10.734431563181	0.082158261837
0	1090	10.816589825018	0.02729822066
0	1095	10.843888045678	0.152856473394
0	1102	10.996744519072	0.03997856149
0	1109	11.036723080562	0.111040493205
0	1116	11.147763573767	0.012162345512
0	1121	11.159925919279	0.218437964845
0	1128	11.378363884124	0.048616323915
0	1134	11.426980208039	0.042521502697
0	1140	11.469501710736	0.058065515563
0	1145	11.527567226299	0.01785300404
0	1150	11.545420230339	0.025449284819
0	1155	11.570869515158	0.032746670754
0	1160	11.603616185912	0.06200493489
0	1167	11.665621120802	0.08755445728
0	1173	11.753175578082	0.003941689748
0	1175	11.75711726783	0.265938040468
0	1186	12.023055308298	0.065955494268
0	1191	12.089010802566	0.19356535564
0	1196	12.282576158206	0.003529408111
0	1198	12.286105566317	0.014120299389
0	1206	12.300225865706	0.045261972909
0	1211	12.345487838615	0.006232484835
0	1213	12.35172032345	0.124123246179
0	1221	12.475843569629	0.037311541108
0	1226	12.513155110737	0.089035306793
0	1231	12.60219041753	0.001863468143
0	1233	12.604053885673	0.025610943565
0	1243	12.629664829238	0.015327690319
0	1248	12.644992519557	0.002678862909
0	1250	12.647671382466	0.01105749492
0	1255	12.658728877386	0.18461595906
0	1266	12.843344836446	0.100793548163
0	1274	12.944138384609	0.078623710474
0	1280	13.022762095083	0.107770589716
0	1285	13.130532684799	0.046410738025
0	1291	13.176943422824	0.003222705816
0	1293	13.18016612864	0.021350350367
0	1301	13.201516479007	0.02693460313
0	1307	13.228451082137	0.067966978247
0	1312	13.296418060384	0.020758678602
0	1317	13.317176738986	0.027613886994
0	1322	13.34479062598	0.072069954982
0	1327	13.416860580962	0.139034386182
0	1334	13.555894967144	0.06013800253
0	1339	13.616032969674	0.044781575314
0	1345	13.660814544988	0.173991888636
0	1351	13.834806433624	0.072338421923
0	1357	13.907144855547	0.046391237707
0	1363	13.953536093254	0.104258509398
0	1369	14.057794602652	0.025265212099
0	1374	14.083059814751	0.150083355938
0	1383	14.233143170689	0.010399346571
0	1388	14.24354251726	0.064345233719
0	1393	14.307887750979	0.078587305494
0	1400	14.386475056473	0.007983996231
0	1402	14.394459052704	0.108457134942
0	1410	14.502916187646	0.088229885454
0	1415	14.5911460731	0.003815417397
0	1417	14.594961490497	0.01697943766
0	1425	14.611940928157	0.131955812504
0	1431	14.743896740661	0.320623248975
0	1440	15.064519989636	0.174861716569
0	1445	15.239381706205	0.115317142251
0	1450	15.354698848456	0.068740123527
0	1456	15.423438971983	0.019770227062
0	1461	15.443209199045	0.039177384561
0	1467	15.482386583606	0.023357819736
0	1472	15.505744403342	0.030950395543
0	1477	15.536694798885	0.009056597939
0	1482	15.545751396824	0.021805153832
0	1488	15.567556550656	0.029280131384
0	1493	15.59683668204	0.003172673253
0	1496	15.600009355293	0.00240579647
0	1498	15.602415151763	0.034762036306
0	1509	15.637177188069	0.089771830243
0	1515	15.726949018312	0.099823904092
0	1521	15.826772922404	0.094237856791
0	1526	15.921010779195	0.099705577555
0	1531	16.02071635675	0.010421245657
0	1536	16.031137602407	0.069514781836
0	1541	16.100652384243	0.086043267226
0	1549	16.186695651469	0.067874167374
0	1554	16.254569818843	0.089531594957
0	1559	16.3441014138	0.081364773241
0	1565	16.425466187041	0.069432863971
0	1570	16.494899051012	0.115932540874
0	1575	16.610831591886	0.036259178301
0	1580	16.647090770187	0.028442306459
0	1585	16.675533076646	0.010390720772
0	1590	16.685923797418	0.048269563661
0	1597	16.734193361079	0.065340551892
0	1602	16.799533912971	0.056944515688
0	1608	16.856478428659	0.041698784529
0	1614	16.898177213188	0.008112530746
0	1616	16.906289743934	0.131130283045
0	1625	17.037420026979	0.007959795766
0	1627	17.045379822745	0.048536494741
0	1636	17.093916317486	0.188889994216
0	1642	17.282806311702	0.070873929679
0	1647	17.353680241381	0.019814557229
0	1652	17.37349479861	0.015804221068
0	1657	17.389299019678	0.051337707881
0	1662	17.440636727559	0.073482851401
0	1668	17.51411957896	0.013228204216
0	1673	17.527347783176	0.003993209298
0	1675	17.531340992474	0.17257645866
0	1684	17.703917451134	0.036009025288
0	1689	17.739926476422	0.075955657021
0	1695	17.815882133443	0.029148428405
0	1700	17.845030561848	0.034964416126
0	1706	17.879994977974	0.038167735964
0	1711	17.918162713938	0.012959111789
0	1716	17.931121825727	0.016894320944
0	1721	17.948016146671	0.184117609213
0	1729	18.132133755884	0.030682588001
0	1734	18.162816343885	0.06063604075
0	1741	18.223452384635	0.004840485218
0	1743	18.228292869853	0.084846617547
0	1751	18.3131394874	0.031720882068
0	1756	18.344860369468	0.048907302036
0	1761	18.393767671504	0.008234947377
0	1766	18.402002618881	0.104176467137
0	1774	18.506179086018	0.025031658253
0	1779	18.531210744271	0.047621082219
0	1785	18.57883182649	0.145405520574
0	1790	18.724237347064	0.008741210926
0	1795	18.73297855799	0.004352487754
0	1797	18.737331045744	0.0243308068
0	1805	18.761661852544	0.021944723166
0	1811	18.78360657571	0.127160619846
0	1819	18.910767195556	0.08778832024
0	1824	18.998555515796	0.017013946729
0	1829	19.015569462525	0.109965306391
0	1835	19.125534768916	0.009969817877
0	1840	19.135504586793	0.031963871103
0	1845	19.167468457896	0.161609251
0	1852	19.329077708896	0.033035604847
0	1857	19.362113313743	0.055143881236
0	1864	19.417257194979	0.056062399268
0	1869	19.473319594247	0.034637345978
0	1874	19.507956940225	0.010905709402
0	1879	19.518862649627	0.05307188735
0	1885	19.571934536977	0.012487754485
0	1890	19.584422291462	0.023792648994
0	1895	19.608214940456	0.020580214159
0	1900	19.628795154615	0.035170557409
0	1905	19.663965712024	0.018616834729
0	1910	19.682582546753	0.011316741012
0	1915	19.693899287765	0.029483541771
0	1920	19.723382829536	0.006726454712
0	1922	19.730109284248	0.115876847176
0	1931	19.845986131424	0.01372822579
0	1936	19.859714357214	0.005167882164
0	1938	19.864882239378	0.043369360065
0	1947	19.908251599443	0.129181081617
0	1955	20.03743268106	0.009720767325
0	1960	20.047153448385	0.000106149167
0	1962	20.047259597552	0.001236342089
0	1964	20.048495939641	0.077683257437
0	1977	20.126179197078	0.017582019973
0	1982	20.143761217051	0.060719247338
0	1987	20.204480464389	0.020223481183
0	1992	20.224703945572	0.01358057136
0	1997	20.238284516932	0.096170182933
0	2003	20.334454699865	0.008008639097
0	2005	20.342463338962	0.055546333432
0	2014	20.398009672394	0.025633179202
0	2019	20.423642851596	0.013326019146
0	2024	20.436968870742	0.046000451044
0	2029	20.482969321786	0.012458058739
0	2034	20.495427380525	0.209958775986
0	2039	20.705386156511	0.199418224496
0	2048	20.904804381007	0.023149409411
0	2053	20.927953790418	0.008908106357
0	2058	20.936861896775	0.062733134628
0	2063	20.999595031403	0.035641237447
0	2069	21.03523626885	0.127378590021
0	2075	21.162614858871	0.025652460452
0	2082	21.188267319323	0.001114336869
0	2085	21.189381656192	0.14137852816
0	2096	21.330760184352	0.058859003234
0	2101	21.389619187586	0.011330083785
0	2106	21.400949271371	0.06069834246
0	2112	21.461647613831	0.05680388241
0	2117	21.518451496241	0.041452963865
0	2122	21.559904460106	0.042936351747
0	2127	21.602840811853	0.026333242524
0	2132	21.629174054377	0.106970985241
0	2137	21.736145039618	0.030624231894
0	2144	21.766769271512	0.012644055053
0	2149	21.779413326565	0.00118827241
0	2151	21.780601598975	0.095742257054
0	2159	21.876343856029	0.008106180809
0	2164	21.884450036838	0.053788163059
0	2169	21.938238199897	0.074355812134
0	2175	22.012594012031	0.298795676996
0	2181	22.311389689027	0.08710219108
0	2186	22.398491880107	0.052952486576
0	2191	22.451444366683	0.030593699371
0	2196	22.482038066054	0.033741635092
0	2201	22.515779701146	0.02102851295
0	2207	22.536808214096	0.020756526688
0	2212	22.557564740784	0.015614763904
0	2217	22.573179504688	0.050156926132
0	2223	22.62333643082	0.0289774839
0	2228	22.65231391472	0.02075060147
0	2233	22.67306451619	0.040979264467
0	2238	22.714043780657	0.097575584446
0	2243	22.811619365103	0.032302747456
0	2248	22.843922112559	0.0348253564
0	2253	22.878747468959	0.043495936151
0	2259	22.92224340511	0.016353244422
0	2264	22.938596649532	0.007387850576
0	2269	22.945984500108	0.029849233481
0	2274	22.975833733589	0.108149245916
0	2281	23.083982979505	0.026581556754
0	2286	23.110564536259	0.018011910018
0	2291	23.128576446277	0.009999404849
0	2296	23.138575851126	0.074026854856
0	2301	23.212602705982	0.027090773017
0	2306	23.239693478999	0.007259375169
0	2308	23.246952854168	0.086578114041
0	2318	23.333530968209	0.072327930438
0	2323	23.405858898647	0.155166276505
0	2330	23.561025175152	0.198623604516
0	2339	23.759648779668	0.007706771725
0	2344	23.767355551393	0.008472554851
0	2349	23.775828106244	0.029077311615
0	2354	23.804905417859	0.029620978687
0	2359	23.834526396546	0.164321824504
0	2365	23.99884822105	0.079371347713
0	2371	24.078219568763	0.053500769569
0	2377	24.131720338332	0.043918128202
0	2382	24.175638466534	0.02625947452
0	2388	24.201897941054	0.003776268597
0	2390	24.205674209651	0.054591506773
0	2399	24.260265716424	0.004608028276
0	2401	24.2648737447	0.126466675371
0	2411	24.391340420071	0.04648769402
0	2416	24.437828114091	0.036319972619
0	2421	24.47414808671	0.08637812678
0	2426	24.56052621349	0.009516726444
0	2431	24.570042939934	0.009078736722
0	2436	24.579121676656	0.020659083123
0	2441	24.599780759779	0.004097028941
0	2443	24.60387778872	0.014109915604
0	2451	24.617987704324	0.008097567525
0	2456	24.626085271849	0.020094467555
0	2461	24.646179739404	0.040625703315
0	2466	24.686805442719	0.002898991338
0	2468	24.689704434057	0.038433068323
0	2476	24.72813750238	0.079339093722
0	2481	24.807476596102	0.00469612957
0	2483	24.812172725672	0.013635240146
0	2492	24.825807965818	0.036975041024
0	2497	24.862783006842	0.083954497583
0	2502	24.946737504425	0.001696459755
0	2504	24.94843396418	0.013132822292
0	2509	24.961566786472	0.149125387987
0	2519	25.110692174459	0.004124460898
0	2521	25.114816635357	0.108496962053
0	2531	25.22331359741	0.004483608004
0	2533	25.227797205414	0.09633625876
0	2542	25.324133464174	0.002526401641
0	2544	25.326659865815	0.001886741419
0	2546	25.328546607234	0.021254902646
0	2557	25.34980150988	0.003891505449
0	2559	25.353693015329	0.046089606955
0	2567	25.399782622284	0.033613308333
0	2572	25.433395930617	0.032070804457
0	2577	25.465466735074	0.105715266418
0	2582	25.571182001492	0.069710056821
0	2588	25.640892058313	0.02712330635
0	2593	25.668015364663	0.014165855697
0	2598	25.68218122036	0.038241095564
0	2603	25.720422315924	0.012115263154
0	2609	25.732537579078	0.049714022675
0	2615	25.782251601753	0.029503341657
0	2620	25.81175494341	0.042663838795
0	2625	25.854418782205	0.072608524156
0	2630	25.927027306361	0.003279892749
0	2632	25.93030719911	0.018090528912
0	2640	25.948397728022	0.045073446345
0	2645	25.993471174367	0.008410040905
0	2650	26.001881215272	0.021338446735
0	2655	26.023219662007	0.040251313559
0	2660	26.063470975566	0.01012650043
0	2665	26.073597475996	0.03811594169
0	2670	26.111713417686	0.099098104464
0	2675	26.21081152215	0.134986942663
0	2681	26.345798464813	0.012786897461
0	2686	26.358585362274	0.011517392882
0	2691	26.370102755156	0.071969737011
0	2697	26.442072492167	0.135614646685
0	2704	26.577687138852	0.034841624462
0	2709	26.612528763314	0.059743602634
0	2714	26.672272365948	0.002320973849
0	2716	26.674593339797	0.05468349608
0	2724	26.729276835877	0.051720027245
0	2729	26.780996863122	0.046227982423
0	2734	26.827224845545	0.036442588389
0	2739	26.863667433934	0.019158811044
0	2744	26.882826244978	0.161902026086
0	2752	27.044728271064	0.028586972882
0	2757	27.073315243946	0.014658301002
0	2762	27.087973544948	0.037341003565
0	2769	27.125314548513	0.045472289373
0	2774	27.170786837886	0.001069382793
0	2776	27.171856220679	0.015868399185
0	2784	27.187724619864	0.132432693092
0	2792	27.320157312956	0.009196353279
0	2797	27.329353666235	0.017568914884
0	2802	27.346922581119	0.00075539424
0	2804	27.347677975359	0.083899234438
0	2812	27.431577209797	0.024167679705
0	2817	27.455744889502	0.005632647549
0	2819	27.461377537051	0.046913895485
0	2827	27.508291432536	0.079848067102
0	2832	27.588139499638	0.07558940454
0	2838	27.663728904178	0.01703492563
0	2843	27.680763829808	0.008975183478
0	2848	27.689739013286	0.033072639821
0	2853	27.722811653107	0.002251180226
0	2855	27.725062833333	0.010760807353
0	2860	27.735823640686	0.033444022994
0	2868	27.76926766368	0.025590431024
0	2873	27.794858094704	1.6509918e-05
0	2875	27.794874604622	0.144776185456
0	2885	27.939650790078	0.006865445369
0	2887	27.946516235447	0.00402565768
0	2892	27.950541893127	0.015198171785
0	2900	27.965740064912	0.059413219402
0	2905	28.025153284314	0.003421577378
0	2907	28.028574861692	0.028654416663
0	2915	28.057229278355	0.021928600223
0	2920	28.079157878578	0.011254089373
0	2925	28.090411967951	0.094560292724
0	2930	28.184972260675	0.012239496079
0	2935	28.197211756754	0.039479102703
0	2940	28.236690859457	0.01982436933
0	2945	28.256515228787	0.069925924732
0	2951	28.326441153519	0.003400111822
0	2953	28.329841265341	0.012852759249
0	2961	28.34269402459	0.098765652682
0	2966	28.441459677272	0.061075043822
0	2973	28.502534721094	0.030230211886
0	2978	28.53276493298	0.01576987736
0	2984	28.54853481034	0.016831096872
0	2989	28.565365907212	0.071087008375
0	2994	28.636452915587	0.070012886598
0	2999	28.706465802185	0.10221669706
0	3004	28.808682499245	0.003967662191
0	3006	28.812650161436	0.000725024878
0	3008	28.813375186314	0.042765655147
0	3019	28.856140841461	0.084594273994
0	3024	28.940735115455	0.055359542015
0	3029	28.99609465747	0.020778565351
0	3034	29.016873222821	0.01609040305
0	3040	29.032963625871	0.02042928416
0	3045	29.053392910031	0.001495997301
0	3047	29.054888907332	0.178975668674
0	3057	29.233864576006	0.217003308906
0	3062	29.450867884912	0.069742342253
0	3068	29.520610227165	0.046393879117
0	3073	29.567004106282	0.03546531655
0	3079	29.602469422832	0.113847441959
0	3084	29.716316864791	0.111553951931
0	3089	29.827870816722	0.019031664753
0	3094	29.846902481475	0.091376163828
0	3100	29.938278645303	0.020647517509
0	3105	29.958926162812	0.03967865841
0	3110	29.998604821222	0.012237381426
0	3115	30.010842202648	0.015044414182
0	3120	30.02588661683	0.114993165247
0	3128	30.140879782077	0.152345246379
0	3134	30.293225028456	0.001971110211
0	3136	30.295196138667	0.124872321528
0	3145	30.420068460195	0.075115468448
0	3150	30.495183928643	0.014906313319
0	3156	30.510090241962	0.020464051951
0	3162	30.530554293913	0.042951295905
0	3167	30.573505589818	0.006595457511
0	3169	30.580101047329	0.152624452427
0	3177	30.732725499756	0.136909344973
0	3183	30.869634844729	0.139732550056
0	3188	31.009367394785	0.102200920504
0	3193	31.111568315289	0.020605491711
0	3198	31.132173807	0.019194786282
0	3203	31.151368593282	0.037477916827
0	3208	31.188846510109	0.003570559666
0	3210	31.192417069775	0.005557368831
0	3215	31.197974438606	0.196727218735
0	3225	31.394701657341	0.061245942433
0	3231	31.455947599774	0.026681011726
0	3237	31.4826286115	0.031530510579
0	3242	31.514159122079	0.010744842076
0	3247	31.524903964155	0.054086019054
0	3252	31.578989983209	0.084587694758
0	3257	31.663577677967	0.082970464229
0	3263	31.746548142196	0.105201186915
0	3270	31.851749329111	0.066781449554
0	3276	31.918530778665	0.175432380341
0	3282	32.093963159006	0.046548061511
0	3287	32.140511220517	0.029811770078
0	3293	32.170322990595	0.037487214999
0	3298	32.207810205594	0.020854192717
0	3303	32.228664398311	0.052767115718
0	3308	32.281431514029	0.039330171373
0	3314	32.320761685402	0.071192783301
0	3319	32.391954468703	0.03582677496
0	3324	32.427781243663	0.174899336835
0	3329	32.602680580498	0.020205242946
0	3335	32.622885823444	0.057129575392
0	3340	32.680015398836	0.006907463372
0	3342	32.686922862208	0.145249300887
0	3351	32.832172163095	0.110478969321
0	3356	32.942651132416	0.063083831862
0	3361	33.005734964278	0.030144348759
0	3366	33.035879313037	0.028405543707
0	3371	33.064284856744	0.052323063764
0	3376	33.116607920508	0.010016973779
0	3382	33.126624894287	0.059385787002
0	3387	33.186010681289	0.022327145144
0	3392	33.208337826433	0.052983292891
0	3397	33.261321119324	0.007499219842
0	3399	33.268820339166	0.078504527012
0	3407	33.347324866178	0.018493570321
0	3412	33.365818436499	0.001120426225
0	3414	33.366938862724	0.103102666039
0	3423	33.470041528763	0.023300055025
0	3428	33.493341583788	0.00909616004
0	3433	33.502437743828	0.071145678592
0	3438	33.57358342242	0.049045485691
0	3443	33.622628908111	0.008136460495
0	3445	33.630765368606	4.5245618e-05
0	3447	33.630810614224	0.040306146984
0	3458	33.671116761208	0.012363979877
0	3463	33.683480741085	0.00335778261
0	3465	33.686838523695	0.018789717034
0	3473	33.705628240729	0.013115485909
0	3478	33.718743726638	0.034384025533
0	3484	33.753127752171	0.088619722851
0	3490	33.841747475022	0.011345344331
0	3495	33.853092819353	0.035104923602
0	3500	33.888197742955	0.010064010353
0	3505	33.898261753308	0.121084272195
0	3512	34.019346025503	0.00127201449
0	3514	34.020618039993	0.177320748819
0	3524	34.197938788812	0.023739178281
0	3529	34.221677967093	0.118446615633
0	3534	34.340124582726	0.09016624642
0	3539	34.430290829146	0.088086202561
0	3544	34.518377031707	0.065358630978
0	3549	34.583735662685	0.024481606293
0	3554	34.608217268978	0.048012226855
0	3559	34.656229495833	0.024200469513
0	3564	34.680429965346	0.014119107994
0	3569	34.69454907334	0.066117402123
0	3574	34.760666475463	0.014559227002
0	3579	34.775225702465	0.014850871027
0	3584	34.790076573492	0.150416550902
0	3590	34.940493124394	0.016843154206
0	3595	34.9573362786	0.083776772518
0	3600	35.041113051118	0.156005170021
0	3606	35.197118221139	0.019506882062
0	3611	35.216625103201	0.136410298045
0	3619	35.353035401246	0.017757096236
0	3624	35.370792497482	0.003372835607
0	3626	35.374165333089	0.043224951884
0	3634	35.417390284973	0.019718904994
0	3639	35.437109189967	0.007132861667
0	3641	35.444242051634	0.102481778525
0	3649	35.546723830159	0.001727329582
0	3651	35.548451159741	0.02351613775
0	3659	35.571967297491	0.043624879993
0	3664	35.615592177484	0.130613976036
0	3671	35.74620615352	0.040733557461
0	3676	35.786939710981	0.053193709884
0	3681	35.840133420865	0.128881820486
0	3686	35.969015241351	0.024604692096
0	3691	35.993619933447	0.115376550847
0	3697	36.108996484294	0.002803383809
0	3699	36.111799868103	0.023415619964
0	3707	36.135215488067	0.070602586833
0	3714	36.2058180749	0.116844665246
0	3720	36.322662740146	0.061976632987
0	3725	36.384639373133	0.019966528128
0	3730	36.404605901261	0.041677107475
0	3736	36.446283008736	0.064154284448
0	3741	36.510437293184	0.022251012684
0	3746	36.532688305868	0.156444890478
0	3751	36.689133196346	0.034309291278
0	3756	36.723442487624	0.035864814864
0	3762	36.759307302488	0.104777273901
0	3768	36.864084576389	0.010212063015
0	3773	36.874296639404	0.057709224479
0	3780	36.932005863883	0.10808631703
0	3785	37.040092180913	0.01399649615
0	3790	37.054088677063	0.001062255849
0	3792	37.055150932912	0.047114485787
0	3800	37.102265418699	0.068230892881
0	3806	37.17049631158	0.080958897988
0	3811	37.251455209568	0.103673915707
0	3817	37.355129125275	0.083521149379
0	3822	37.438650274654	0.019603310065
0	3827	37.458253584719	0.109174315402
0	3833	37.567427900121	0.004544211392
0	3835	37.571972111513	0.044245614552
0	3843	37.616217726065	0.000160456171
0	3845	37.616378182236	0.013307159841
0	3851	37.629685342077	0.024569672347
0	3859	37.654255014424	0.004928903457
0	3861	37.659183917881	0.007231997623
0	3866	37.666415915504	0.01567078577
0	3874	37.682086701274	0.007459152966
0	3876	37.68954585424	0.006033017917
0	3881	37.695578872157	0.027769644309
0	3889	37.723348516466	0.224433428094
0	3895	37.94778194456	0.055400351364
0	3901	38.003182295924	0.094139529633
0	3908	38.097321825557	0.031165286922
0	3914	38.128487112479	0.040402480462
0	3919	38.168889592941	0.02828925302
0	3924	38.197178845961	0.032369027484
0	3929	38.229547873445	0.012529685994
0	3934	38.242077559439	0.009931460995
0	3939	38.252009020434	0.083723945263
0	3946	38.335732965697	0.266827258227
0	3952	38.602560223924	0.247574574338
0	3959	38.850134798262	0.000972465826
0	3961	38.851107264088	0.002113160777
0	3963	38.853220424865	0.028203934316
0	3974	38.881424359181	0.005108479186
0	3976	38.886532838367	0.017340636325
0	3984	38.903873474692	0.010072346667
0	3989	38.913945821359	0.108141824852
0	3995	39.022087646211	0.00322030725
0	3997	39.025307953461	0.117926826103
0	4005	39.143234779564	0.025533683446
0	4010	39.16876846301	0.094407887357
0	4015	39.263176350367	0.015746761721
0	4020	39.278923112088	0.016852442773
0	4026	39.295775554861	0.178464033301
0	4031	39.474239588162	0.034391413695
0	4036	39.508631001857	0.088228187405
0	4041	39.596859189262	0.039649641826
0	4048	39.636508831088	0.096008056009
0	4053	39.732516887097	0.010428735993
0	4058	39.74294562309	0.001319627703
0	4060	39.744265250793	0.199915110019
0	4069	39.944180360812	0.007184110189
0	4071	39.951364471001	0.013479426024
0	4079	39.964843897025	0.018321312318
0	4084	39.983165209343	0.003323665558
0	4086	39.986488874901	0.038244261076
0	4094	40.024733135977	0.037405342876
0	4100	40.062138478853	0.026939865042
0	4106	40.089078343895	0.040525575544
0	4111	40.129603919439	0.019710101177
0	4117	40.149314020616	0.042788802328
0	4122	40.192102822944	0.076264656871
0	4127	40.268367479815	0.019896926445
0	4133	40.28826440626	0.043270430307
0	4138	40.331534836567	0.021575384703
0	4143	40.35311022127	0.003072514025
0	4145	40.356182735295	0.053214387688
0	4154	40.409397122983	0.004192669532
0	4156	40.413589792515	0.032730585702
0	4164	40.446320378217	0.088576224701
0	4169	40.534896602918	0.028336773505
0	4174	40.563233376423	0.017918146325
0	4179	40.581151522748	0.058975967931
0	4184	40.640127490679	0.03032351396
0	4189	40.670451004639	0.038600787364
0	4194	40.709051792003	0.005931289154
0	4196	40.714983081157	0.076006153113
0	4205	40.79098923427	0.022060599837
0	4210	40.813049834107	0.061058034305
0	4215	40.874107868412	0.046089536662
0	4220	40.920197405074	0.018405772149
0	4225	40.938603177223	0.003519599557
0	4227	40.94212277678	0.008982831728
0	4232	40.951105608508	0.043063447665
0	4240	40.994169056173	0.038492566827
0	4245	41.032661623	0.132184906723
0	4250	41.164846529723	0.008635619436
0	4255	41.173482149159	0.110089744365
0	4261	41.283571893524	0.005457622488
0	4263	41.289029516012	0.033746348286
0	4271	41.322775864298	0.061611819938
0	4276	41.384387684236	0.071824144882
0	4282	41.456211829118	0.027612052573
0	4287	41.483823881691	0.13267341325
0	4294	41.616497294941	0.014507680945
0	4300	41.631004975886	0.086846482446
0	4306	41.717851458332	0.047547240429
0	4311	41.765398698761	0.029830807345
0	4317	41.795229506106	0.144799639756
0	4323	41.940029145862	0.045118196751
0	4329	41.985147342613	0.153715155648
0	4334	42.138862498261	0.062736364432
0	4339	42.201598862693	0.308927956392
0	4345	42.510526819085	0.1289243615
0	4350	42.639451180585	0.02323713112
0	4355	42.662688311705	0.149105649198
0	4362	42.811793960903	0.131499709128
0	4368	42.943293670031	0.045177144411
0	4373	42.988470814442	0.050688763091
0	4378	43.039159577533	0.000285075854
0	4380	43.039444653387	0.224447787805
0	4391	43.263892441192	0.068205933353
0	4397	43.332098374545	0.072617431457
0	4402	43.404715806002	0.003092076226
0	4404	43.407807882228	0.02597259396
0	4412	43.433780476188	0.049856973152
0	4418	43.48363744934	0.053427994091
0	4424	43.537065443431	0.041681064639
0	4429	43.57874650807	0.147540950377
0	4434	43.726287458447	0.013432926808
0	4440	43.739720385255	0.056185043543
0	4445	43.795905428798	0.002739899439
0	4447	43.798645328237	0.166118076357
0	4455	43.964763404594	0.008700923512
0	4460	43.973464328106	0.054628874457
0	4465	44.028093202563	0.083398169322
0	4470	44.111491371885	0.001440924533
0	4472	44.112932296418	0.079552701463
0	4480	44.192484997881	0.068320454551
0	4487	44.260805452432	0.041536379595
0	4492	44.302341832027	0.077278553081
0	4500	44.379620385108	0.004072061117
0	4502	44.383692446225	0.088608116278
0	4511	44.472300562503	0.000695516899
0	4513	44.472996079402	0.07358420193
0	4521	44.546580281332	0.02712638973
0	4527	44.573706671062	0.002587744618
0	4529	44.57629441568	0.030460325285
0	4537	44.606754740965	0.038197356002
0	4542	44.644952096967	0.006290427919
0	4544	44.651242524886	0.029699179831
0	4552	44.680941704717	0.0286557682
0	4558	44.709597472917	0.017264903636
0	4563	44.726862376553	0.069578621854
0	4568	44.796440998407	0.033168430482
0	4573	44.829609428889	0.015707829384
0	4578	44.845317258273	0.01366183516
0	4583	44.858979093433	0.000291473965
0	4585	44.859270567398	0.06174605071
0	4594	44.921016618108	0.053271766708
0	4599	44.974288384816	0.007904461807
0	4604	44.982192846623	0.0087194137
0	4609	44.990912260323	0.002196343058
0	4611	44.993108603381	0.088425976011
0	4620	45.081534579392	0.014257178319
0	4625	45.095791757711	0.001915696803
0	4627	45.097707454514	0.029812516739
0	4635	45.127519971253	0.071693745138
0	4640	45.199213716391	0.050804349733
0	4645	45.250018066124	0.018090526622
0	4651	45.268108592746	0.097141966904
0	4656	45.36525055965	0.045963383373
0	4661	45.411213943023	0.110381190211
0	4667	45.521595133234	0.061687546192
0	4673	45.583282679426	0.030145669654
0	4678	45.61342834908	0.012951197833
0	4683	45.626379546913	0.102314412689
0	4691	45.728693959602	0.009801108871
0	4696	45.738495068473	0.002337693396
0	4698	45.740832761869	0.093373651837
0	4706	45.834206413706	0.049029715396
0	4712	45.883236129102	0.000574919442
0	4714	45.883811048544	0.028441698147
0	4723	45.912252746691	0.132244734136
0	4728	46.044497480827	0.105801791226
0	4734	46.150299272053	0.035205891566
0	4739	46.185505163619	0.049594016012
0	4744	46.235099179631	0.112030702526
0	4750	46.347129882157	0.022747174604
0	4755	46.369877056761	0.012590864241
0	4760	46.382467921002	0.04229508463
0	4765	46.424763005632	0.079205815074
0	4771	46.503968820706	0.041070860831
0	4777	46.545039681537	0.037454143096
0	4782	46.582493824633	0.010763854594
0	4787	46.593257679227	0.041923254962
0	4792	46.635180934189	0.005975667028
0	4794	46.641156601217	0.022460043408
0	4802	46.663616644625	0.000967798883
0	4804	46.664584443508	0.10526228571
0	4812	46.769846729218	0.029096423756
0	4817	46.798943152974	0.047596562373
0	4823	46.846539715347	0.121450462655
0	4830	46.967990178002	0.009438074709
0	4835	46.977428252711	0.000955106867
0	4837	46.978383359578	0.016922589827
0	4845	46.995305949405	0.012305115275
0	4851	47.00761106468	0.014608399061
0	4856	47.022219463741	0.003307516037
0	4858	47.025526979778	0.071486088594
0	4867	47.097013068372	0.0372326466
0	4872	47.134245714972	0.043656139647
0	4877	47.177901854619	0.007412214343
0	4882	47.185314068962	0.044827218757
0	4888	47.230141287719	0.17137840409
0	4895	47.401519691809	0.01337451786
0	4900	47.414894209669	0.107773352177
0	4907	47.522667561846	0.086292382647
0	4914	47.608959944493	0.093624188615
0	4919	47.702584133108	0.022939728267
0	4924	47.725523861375	0.002939867277
0	4926	47.728463728652	0.032273338095
0	4934	47.760737066747	0.042864938811
0	4939	47.803602005558	0.042758215663
0	4944	47.846360221221	0.110903253929
0	4949	47.95726347515	0.029849148485
0	4954	47.987112623635	0.01170596821
0	4959	47.998818591845	0.014717303957
0	4964	48.013535895802	0.021192727657
0	4969	48.034728623459	0.039772739725
0	4974	48.074501363184	0.059478280999
0	4980	48.133979644183	0.147151571084
0	4986	48.281131215267	0.105757503268
0	4991	48.386888718535	0.220672190269
0	4997	48.607560908804	0.079310074925
0	5002	48.686870983729	0.027365669848
0	5007	48.714236653577	0.191230949021
0	5013	48.905467602598	0.000342068527
0	5015	48.905809671125	0.017730756434
0	5024	48.923540427559	0.027305999257
0	5029	48.950846426816	0.014705527673
0	5034	48.965551954489	0.114433831765
0	5039	49.079985786254	0.076696322027
0	5045	49.156682108281	0.012536486866
0	5050	49.169218595147	0.01134862109
0	5055	49.180567216237	0.140700859341
0	5062	49.321268075578	0.096087793058
0	5068	49.417355868636	0.011178276849
0	5073	49.428534145485	0.033129659145
0	5078	49.46166380463	0.029594645827
0	5083	49.491258450457	0.030203239388
0	5088	49.521461689845	0.129727814846
0	5096	49.651189504691	0.01440778303
0	5102	49.665597287721	0.03369867987
0	5107	49.699295967591	0.158864294982
0	5113	49.858160262573	0.034393214012
0	5118	49.892553476585	0.07941290127
0	5123	49.971966377855	0.049840570809
0	5129	50.021806948664	0.028341191053
0	5134	50.050148139717	0.135712058634
0	5139	50.185860198351	0.116158435389
0	5145	50.30201863374	0.063402040061
0	5151	50.365420673801	0.022084458227
0	5156	50.387505132028	0.025472826319
0	5161	50.412977958347	0.017895502222
0	5167	50.430873460569	0.050006852228
0	5172	50.480880312797	0.003646431972
0	5174	50.484526744769	0.221565997614
0	5183	50.706092742383	0.009988403955
0	5188	50.716081146338	0.087820170242
0	5194	50.80390131658	0.022394444213
0	5200	50.826295760793	0.054169821468
0	5205	50.880465582261	0.03274033521
0	5210	50.913205917471	0.10327552538
0	5215	51.016481442851	0.028058934892
0	5220	51.044540377743	0.007764024505
0	5225	51.052304402248	0.041597094115
0	5230	51.093901496363	0.005712892786
0	5232	51.099614389149	0.08829527265
0	5241	51.187909661799	0.022954774351
0	5246	51.21086443615	0.047392538558
0	5252	51.258256974708	0.03831829017
0	5257	51.296575264878	0.001309968336
0	5259	51.297885233214	0.081605069074
0	5267	51.379490302288	0.123682078494
0	5274	51.503172380782	0.015375943456
0	5279	51.518548324238	0.011681830331
0	5284	51.530230154569	0.020133475958
0	5289	51.550363630527	0.005338527021
0	5291	51.555702157548	0.078295948752
0	5299	51.6339981063	0.127500104499
0	5305	51.761498210799	0.009285990936
0	5310	51.770784201735	0.129836724537
0	5316	51.900620926272	0.035110444953
0	5323	51.935731371225	0.059470682096
0	5328	51.995202053321	0.166138788937
0	5333	52.161340842258	0.12173809881
0	5339	52.283078941068	0.071535487423
0	5345	52.354614428491	0.041965294012
0	5350	52.396579722503	0.013452066949
0	5356	52.410031789452	0.164545557656
0	5363	52.574577347108	0.221475926865
0	5369	52.796053273973	0.368171616113
0	5379	53.164224890086	0.087378576062
0	5385	53.251603466148	0.003393252604
0	5387	53.254996718752	0.016867240685
0	5395	53.271863959437	0.061251586713
0	5400	53.33311554615	0.038332209273
0	5406	53.371447755423	0.03134780827
0	5411	53.402795563693	0.025228670929
0	5416	53.428024234622	0.04656487497
0	5422	53.474589109592	0.107286784811
0	5427	53.581875894403	0.114055220176
0	5434	53.695931114579	0.055061550657
0	5439	53.750992665236	0.009268488211
0	5444	53.760261153447	0.081022819612
0	5449	53.841283973059	0.016259105925
0	5454	53.857543078984	0.016835044508
0	5459	53.874378123492	0.075041651696
0	5466	53.949419775188	0.068850926312
0	5471	54.0182707015	0.066451210558
0	5477	54.084721912058	0.005069956845
0	5479	54.089791868903	0.064626081939
0	5490	54.154417950842	0.021568632118
0	5495	54.17598658296	0.020728294092
0	5500	54.196714877052	0.253281936983
0	5505	54.449996814035	0.048657738325
0	5510	54.49865455236	0.053974230302
0	5515	54.552628782662	0.008296245918
0	5520	54.56092502858	0.327212545991
0	5525	54.888137574571	0.075355604883
0	5530	54.963493179454	0.008135514327
0	5532	54.971628693781	0.150986488174
0	5542	55.122615181955	0.086797928424
0	5548	55.209413110379	0.100551817161
0	5553	55.30996492754	0.044614402077
0	5559	55.354579329617	0.030784957627
0	5564	55.385364287244	0.000932230445
0	5566	55.386296517689	0.002959317957
0	5568	55.389255835646	0.051063267207
0	5579	55.440319102853	0.069310007276
0	5584	55.509629110129	0.189487138856
0	5592	55.699116248985	0.012980198449
0	5597	55.712096447434	0.004467568
0	5599	55.716564015434	0.02063738009
0	5607	55.737201395524	0.034777232415
0	5612	55.771978627939	0.072179272204
0	5619	55.844157900143	0.109029275667
0	5626	55.95318717581	0.028434555727
0	5631	55.981621731537	0.000777505916
0	5633	55.982399237453	0.04743433436
0	5641	56.029833571813	0.028170531028
0	5646	56.058004102841	0.153046162559
0	5651	56.2110502654	0.003470172736
0	5653	56.214520438136	0.012059979936
0	5659	56.226580418072	0.257579598484
0	5668	56.484160016556	0.102523740485
0	5674	56.586683757041	0.032016313132
0	5679	56.618700070173	0.010097809974
0	5684	56.628797880147	0.022021094676
0	5689	56.650818974823	0.004287930397
0	5691	56.65510690522	0.000292615793
0	5693	56.655399521013	0.02134465121
0	5704	56.676744172223	0.025345294447
0	5710	56.70208946667	0.008717552798
0	5715	56.710807019468	0.135239633249
0	5721	56.846046652717	0.045378439599
0	5726	56.891425092316	0.013077767693
0	5731	56.904502860009	0.009015334548
0	5736	56.913518194557	0.185640785618
0	5742	57.099158980175	0.043108252677
0	5747	57.142267232852	0.059039391848
0	5752	57.2013066247	0.007469137694
0	5754	57.208775762394	0.005674599215
0	5759	57.214450361609	0.000126960902
0	5761	57.214577322511	0.04549108259
0	5773	57.260068405101	0.111286862419
0	5779	57.37135526752	0.078276780642
0	5786	57.449632048162	0.016308195137
0	5791	57.465940243299	0.053362034167
0	5796	57.519302277466	0.094609006819
0	5801	57.613911284285	0.009346732195
0	5806	57.62325801648	0.066011984901
0	5812	57.689270001381	0.008192194458
0	5817	57.697462195839	0.070370581857
0	5822	57.767832777696	0.046076162188
0	5827	57.813908939884	0.01895696676
0	5832	57.832865906644	0.209080356847
0	5841	58.041946263491	0.016603431777
0	5847	58.058549695268	0.017345871534
0	5852	58.075895566802	0.049270784165
0	5857	58.125166350967	0.04119159266
0	5863	58.166357943627	0.050839544746
0	5870	58.217197488373	0.010281952664
0	5875	58.227479441037	0.040701948681
0	5881	58.268181389718	0.112100629599
0	5887	58.380282019317	0.069724288553
0	5892	58.45000630787	0.044609972796
0	5898	58.494616280666	0.027913735614
0	5904	58.52253001628	0.003449432255
0	5906	58.525979448535	0.001201345008
0	5908	58.527180793543	0.03860281676
0	5919	58.565783610303	0.067982457609
0	5925	58.633766067912	0.061291802553
0	5930	58.695057870465	0.017421072334
0	5935	58.712478942799	0.029394907526
0	5941	58.741873850325	0.060143242625
0	5946	58.80201709295	0.025811284298
0	5951	58.827828377248	0.0116346629
0	5956	58.839463040148	0.072786719405
0	5961	58.912249759553	0.114276272262
0	5967	59.026526031815	0.009056497741
0	5972	59.035582529556	0.032650804055
0	5978	59.068233333611	0.020379293346
0	5983	59.088612626957	0.051261471837
0	5989	59.139874098794	0.009887377146
0	5994	59.14976147594	0.023701693694
0	5999	59.173463169634	0.03723545335
0	6004	59.210698622984	0.056653735666
0	6009	59.26735235865	0.035120316885
0	6014	59.302472675535	0.041035151744
0	6019	59.343507827279	0.015860210025
0	6025	59.359368037304	0.01266579575
0	6030	59.372033833054	0.048174347274
0	6035	59.420208180328	0.037770502993
0	6041	59.457978683321	0.05949834105
0	6048	59.517477024371	0.030006045915
0	6053	59.547483070286	0.021894347513
0	6058	59.569377417799	0.061429811866
0	6063	59.630807229665	0.147489016941
0	6069	59.778296246606	0.045254943006
0	6075	59.823551189612	0.066739460986
0	6081	59.890290650598	0.157679206908
0	6087	60.047969857506	0.067008611623
0	6093	60.114978469129	0.044457366376
0	6099	60.159435835505	0.030235726403
0	6104	60.189671561908	0.021753701583
0	6109	60.211425263491	0.159431793618
0	6114	60.370857057109	0.153913210113
0	6121	60.524770267222	0.088780294183
0	6127	60.613550561405	0.030927145143
0	6132	60.644477706548	0.062663732632
0	6137	60.70714143918	0.027122409261
0	6142	60.734263848441	0.06216430668
0	6147	60.796428155121	0.109377521272
0	6153	60.905805676393	0.079710311882
0	6160	60.985515988275	0.016133215486
0	6165	61.001649203761	0.020966487888
0	6170	61.022615691649	0.008407923561
0	6175	61.03102361521	0.036920483636
0	6180	61.067944098846	0.207708971032
0	6186	61.275653069878	0.0939506737
0	6195	61.369603743578	0.010284550863
0	6200	61.379888294441	0.020183520822
0	6205	61.400071815263	0.034190717902
0	6210	61.434262533165	0.014266481696
0	6215	61.448529014861	0.01264557296
0	6220	61.461174587821	0.053706050443
0	6225	61.514880638264	0.001459571794
0	6227	61.516340210058	0.058857047971
0	6236	61.575197258029	0.020289136529
0	6241	61.595486394558	0.059441859456
0	6246	61.654928254014	0.043118189444
0	6251	61.698046443458	0.003600416474
0	6253	61.701646859932	0.009537500863
0	6258	61.711184360795	0.006420289435
0	6263	61.71760465023	0.025838302675
0	6271	61.743442952905	0.034016675782
0	6276	61.777459628687	0.05592261614
0	6281	61.833382244827	0.020223522981
0	6286	61.853605767808	0.085797803368
0	6291	61.939403571176	0.08027689109
0	6297	62.019680462266	0.011920003823
0	6302	62.031600466089	0.030271478427
0	6307	62.061871944516	0.070137072077
0	6312	62.132009016593	0.020515032071
0	6317	62.152524048664	0.108444834132
0	6322	62.260968882796	0.012423885056
0	6327	62.273392767852	0.062747094682
0	6333	62.336139862534	0.0278966438
0	6338	62.364036506334	0.122405860788
0	6343	62.486442367122	0.093044549038
0	6350	62.57948691616	0.076446976565
0	6356	62.655933892725	0.030856817477
0	6361	62.686790710202	0.001352206198
0	6363	62.6881429164	0.001362147885
0	6365	62.689505064285	0.073199252775
0	6376	62.76270431706	0.007068671407
0	6378	62.769772988467	0.017329443612
0	6386	62.787102432079	0.008301760446
0	6391	62.795404192525	0.283050841125
0	6396	63.07845503365	0.011305391234
0	6401	63.089760424884	0.003502984013
0	6403	63.093263408897	0.013683879556
0	6411	63.106947288453	0.041966801443
0	6416	63.148914089896	0.011496929517
0	6421	63.160411019413	0.006577468893
0	6423	63.166988488306	0.191884963326
0	6433	63.358873451632	0.027036067038
0	6438	63.38590951867	0.005435170771
0	6440	63.391344689441	0.001191761899
0	6442	63.39253645134	0.218342953923
0	6459	63.610879405263	0.073204240793
0	6466	63.684083646056	0.071580532083
0	6471	63.755664178139	0.025444255104
0	6476	63.781108433243	0.001982859824
0	6478	63.783091293067	0.014188776667
0	6486	63.797280069734	0.034696456936
0	6491	63.83197652667	0.000580792654
0	6493	63.832557319324	0.07564548519
0	6502	63.908202804514	0.115534719026
0	6510	64.02373752354	0.034926698036
0	6515	64.058664221576	0.0146766669
0	6520	64.073340888476	0.024847474569
0	6526	64.098188363045	0.006623287504
0	6528	64.104811650549	0.140680848148
0	6539	64.245492498697	0.016397623874
0	6545	64.261890122571	0.09370950437
0	6551	64.355599626941	0.03348514606
0	6559	64.389084773001	0.165512582274
0	6564	64.554597355275	0.098074879901
0	6570	64.652672235176	0.016839085318
0	6575	64.669511320494	0.073299859245
0	6580	64.742811179739	0.118154714774
0	6585	64.860965894513	0.042370884216
0	6591	64.903336778729	0.177936164055
0	6596	65.081272942784	0.021759223037
0	6602	65.103032165821	0.033476604878
0	6608	65.136508770699	0.038441405198
0	6614	65.174950175897	0.043888316958
0	6619	65.218838492855	0.066418584296
0	6624	65.285257077151	0.066275743256
0	6630	65.351532820407	0.001676384081
0	6632	65.353209204488	0.070113705132
0	6640	65.42332290962	0.020948031383
0	6645	65.444270941003	0.092331797014
0	6650	65.536602738017	0.077512255269
0	6656	65.614114993286	0.027855215834
0	6661	65.64197020912	0.108954540856
0	6668	65.750924749976	0.036014728683
0	6673	65.786939478659	0.095887617496
0	6678	65.882827096155	0.056843213999
0	6684	65.939670310154	0.057778716207
0	6690	65.997449026361	0.079175576404
0	6696	66.076624602765	0.04155915527
0	6701	66.118183758035	0.017722633005
0	6707	66.13590639104	0.058810376776
0	6713	66.194716767816	0.022308087222
0	6718	66.217024855038	0.002475201241
0	6720	66.219500056279	0.0013468104
0	6722	66.220846866679	0.10829537209
0	6734	66.329142238769	0.01671702069
0	6739	66.345859259459	0.030067732797
0	6744	66.375926992256	0.0649526238
0	6749	66.440879616056	0.074098618876
0	6754	66.514978234932	0.14640816972
0	6760	66.661386404652	0.075847915695
0	6767	66.737234320347	0.02470582583
0	6772	66.761940146177	0.045586433238
0	6777	66.807526579415	0.016125261788
0	6782	66.823651841203	0.044436073537
0	6787	66.86808791474	0.143859741709
0	6792	67.011947656449	0.004945694443
0	6794	67.016893350892	0.143860825583
0	6803	67.160754176475	0.050173661268
0	6808	67.210927837743	0.052462697304
0	6813	67.263390535047	0.106687962481
0	6818	67.370078497528	0.087335751362
0	6823	67.45741424889	0.163352930488
0	6829	67.620767179378	0.020420684183
0	6834	67.641187863561	0.046059254722
0	6839	67.687247118283	0.005116048784
0	6841	67.692363167067	0.039344110031
0	6850	67.731707277098	0.079534257128
0	6855	67.811241534226	0.012827149714
0	6860	67.82406868394	0.017018787094
0	6865	67.841087471034	0.071920812016
0	6870	67.91300828305	0.025135936921
0	6875	67.938144219971	0.075703591214
0	6880	68.013847811185	0.033577138904
0	6885	68.047424950089	0.034880645279
0	6891	68.082305595368	0.073225223749
0	6896	68.155530819117	0.013372419851
0	6901	68.168903238968	0.054404648871
0	6907	68.223307887839	0.038670484465
0	6913	68.261978372304	0.219474025548
0	6923	68.481452397852	0.062442160607
0	6929	68.543894558459	0.010103155162
0	6934	68.553997713621	0.111466614396
0	6939	68.665464328017	0.00767167266
0	6944	68.673136000677	0.007937534135
0	6949	68.681073534812	0.071305321079
0	6955	68.752378855891	0.047044247232
0	6960	68.799423103123	0.033458809952
0	6966	68.832881913075	0.024601826436
0	6971	68.857483739511	0.011427234136
0	6976	68.868910973647	0.022353611331
0	6982	68.891264584978	0.008477857432
0	6987	68.89974244241	0.002264413218
0	6989	68.902006855628	0.026759773943
0	6999	68.928766629571	0.022707831733
0	7004	68.951474461304	0.000470304763
0	7006	68.951944766067	0.024913592829
0	7014	68.976858358896	0.09606922682
0	7020	69.072927585716	0.005044912674
0	7022	69.07797249839	0.239540492866
0	7034	69.317512991256	0.001685990289
0	7036	69.319198981545	0.051627783518
0	7044	69.370826765063	0.119537995027
0	7051	69.49036476009	0.000804766921
0	7053	69.491169527011	0.129462172171
0	7063	69.620631699182	0.00871027481
0	7068	69.629341973992	0.011427605831
0	7073	69.640769579823	0.055593993708
0	7078	69.696363573531	0.068885459497
0	7085	69.765249033028	0.000372518343
0	7087	69.765621551371	0.011672275167
0	7092	69.777293826538	0.049824745874
0	7100	69.827118572412	0.068391795195
0	7105	69.895510367607	0.057949403605
0	7110	69.953459771212	0.176779027123
0	7118	70.130238798335	0.009533399836
0	7123	70.139772198171	0.05833310621
0	7128	70.198105304381	0.035212244023
0	7133	70.233317548404	0.000156644365
0	7135	70.233474192769	0.008701848297
0	7140	70.242176041066	0.078750363226
0	7148	70.320926404292	0.027827757195
0	7154	70.348754161487	0.070833472067
0	7159	70.419587633554	0.007177162697
0	7161	70.426764796251	0.035149230703
0	7169	70.461914026954	0.162843988913
0	7175	70.624758015867	0.003080268776
0	7177	70.627838284643	0.122172428827
0	7187	70.75001071347	0.004878789954
0	7189	70.754889503424	0.013468653411
0	7197	70.768358156835	0.003537835664
0	7199	70.771895992499	0.030033846287
0	7208	70.801929838786	0.010264472378
0	7213	70.812194311164	0.033750790703
0	7218	70.845945101867	0.011410257813
0	7223	70.85735535968	0.103560853129
0	7229	70.960916212809	0.050670594649
0	7234	71.011586807458	0.118506627166
0	7240	71.130093434624	0.018635330697
0	7245	71.148728765321	0.028007053446
0	7250	71.176735818767	0.038667096192
0	7255	71.215402914959	0.064874337764
0	7261	71.280277252723	0.077670717214
0	7267	71.357947969937	0.039704385026
0	7272	71.397652354963	0.311396448068
0	7279	71.709048803031	0.026761421009
0	7284	71.73581022404	0.000600816927
0	7286	71.736411040967	0.082269558391
0	7297	71.818680599358	0.007966963316
0	7302	71.826647562674	0.040943008105
0	7308	71.867590570779	0.001079710177
0	7310	71.868670280956	0.079385249607
0	7320	71.948055530563	0.199204718625
0	7328	72.147260249188	0.035230249243
0	7333	72.182490498431	0.087128405848
0	7338	72.269618904279	0.013721847615
0	7343	72.283340751894	0.15987222742
0	7348	72.443212979314	0.043162340134
0	7353	72.486375319448	0.043520383405
0	7358	72.529895702853	0.108724583587
0	7364	72.63862028644	0.027935203579
0	7371	72.666555490019	0.134145155474
0	7377	72.800700645493	0.093601248733
0	7382	72.894301894226	0.006492371614
0	7384	72.90079426584	0.080587860576
0	7394	72.981382126416	0.001071766639
0	7396	72.982453893055	0.010314624371
0	7401	72.992768517426	0.075719743535
0	7409	73.068488260961	0.020955750455
0	7414	73.089444011416	0.015634921607
0	7420	73.105078933023	0.046933945375
0	7425	73.152012878398	0.00154422393
0	7427	73.153557102328	0.060042950157
0	7436	73.213600052485	0.082948607372
0	7441	73.296548659857	0.036363591031
0	7446	73.332912250888	0.032240543882
0	7451	73.36515279477	0.109128626411
0	7457	73.474281421181	0.197888454564
0	7463	73.672169875745	0.003576717681
0	7465	73.675746593426	0.047132668829
0	7474	73.722879262255	0.064887450959
0	7479	73.787766713214	0.046862462654
0	7484	73.834629175868	0.02917732673
0	7489	73.863806502598	0.030447172509
0	7494	73.894253675107	0.027861948095
0	7499	73.922115623202	0.001243757207
0	7501	73.923359380409	0.021563202538
0	7510	73.944922582947	0.017374107101
0	7515	73.962296690048	0.046410733902
0	7522	74.00870742395	0.03229553593
0	7527	74.04100295988	0.149648743465
0	7532	74.190651703345	0.015668823006
0	7537	74.206320526351	0.098395070542
0	7542	74.304715596893	0.163274823813
0	7548	74.467990420706	0.19410026934
0	7553	74.662090690046	0.202425293775
0	7559	74.864515983821	0.000283825293
0	7561	74.864799809114	0.023821492752
0	7569	74.888621301866	0.032985949116
0	7574	74.921607250982	0.045793201414
0	7582	74.967400452396	0.020896307982
0	7587	74.988296760378	0.005694319972
0	7589	74.99399108035	0.111063669713
0	7599	75.105054750063	0.085231044671
0	7604	75.190285794734	0.007962198172
0	7609	75.198247992906	0.131659282141
0	7617	75.329907275047	0.002360360382
0	7619	75.332267635429	0.089283522879
0	7629	75.421551158308	0.002243322202
0	7631	75.42379448051	0.035765968688
0	7640	75.459560449198	0.078168392154
0	7646	75.537728841352	0.127604840077
0	7652	75.665333681429	0.172824461874
0	7660	75.838158143303	0.063110673487
0	7665	75.90126881679	0.049247516964
0	7670	75.950516333754	0.05013931342
0	7675	76.000655647174	0.047865453419
0	7680	76.048521100593	0.028238641309
0	7685	76.076759741902	0.039389443671
0	7692	76.116149185573	0.008426300692
0	7697	76.124575486265	0.025601308537
0	7702	76.150176794802	0.012360601286
0	7707	76.162537396088	0.018019684332
0	7713	76.18055708042	0.059699181677
0	7720	76.240256262097	0.001809000993
0	7722	76.24206526309	0.084164598743
0	7730	76.326229861833	0.013667055813
0	7735	76.339896917646	0.031117014563
0	7740	76.371013932209	0.020532278215
0	7745	76.391546210424	0.005972741618
0	7747	76.397518952042	0.144853619031
0	7756	76.542372571073	0.040660158416
0	7761	76.583032729489	0.081767063117
0	7766	76.664799792606	0.319025263318
0	7772	76.983825055924	0.162648044234
0	7778	77.146473100158	0.047478137239
0	7784	77.193951237397	0.013773703062
0	7789	77.207724940459	0.064296662284
0	7794	77.272021602743	0.003381731664
0	7796	77.275403334407	0.02799693954
0	7804	77.303400273947	0.062269637472
0	7809	77.365669911419	0.00977028272
0	7814	77.375440194139	0.031043751878
0	7819	77.406483946017	0.074741099883
0	7824	77.4812250459	0.001658695811
0	7827	77.482883741711	0.030906003461
0	7835	77.513789745172	0.06261501213
0	7840	77.576404757302	0.017123782957
0	7846	77.593528540259	0.003355523017
0	7848	77.596884063276	0.119775291574
0	7858	77.71665935485	0.228334693244
0	7867	77.944994048094	0.048847731705
0	7872	77.993841779799	0.037615989378
0	7877	78.031457769177	0.021927440518
0	7883	78.053385209695	0.045106267697
0	7888	78.098491477392	0.099206400896
0	7894	78.197697878288	0.056616935772
0	7899	78.25431481406	0.020292134136
0	7904	78.274606948196	0.006268440095
0	7906	78.280875388291	0.042895257844
0	7914	78.323770646135	0.041380359558
0	7919	78.365151005693	0.108472660068
0	7925	78.473623665761	0.062892518274
0	7930	78.536516184035	0.113789085096
0	7935	78.650305269131	0.003980218743
0	7937	78.654285487874	0.12504646739
0	7946	78.779331955264	0.086857209984
0	7951	78.866189165248	0.018097592854
0	7956	78.884286758102	0.008699749621
0	7961	78.892986507723	0.062950922528
0	7967	78.955937430251	0.014333281374
0	7972	78.970270711625	0.010316413455
0	7977	78.98058712508	0.007187219321
0	7979	78.987774344401	0.020480232788
0	7988	79.008254577189	0.032385209454
0	7993	79.040639786643	0.039326542756
0	7999	79.079966329399	0.012491567655
0	8004	79.092457897054	0.124405546533
0	8010	79.216863443587	0.085336458516
0	8015	79.302199902103	0.027834859035
0	8020	79.330034761138	0.064967713458
0	8028	79.395002474596	0.17570053035
0	8036	79.570703004946	0.071036562938
0	8041	79.641739567884	0.091390470265
0	8047	79.733130038149	0.040098777265
0	8052	79.773228815414	0.025364404579
0	8057	79.798593219993	0.007635212702
0	8059	79.806228432695	0.008071833256
0	8064	79.814300265951	0.16864199765
0	8072	79.982942263601	0.180069810555
0	8079	80.163012074156	0.033324985499
0	8084	80.196337059655	0.032290369047
0	8089	80.228627428702	0.044614180878
0	8095	80.27324160958	0.000465141445
0	8097	80.273706751025	0.035515013351
0	8105	80.309221764376	0.016821848254
0	8110	80.32604361263	0.006611513908
0	8112	80.332655126538	0.003898093583
0	8117	80.336553220121	0.057046775254
0	8125	80.393599995375	0.056919114025
0	8130	80.4505191094	0.041236158434
0	8135	80.491755267834	0.010857532336
0	8140	80.50261280017	0.021276087699
0	8145	80.523888887869	0.06356802997
0	8151	80.587456917839	0.048594177498
0	8156	80.636051095337	0.043795733948
0	8161	80.679846829285	0.011526920558
0	8166	80.691373749843	0.047627179521
0	8173	80.739000929364	0.083708326418
0	8178	80.822709255782	0.032243504302
0	8183	80.854952760084	0.023169070336
0	8188	80.87812183042	0.046638070951
0	8193	80.924759901371	0.029849713699
0	8198	80.95460961507	0.052021798835
0	8203	81.006631413905	0.015430419331
0	8208	81.022061833236	0.047090188399
0	8214	81.069152021635	0.040379408248
0	8219	81.109531429883	0.015194410178
0	8224	81.124725840061	0.039212729299
0	8229	81.16393856936	0.179484300459
0	8237	81.343422869819	0.010342685029
0	8242	81.353765554848	0.054187474584
0	8247	81.407953029432	0.031053108429
0	8252	81.439006137861	0.005578729599
0	8254	81.44458486746	0.049878601736
0	8263	81.494463469196	0.034229654233
0	8268	81.528693123429	0.013331069447
0	8273	81.542024192876	0.151941714723
0	8278	81.693965907599	0.018796868777
0	8283	81.712762776376	0.041527959344
0	8288	81.75429073572	0.040123001681
0	8294	81.794413737401	0.016497510039
0	8299	81.81091124744	0.090542122201
0	8304	81.901453369641	0.048095570739
0	8310	81.94954894038	0.024579714682
0	8315	81.974128655062	0.090392253823
0	8321	82.064520908885	0.004839994527
0	8323	82.069360903412	0.108421933282
0	8331	82.177782836694	0.026028848781
0	8336	82.203811685475	0.00778848583
0	8341	82.211600171305	0.011115153217
0	8346	82.222715324522	0.002406520163
0	8348	82.225121844685	0.034691100236
0	8356	82.259812944921	0.03454396354
0	8361	82.294356908461	0.02117680248
0	8366	82.315533710941	0.022103263501
0	8371	82.337636974442	0.000205188082
0	8373	82.337842162524	0.273248136171
0	8382	82.611090298695	0.029089596875
0	8387	82.64017989557	0.03411216172
0	8392	82.67429205729	0.018387806244
0	8397	82.692679863534	0.004252011463
0	8399	82.696931874997	0.023810121104
0	8407	82.720741996101	0.001387902092
0	8409	82.722129898193	0.115169198565
0	8418	82.837299096758	0.046457096175
0	8424	82.883756192933	0.108159621782
0	8430	82.991915814715	0.010137491046
0	8435	83.002053305761	0.051836976491
0	8440	83.053890282252	0.159304954352
0	8447	83.213195236604	0.157359455303
0	8454	83.370554691907	0.015722565029
0	8459	83.386277256936	0.078198228465
0	8464	83.464475485401	0.040127443231
0	8469	83.504602928632	0.056558577208
0	8474	83.56116150584	0.019119621998
0	8479	83.580281127838	0.02598498078
0	8484	83.606266108618	0.049648065283
0	8490	83.655914173901	0.025174520385
0	8495	83.681088694286	0.029075313492
0	8500	83.710164007778	0.096238218581
0	8505	83.806402226359	0.076456291123
0	8510	83.882858517482	0.039138221801
0	8516	83.921996739283	0.007022952997
0	8518	83.92901969228	0.004234547336
0	8523	83.933254239616	0.090136754487
0	8531	84.023390994103	0.057610175938
0	8537	84.081001170041	0.09656887379
0	8543	84.177570043831	0.018709436986
0	8548	84.196279480817	0.019963195341
0	8553	84.216242676158	0.005348942989
0	8555	84.221591619147	0.007188849266
0	8560	84.228780468413	0.001238748862
0	8562	84.230019217275	0.050752514769
0	8574	84.280771732044	0.044017817996
0	8579	84.32478955004	0.000788503753
0	8581	84.325578053793	0.016290667989
0	8589	84.341868721782	0.01875708581
0	8594	84.360625807592	0.029130967406
0	8599	84.389756774998	0.000677556355
0	8601	84.390434331353	0.014591560989
0	8607	84.405025892342	0.207970317765
0	8618	84.612996210107	0.039208942411
0	8623	84.652205152518	0.184180791402
0	8629	84.83638594392	0.018415281754
0	8634	84.854801225674	0.058804224487
0	8640	84.913605450161	0.036491083801
0	8645	84.950096533962	0.004529010566
0	8647	84.954625544528	0.123026918343
0	8655	85.077652462871	0.068506826357
0	8660	85.146159289228	0.009996006067
0	8665	85.156155295295	0.085119666799
0	8671	85.241274962094	0.09910848393
0	8676	85.340383446024	0.043208143677
0	8681	85.383591589701	0.168133875272
0	8689	85.551725464973	0.006990066061
0	8691	85.558715531034	0.053269739654
0	8699	85.611985270688	0.001740720452
0	8701	85.61372599114	0.012742806701
0	8706	85.626468797841	0.057734641423
0	8715	85.684203439264	0.039957841877
0	8720	85.724161281141	0.12479055312
0	8727	85.848951834261	0.055922143086
0	8732	85.904873977347	0.013009921451
0	8737	85.917883898798	0.044350222264
0	8742	85.962234121062	0.009737560055
0	8748	85.971971681117	0.053415390835
0	8754	86.025387071952	0.00607116116
0	8756	86.031458233112	0.043001204368
0	8764	86.07445943748	0.015449368148
0	8769	86.089908805628	0.071180318732
0	8774	86.16108912436	0.034740867708
0	8779	86.195829992068	0.054928972946
0	8784	86.250758965014	0.06357998871
0	8791	86.314338953724	0.074717134574
0	8796	86.389056088298	0.003976655129
0	8798	86.393032743427	0.038225491405
0	8806	86.431258234832	0.014859746679
0	8811	86.446117981511	0.016328884748
0	8816	86.462446866259	0.103846990074
0	8823	86.566293856333	0.004235707807
0	8825	86.57052956414	0.014635192019
0	8833	86.585164756159	0.004073292301
0	8835	86.58923804846	0.053412621829
0	8844	86.642650670289	0.018982711446
0	8849	86.661633381735	0.039328349771
0	8855	86.700961731506	0.074908444093
0	8861	86.775870175599	0.009433420796
0	8866	86.785303596395	0.016332806067
0	8871	86.801636402462	0.039262202294
0	8876	86.840898604756	0.013189989152
0	8881	86.854088593908	0.005203625669
0	8883	86.859292219577	0.021024168095
0	8893	86.880316387672	0.129965765666
0	8899	87.010282153338	0.014851435222
0	8904	87.02513358856	0.006961424907
0	8906	87.032095013467	0.084363523498
0	8915	87.116458536965	0.014856657479
0	8920	87.131315194444	0.020718074092
0	8925	87.152033268536	0.069282560331
0	8930	87.221315828867	0.176772196509
0	8937	87.398088025376	0.079100934843
0	8942	87.477188960219	0.038629605494
0	8947	87.515818565713	0.060652550549
0	8952	87.576471116262	0.032573358263
0	8957	87.609044474525	0.030370105151
0	8962	87.639414579676	0.029535745105
0	8967	87.668950324781	0.060386484114
0	8972	87.729336808895	0.051288014653
0	8977	87.780624823548	0.010804436381
0	8982	87.791429259929	0.013299090757
0	8987	87.804728350686	0.09296546298
0	8993	87.897693813666	0.011618799207
0	8998	87.909312612873	0.003721275982
0	9000	87.913033888855	0.006058603156
0	9005	87.919092492011	0.011598367695
0	9010	87.930690859706	0.054057285095
0	9019	87.984748144801	0.045879259179
0	9026	88.03062740398	0.024725078287
0	9031	88.055352482267	0.03296436305
0	9036	88.088316845317	0.088869427107
0	9041	88.177186272424	0.060857355046
0	9046	88.23804362747	0.08570475541
0	9052	88.32374838288	0.049050819468
0	9057	88.372799202348	0.026438537004
0	9062	88.399237739352	0.028835277632
0	9067	88.428073016984	0.006542697551
0	9069	88.434615714535	0.193916164889
0	9077	88.628531879424	0.069844569523
0	9082	88.698376448947	0.026057762417
0	9087	88.724434211364	0.035979325747
0	9092	88.760413537111	0.005754657684
0	9094	88.766168194795	0.000403985681
0	9096	88.766572180476	0.015161930017
0	9106	88.781734110493	0.024980478033
0	9114	88.806714588526	0.003683507165
0	9116	88.810398095691	0.086857372813
0	9124	88.897255468504	0.02120189233
0	9130	88.918457360834	0.043211911781
0	9135	88.961669272615	0.103132715186
0	9141	89.064801987801	0.009613170399
0	9146	89.0744151582	0.074566304538
0	9151	89.148981462738	0.041599085799
0	9156	89.190580548537	0.032403724127
0	9161	89.222984272664	0.016107240572
0	9166	89.239091513236	0.090069016792
0	9171	89.329160530028	0.216881985021
0	9176	89.546042515049	0.040797860083
0	9181	89.586840375132	0.021643414755
0	9186	89.608483789887	0.018347073424
0	9191	89.626830863311	0.003775494711
0	9193	89.630606358022	0.004461192364
0	9198	89.635067550386	0.042113370907
0	9206	89.677180921293	0.015539797506
0	9211	89.692720718799	0.037491288209
0	9216	89.730212007008	0.082771251273
0	9222	89.812983258281	0.118480751885
0	9228	89.931464010166	0.012483336455
0	9233	89.943947346621	0.035267284864
0	9238	89.979214631485	0.038388511296
0	9243	90.017603142781	0.0028545382
0	9245	90.020457680981	0.02260006995
0	9253	90.043057750931	0.091335692766
0	9258	90.134393443697	0.024078310803
0	9263	90.1584717545	0.020234534095
0	9268	90.178706288595	0.044544091989
0	9274	90.223250380584	0.039699756376
0	9279	90.26295013696	0.009854607571
0	9284	90.272804744531	0.017843980056
0	9289	90.290648724587	0.121779843061
0	9294	90.412428567648	0.039104281923
0	9299	90.451532849571	0.129525625947
0	9306	90.581058475518	0.004382017894
0	9308	90.585440493412	0.036935226411
0	9316	90.622375719823	0.014299246053
0	9321	90.636674965876	0.005401239609
0	9324	90.642076205485	0.075651556521
0	9333	90.717727762006	0.031331243708
0	9339	90.749059005714	0.065536068137
0	9344	90.814595073851	0.047504153286
0	9349	90.862099227137	0.057441940442
0	9355	90.919541167579	0.010240644845
0	9360	90.929781812424	0.007360047033
0	9365	90.937141859457	0.020469560166
0	9370	90.957611419623	0.155720641709
0	9377	91.113332061332	0.000278588093
0	9379	91.113610649425	0.02592260497
0	9387	91.139533254395	0.001773975591
0	9389	91.141307229986	0.127498018262
0	9399	91.268805248248	0.000785110362
0	9401	91.26959035861	0.037500643556
0	9409	91.307091002166	0.004174107416
0	9411	91.311265109582	0.007705490156
0	9416	91.318970599738	0.029044746429
0	9424	91.348015346167	0.049135173384
0	9430	91.397150519551	0.113027516974
0	9435	91.510178036525	0.080343770773
0	9440	91.590521807298	0.002318633858
0	9442	91.592840441156	0.083785681879
0	9450	91.676626123035	0.016304383962
0	9455	91.692930506997	0.091089803749
0	9460	91.784020310746	0.066587480647
0	9465	91.850607791393	0.094540182631
0	9472	91.945147974024	0.153440690171
0	9479	92.098588664195	0.039536433131
0	9484	92.138125097326	0.090162377628
0	9489	92.228287474954	0.076037787888
0	9495	92.304325262842	0.020163218107
0	9500	92.324488480949	0.041229359819
0	9505	92.365717840768	6.9254066e-05
0	9507	92.365787094834	0.023086310048
0	9515	92.388873404882	0.116636493592
0	9520	92.505509898474	0.072344043854
0	9525	92.577853942328	0.168872963434
0	9530	92.746726905762	0.000255732023
0	9532	92.746982637785	0.044293519446
0	9542	92.791276157231	0.118392911152
0	9550	92.909669068383	0.063953233991
0	9557	92.973622302374	0.023127542875
0	9562	92.996749845249	0.036113009573
0	9567	93.032862854822	0.054463732271
0	9572	93.087326587093	0.08957642409
0	9577	93.176903011183	0.114308197366
0	9583	93.291211208549	0.019076008014
0	9588	93.310287216563	0.152174623507
0	9595	93.46246184007	0.013951175792
0	9600	93.476413015862	0.04554090468
0	9605	93.521953920542	0.241041042449
0	9613	93.762994962991	0.017005819083
0	9618	93.780000782074	0.008310595714
0	9623	93.788311377788	0.048357555062
0	9629	93.83666893285	0.03326728891
0	9634	93.86993622176	0.016860779429
0	9640	93.886797001189	0.063477892001
0	9645	93.95027489319	0.047928281772
0	9651	93.998203174962	0.014611364543
0	9656	94.012814539505	0.013020943603
0	9661	94.025835483108	0.046895988009
0	9666	94.072731471117	0.048706760794
0	9671	94.121438231911	0.105608533541
0	9677	94.227046765452	0.091054566946
0	9682	94.318101332398	0.005051287094
0	9684	94.323152619492	0.048481772197
0	9692	94.371634391689	0.061657198728
0	9697	94.433291590417	0.02721472531
0	9703	94.460506315727	0.110529136206
0	9709	94.571035451933	0.053560052751
0	9714	94.624595504684	0.128250032499
0	9719	94.752845537183	0.006196869471
0	9721	94.759042406654	0.025254849113
0	9729	94.784297255767	0.042702120451
0	9734	94.826999376218	0.007749826523
0	9739	94.834749202741	0.002357259982
0	9741	94.837106462723	0.036299776594
0	9749	94.873406239317	0.003026188525
0	9751	94.876432427842	0.072189181516
0	9759	94.948621609358	0.018288149162
0	9764	94.96690975852	0.046028729806
0	9769	95.012938488326	0.054754408909
0	9774	95.067692897235	0.005567834657
0	9776	95.073260731892	0.002758174463
0	9781	95.076018906355	0.020526674963
0	9789	95.096545581318	0.181227431782
0	9796	95.2777730131	0.046680855242
0	9801	95.324453868342	0.036117358893
0	9806	95.360571227235	0.01930622959
0	9811	95.379877456825	4.7832002e-05
0	9813	95.379925288827	0.009016828161
0	9818	95.388942116988	0.007539750142
0	9823	95.39648186713	0.012399208665
0	9828	95.408881075795	0.017990839236
0	9836	95.426871915031	0.033120854308
0	9841	95.459992769339	0.036532920779
0	9846	95.496525690118	0.093160575991
0	9852	95.589686266109	0.00043581411
0	9854	95.590122080219	0.066474983961
0	9864	95.65659706418	0.020091037495
0	9869	95.676688101675	0.023702829796
0	9874	95.700390931471	0.021087854203
0	9879	95.721478785674	0.066772435852
0	9884	95.788251221526	0.01952933533
0	9889	95.807780556856	0.290549100791
0	9897	96.098329657647	0.058731729373
0	9902	96.15706138702	0.039300451858
0	9909	96.196361838878	0.004617194072
0	9911	96.20097903295	0.013329721901
0	9919	96.214308754851	0.033860817142
0	9924	96.248169571993	0.05798337531
0	9929	96.306152947303	0.139974780051
0	9934	96.446127727354	0.041792324027
0	9939	96.487920051381	0.091403312149
0	9944	96.57932336353	0.020159439613
0	9949	96.599482803143	0.040188467716
0	9954	96.639671270859	0.011366914465
0	9959	96.651038185324	0.004586799722
0	9961	96.655624985046	0.015308920923
0	9970	96.670933905969	0.006295817502
0	9972	96.677229723471	0.037932882108
0	9980	96.715162605579	0.172067315181
0	9986	96.88722992076	0.020646045342
0	9991	96.907875966102	0.028778197092
0	9996	96.936654163194	0.009467267963
0	10001	96.946121431157	0.138564984885
0	10007	97.084686416042	0.012666338308
0	10012	97.09735275435	0.058404789348
0	10017	97.155757543698	0.022927962025
0	10022	97.178685505723	0.092484076437
0	10029	97.27116958216	0.15360551942
0	10036	97.42477510158	0.125873354111
0	10041	97.550648455691	0.07266872009
0	10047	97.623317175781	0.043435350913
0	10053	97.666752526694	0.005451832373
0	10055	97.672204359067	0.018504469003
0	10063	97.69070882807	0.009972908597
0	10068	97.700681736667	0.04794034788
0	10076	97.748622084547	0.06336243466
0	10082	97.811984519207	0.055224135125
0	10088	97.867208654332	0.044790060719
0	10093	97.911998715051	0.005225629294
0	10095	97.917224344345	0.241140113157
0	10105	98.158364457502	0.085500277497
0	10110	98.243864734999	0.00678356615
0	10112	98.250648301149	0.041407820135
0	10120	98.292056121284	0.132051397335
0	10125	98.424107518619	0.041580257144
0	10130	98.465687775763	0.042440417034
0	10135	98.508128192797	0.069542061743
0	10140	98.57767025454	0.140349846653
0	10145	98.718020101193	0.061906858314
0	10150	98.779926959507	0.196920254226
0	10156	98.976847213733	0.090552637515
0	10162	99.067399851248	0.056379083463
0	10168	99.123778934711	0.268654339507
0	10174	99.392433274218	0.068873767187
0	10180	99.461307041405	0.024411827996
0	10185	99.485718869401	0.233260155523
0	10190	99.718979024924	0.065634419156
0	10196	99.78461344408	0.002233090951
0	10198	99.786846535031	0.016968425324
0	10206	99.803814960355	0.061832526373
0	10212	99.865647486728	0.006001407916
0	10214	99.871648894644	0.048538959366
0	10222	99.92018785401	0.051627776947
0	10227	99.971815630957	0.048256792975
0	10232	100.020072423932	0.026869345745
0	10237	100.046941769677	0.049690407201
0	10242	100.096632176878	0.003453067399
0	10244	100.100085244277	0.004197108537
0	10249	100.104282352814	0.017660710735
0	10258	100.121943063549	0.011718004701
0	10263	100.13366106825	0.090838019459
0	10270	100.224499087709	0.000998284587
0	10273	100.225497372296	0.009112113208
0	10278	100.234609485504	0.020843306966
0	10287	100.25545279247	0.006013995467
0	10290	100.261466787937	0.011497179231
0	10298	100.272963967168	0.010595268471
0	10303	100.283559235639	0.043855614007
0	10308	100.327414849646	0.116173380705
0	10314	100.443588230351	0.020719179972
0	10320	100.464307410323	0.007021485634
0	10322	100.471328895957	0.014134267427
0	10330	100.485463163384	0.041590986102
0	10336	100.527054149486	0.015854653627
0	10341	100.542908803113	0.142302526061
0	10348	100.685211329174	0.048370775499
0	10353	100.733582104673	0.011172084104
0	10358	100.744754188777	0.052961734788
0	10363	100.797715923565	0.000257353933
0	10365	100.797973277498	0.13759516879
0	10375	100.935568446288	0.008698856351
0	10380	100.944267302639	0.000483175048
0	10382	100.944750477687	0.016546912548
0	10390	100.961297390235	0.013521853511
0	10395	100.974819243746	0.007892580417
0	10400	100.982711824163	0.059510127988
0	10405	101.042221952151	0.025074435183
0	10410	101.067296387334	0.141185208021
0	10417	101.208481595355	0.009211723046
0	10422	101.217693318401	0.005043858126
0	10424	101.222737176527	0.005359421178
0	10429	101.228096597705	0.080599733757
0	10437	101.308696331462	0.059462675734
0	10442	101.368159007196	0.155966466997
0	10448	101.524125474193	0.117767358937
0	10455	101.64189283313	0.040275441368
0	10460	101.682168274498	0.004135548381
0	10462	101.686303822879	0.019795583896
0	10470	101.706099406775	0.055400338215
0	10476	101.76149974499	0.008039631711
0	10481	101.769539376701	0.002236072926
0	10483	101.771775449627	0.01374225637
0	10491	101.785517705997	0.056602701389
0	10496	101.842120407386	0.026944504414
0	10501	101.8690649118	0.05084373602
0	10506	101.91990864782	0.019892972382
0	10512	101.939801620202	0.020889379742
0	10517	101.960690999944	0.142822251586
0	10523	102.10351325153	0.006812287903
0	10525	102.110325539433	0.013079893735
0	10533	102.123405433168	0.013923638531
0	10538	102.137329071699	0.006388869784
0	10540	102.143717941483	0.159256925623
0	10549	102.302974867106	0.001662384587
0	10551	102.304637251693	0.02257618648
0	10560	102.327213438173	0.011835508658
0	10565	102.339048946831	0.019735014699
0	10570	102.35878396153	0.024177656041
0	10575	102.382961617571	0.036844952471
0	10580	102.419806570042	0.021281478705
0	10585	102.441088048747	0.000771791704
0	10587	102.441859840451	0.06759758222
0	10595	102.509457422671	0.062082692973
0	10600	102.571540115644	0.01894864748
0	10605	102.590488763124	0.00155980096
0	10607	102.592048564084	0.001812244074
0	10609	102.593860808158	0.04272399714
0	10620	102.636584805298	0.024871514555
0	10625	102.661456319853	0.025254553874
0	10630	102.686710873727	0.025587407361
0	10635	102.712298281088	0.033573488217
0	10640	102.745871769305	0.072363563128
0	10647	102.818235332433	0.073996579881
0	10652	102.892231912314	0.044391226286
0	10657	102.9366231386	0.141355268964
0	10662	103.077978407564	0.048433092022
0	10668	103.126411499586	0.031392110114
0	10673	103.1578036097	0.06080008271
0	10678	103.21860369241	0.038826022967
0	10683	103.257429715377	0.137299284645
0	10688	103.394729000022	0.006349888629
0	10690	103.401078888651	0.084451799339
0	10699	103.48553068799	0.011383880329
0	10704	103.496914568319	0.012365114434
0	10709	103.509279682753	0.000725496067
0	10711	103.51000517882	0.024221921721
0	10720	103.534227100541	0.083323936283
0	10725	103.617551036824	0.152472464124
0	10731	103.770023500948	0.000728320993
0	10733	103.770751821941	0.042853377213
0	10742	103.813605199154	0.012301331082
0	10747	103.825906530236	0.086075269232
0	10753	103.911981799468	0.066907750476
0	10758	103.978889549944	0.019341649982
0	10763	103.998231199926	0.128487695601
0	10769	104.126718895527	0.033129965364
0	10774	104.159848860891	0.00569339296
0	10776	104.165542253851	0.047992264723
0	10784	104.213534518574	0.021396186882
0	10789	104.234930705456	0.015147266877
0	10794	104.250077972333	0.041826670721
0	10799	104.291904643054	0.000125967524
0	10801	104.292030610578	0.136901702236
0	10810	104.428932312814	0.030851314322
0	10815	104.459783627136	0.139768766505
0	10822	104.599552393641	0.003904133753
0	10824	104.603456527394	0.136823802953
0	10833	104.740280330347	0.086495815219
0	10838	104.826776145566	0.052004515874
0	10843	104.87878066144	0.152283773582
0	10849	105.031064435022	0.031785949176
0	10854	105.062850384198	0.022796659316
0	10859	105.085647043514	0.049959899468
0	10864	105.135606942982	0.033966767195
0	10869	105.169573710177	0.047446001476
0	10874	105.217019711653	0.026372797319
0	10879	105.243392508972	0.012770445546
0	10884	105.256162954518	0.079954342818
0	10889	105.336117297336	0.011860185305
0	10894	105.347977482641	0.008143343287
0	10899	105.356120825928	0.115072915496
0	10905	105.471193741424	0.00124186759
0	10907	105.472435609014	0.005937973473
0	10909	105.478373582487	0.019628890872
0	10920	105.498002473359	0.010465703407
0	10925	105.508468176766	0.04713501334
0	10930	105.555603190106	0.083978405851
0	10936	105.639581595957	0.012611560808
0	10941	105.652193156765	0.044136573437
0	10946	105.696329730202	0.024103355635
0	10952	105.720433085837	0.022455660434
0	10957	105.742888746271	0.064158197134
0	10962	105.807046943405	0.008773741329
0	10967	105.815820684734	0.056517397067
0	10974	105.872338081801	0.053260881616
0	10979	105.925598963417	0.047274277551
0	10985	105.972873240968	0.090054445532
0	10991	106.0629276865	0.149102199047
0	11000	106.212029885547	0.019074278631
0	11006	106.231104164178	0.053981645827
0	11011	106.285085810005	0.067894049443
0	11018	106.352979859448	0.027024663245
0	11023	106.380004522693	0.0016146933
0	11025	106.381619215993	0.031593091825
0	11034	106.413212307818	0.059828620157
0	11039	106.473040927975	0.025689134961
0	11044	106.498730062936	0.036085382248
0	11049	106.534815445184	0.024799912519
0	11054	106.559615357703	0.085091555362
0	11059	106.644706913065	0.084808868265
0	11065	106.72951578133	0.037746248582
0	11070	106.767262029912	0.098677240805
0	11075	106.865939270717	0.034497438368
0	11080	106.900436709085	0.014808062532
0	11085	106.915244771617	0.021365453904
0	11090	106.936610225521	0.114163304278
0	11097	107.050773529799	0.081425998559
0	11102	107.132199528358	0.012277538139
0	11107	107.144477066497	0.188922107484
0	11112	107.333399173981	0.028662892788
0	11117	107.362062066769	0.102634531429
0	11122	107.464696598198	0.011210302687
0	11127	107.475906900885	0.021534989313
0	11132	107.497441890198	0.027518762202
0	11137	107.5249606524	0.064604174234
0	11142	107.589564826634	0.085037134845
0	11148	107.674601961479	0.120057575137
0	11155	107.794659536616	0.040398052072
0	11160	107.835057588688	0.023393214654
0	11165	107.858450803342	0.077441927059
0	11170	107.935892730401	0.003863909838
0	11172	107.939756640239	0.009260192989
0	11177	107.949016833228	0.047645650595
0	11185	107.996662483823	0.0549255352
0	11191	108.051588019023	0.001563593059
0	11193	108.053151612082	0.140940551023
0	11202	108.194092163105	0.168015206803
0	11209	108.362107369908	0.087267239801
0	11216	108.449374609709	0.038486161455
0	11221	108.487860771164	0.126920559059
0	11229	108.614781330223	0.041217151183
0	11234	108.655998481406	0.015653766438
0	11240	108.671652247844	0.012638562161
0	11245	108.684290810005	0.016899189259
0	11250	108.701189999264	0.017848250345
0	11255	108.719038249609	0.113704778704
0	11261	108.832743028313	0.140340989734
0	11266	108.973084018047	0.005369211969
0	11268	108.978453230016	0.008760649342
0	11273	108.987213879358	0.031385763254
0	11281	109.018599642612	0.027622152287
0	11286	109.046221794899	0.035456979886
0	11292	109.081678774785	0.002308875742
0	11294	109.083987650527	0.009676825495
0	11299	109.093664476022	0.062973435856
0	11308	109.156637911878	0.149467052722
0	11314	109.3061049646	0.032390083624
0	11319	109.338495048224	0.011509724493
0	11324	109.350004772717	0.046447567205
0	11329	109.396452339922	0.033041716534
0	11334	109.429494056456	0.006324374912
0	11336	109.435818431368	0.112387589842
0	11344	109.54820602121	0.066745717049
0	11349	109.614951738259	0.05439360689
0	11354	109.669345345149	0.213855682722
0	11360	109.883201027871	0.080720757613
0	11365	109.963921785484	0.103904615977
0	11371	110.067826401461	0.063002020553
0	11377	110.130828422014	0.06048939302
0	11382	110.191317815034	0.037542513452
0	11387	110.228860328486	0.009910416919
0	11392	110.238770745405	0.100982719832
0	11399	110.339753465237	0.025011248749
0	11404	110.364764713986	0.023390509868
0	11409	110.388155223854	0.134503367437
0	11414	110.522658591291	0.023233150458
0	11419	110.545891741749	0.045245100752
0	11424	110.591136842501	0.069191812004
0	11429	110.660328654505	0.005376067989
0	11431	110.665704722494	0.112853760964
0	11441	110.778558483458	0.030741026225
0	11446	110.809299509683	0.131257644969
0	11451	110.940557154652	0.024697814817
0	11456	110.965254969469	0.140842829342
0	11461	111.106097798811	0.095988240477
0	11466	111.202086039288	0.082470939623
0	11472	111.284556978911	0.010363542609
0	11477	111.29492052152	0.103239123109
0	11483	111.398159644629	0.06883294566
0	11489	111.466992590289	0.02505474046
0	11494	111.492047330749	0.011535322104
0	11499	111.503582652853	0.119314850101
0	11505	111.622897502954	0.073493102577
0	11510	111.696390605531	0.182810914329
0	11515	111.87920151986	0.004900517636
0	11517	111.884102037496	0.023136789505
0	11525	111.907238827001	0.000694882842
0	11527	111.907933709843	0.004674554225
0	11529	111.912608264068	0.10465468347
0	11540	112.017262947538	0.010410419912
0	11545	112.02767336745	0.131621492869
0	11551	112.159294860319	0.049371452496
0	11557	112.208666312815	0.115730743017
0	11563	112.324397055832	0.034075539861
0	11569	112.358472595693	0.016374093857
0	11574	112.37484668955	0.03050175308
0	11581	112.40534844263	0.008190345066
0	11586	112.413538787696	0.029039732371
0	11591	112.442578520067	0.087372830892
0	11597	112.529951350959	0.085543660097
0	11602	112.615495011056	0.031693563543
0	11607	112.647188574599	0.019903176749
0	11612	112.667091751348	0.029362060863
0	11618	112.696453812211	0.179966218212
0	11625	112.876420030423	0.068312737722
0	11630	112.944732768145	0.037781734535
0	11635	112.98251450268	0.084512120569
0	11641	113.067026623249	0.015404425552
0	11646	113.082431048801	0.019720763341
0	11652	113.102151812142	0.14578133558
0	11657	113.247933147722	0.085791926995
0	11663	113.333725074717	0.019562550063
0	11668	113.35328762478	0.324494260837
0	11676	113.677781885617	0.101812813379
0	11683	113.779594698996	0.016105264761
0	11688	113.795699963757	0.013051054855
0	11693	113.808751018612	0.104334448517
0	11698	113.913085467129	0.023242533347
0	11703	113.936328000476	0.05656633171
0	11708	113.992894332186	0.056775515876
0	11714	114.049669848062	0.145342551847
0	11720	114.195012399909	0.039562073452
0	11725	114.234574473361	0.06905020053
0	11730	114.303624673891	0.029286166475
0	11735	114.332910840366	0.000528049664
0	11737	114.33343889003	0.176282771223
0	11750	114.509721661253	0.007162607031
0	11752	114.516884268284	0.026326153609
0	11761	114.543210421893	0.046273612313
0	11766	114.589484034206	0.014829183685
0	11771	114.604313217891	0.022740020153
0	11776	114.627053238044	0.010816147056
0	11781	114.6378693851	0.004745173378
0	11783	114.642614558478	0.065083083517
0	11791	114.707697641995	0.041284632174
0	11796	114.748982274169	0.039882022128
0	11801	114.788864296297	0.063592891017
0	11806	114.852457187314	0.024428568028
0	11812	114.876885755342	0.001775912566
0	11814	114.878661667908	0.082205753272
0	11822	114.96086742118	0.029915240696
0	11827	114.990782661876	0.058043469516
0	11834	115.048826131392	0.07484278974
0	11839	115.123668921132	0.087792771684
0	11844	115.211461692816	0.102344627327
0	11849	115.313806320143	0.019121124848
0	11854	115.332927444991	0.0003277684
0	11856	115.333255213391	0.104143601595
0	11864	115.437398814986	0.028471190584
0	11870	115.46587000557	0.018065419545
0	11875	115.483935425115	0.008755505492
0	11880	115.492690930607	0.003020621458
[...]
19	25212	238.86139845491	1.0940834906932
19	25320	239.955481945603	0.37620271575991
19	25368	240.331684661363	3.4447694269748
19	25626	243.776454088338	5.5135775213611
19	26316	249.290031609699	0.58059901013446
19	26393	249.870630619833	0.89131740311097
19	26476	250.761948022944	0.050496828216673
19	26487	250.812444851161	1.7802240722498
19	26700	252.592668923411	0.28608003833089
19	26754	252.878748961742	0.40192099151074
19	26786	253.280669953253	0.7847588938073
19	26884	254.06542884706	4.1188624700391
19	27412	258.184291317099	2.8562535474939
19	27719	261.040544864593	2.3321139313126
19	28062	263.372658795906	0.22942556600367
19	28083	263.60208436191	0.64182785868051
19	28191	264.243912220591	3.6010408067263
19	28618	267.844953027317	0.99748862183869
19	28720	268.842441649156	0.78565297459136
19	28789	269.628094623747	3.4040662853114
19	29137	273.032160909058	0.83528470978365
19	29218	273.867445618842	1.6825871866171
19	29405	275.550032805459	3.5193119166659
19	29719	279.069344722125	0.44919607034312
19	29757	279.518540792468	0.327611698438
19	29787	279.846152490906	1.4949357014492
19	29919	281.341088192355	1.2866918807512
19	30079	282.627780073106	3.0259674040159
19	30416	285.653747477122	6.3933163588237
19	31169	292.047063835946	0.76920633254788
19	31271	292.816270168494	0.93702056336766
19	31374	293.753290731862	0.047235759671004
19	31388	293.800526491533	0.2455753836803
19	31431	294.046101875213	2.1865548124147
19	31745	296.232656687628	3.875001032351
19	32258	300.107657719979	3.3811757698846
19	32648	303.488833489864	6.3258634624388
19	33276	309.814696952303	0.10950679040615
19	33298	309.924203742709	1.7412687687915
19	33514	311.6654725115	0.65785574277294
19	33616	312.323328254273	1.2597396399451
19	33753	313.583067894218	4.6597379900655
19	34246	318.242805884284	0.36308125153963
19	34288	318.605887135824	0.11937056550593
19	34303	318.72525770133	0.67975331731455
19	34380	319.405011018645	0.64459392181489
19	34415	320.04960494046	3.9250086116538
19	34769	323.974613552114	1.0683212621126
19	34860	325.042934814227	0.74938611250806
19	34918	325.792320926735	0.30951841272223
19	34981	326.101839339457	5.3160018517144
19	35421	331.417841191171	0.35757109143492
19	35442	331.775412282606	1.1714046321945
19	35605	332.9468169148	0.67218503187421
19	35681	333.619001946674	1.0802793681754
19	35781	334.699281314849	0.27576035460173
19	35805	334.975041669451	3.1747437363383
19	36131	338.149785405789	2.5121085711376
19	36367	340.661893976927	0.052334210050169
19	36373	340.714228186977	1.4289032677268
19	36556	342.143131454704	1.5843806137336
19	36754	343.727512068438	4.2545890770944
19	37237	347.982101145532	0.082680434511397
19	37249	348.064781580043	1.4541997202664
19	37449	349.518981300309	2.5886161309488
19	37710	352.107597431258	0.28113624456213
19	37741	352.38873367582	0.60516301070067
19	37848	352.993896686521	6.4901774542618
19	38618	359.484074140783	6.6051881840825
19	39248	366.089262324866	0.70146174744528
19	39361	366.790724072311	3.792658496697
19	39711	370.583382569008	3.9430116850135
19	40179	374.526394254022	0.4240078876297
19	40214	374.950402141652	1.7975313275818
19	40406	376.747933469234	2.6491048187795
19	40689	379.397038288013	0.41023945571679
19	40741	379.80727774373	4.2094106046411
19	41185	384.016688348371	0.95372482253199
19	41256	384.970413170903	0.80961212396646
19	41301	385.780025294869	1.1433161342178
19	41455	386.923341429087	4.4125925075591
19	41845	391.335933936646	0.1922973157336
19	41852	391.52823125238	1.4313631516724
19	42036	392.959594404052	0.62559673920819
19	42119	393.58519114326	0.022855390996078
19	42120	393.608046534256	4.0182159347576
19	42595	397.626262469014	3.0285091569389
20	1239	12.617384473732	1.7104734794369
20	1398	14.327857953169	3.8583776971263
20	1739	18.186235650295	0.61477346262415
20	1816	18.801009112919	0.012249267357688
20	1817	18.813258380277	1.0084366899387
20	1930	19.821695070216	0.95113158998144
20	2044	20.772826660197	6.320992989896
20	2764	27.093819650093	3.6575470748502
20	3182	30.751366724943	0.60171099103562
20	3224	31.353077715979	1.4392005860892
20	3350	32.792278302068	3.5150047309759
20	3719	36.307283033044	5.3307049201451
20	4302	41.637987953189	1.2973786103417
20	4367	42.935366563531	0.39361236947654
20	4396	43.328978933008	1.544956592172
20	4590	44.87393552518	0.78802874313122
20	4689	45.661964268311	2.4546251595383
20	4979	48.116589427849	0.97034124712372
20	5041	49.086930674973	0.72281218332823
20	5112	49.809742858301	1.3142837942182
20	5240	51.124026652519	1.2990735783384
20	5361	52.423100230857	4.3742907051808
20	5720	56.797390936038	2.7173702328057
20	6047	59.514761168844	1.0730745148272
20	6126	60.587835683671	2.5938473800039
20	6431	63.181683063675	0.37267022101949
20	6457	63.554353284694	0.12575393938865
20	6465	63.680107224083	5.5179738138766
20	7030	69.19808103796	2.8268437934334
20	7326	72.024924831393	0.64091310020855
20	7370	72.665837931602	2.2690433047612
20	7579	74.934881236363	0.52242284967286
20	7639	75.457304086036	0.73574069704411
20	7718	76.19304478308	1.6794974238336
20	7865	77.872542206914	6.2675160868604
20	8542	84.140058293774	1.690445497626
20	8726	85.8305037914	6.2002640793598
20	9478	92.03076787076	2.1611207027784
20	9676	94.191888573538	1.3064953732491
20	9848	95.498383946787	5.3563550446301
20	10374	100.854738991417	2.9380563396193
20	10741	103.792795331036	5.2600514975267
20	11288	109.052846828563	3.4765895193194
20	11596	112.529436347882	3.3199132886676
20	11914	115.84934963655	1.385114820173
20	12092	117.234464456723	3.6489071544137
20	12466	120.883371611137	4.6497998717208
20	13015	125.533171482858	2.8871313858231
20	13290	128.420302868681	5.6467851661617
20	13952	134.067088034843	1.4996867541988
20	14078	135.566774789042	0.33727115822113
20	14098	135.904045947263	1.6623949621611
20	14326	137.566440909424	1.4768632875316
20	14472	139.043304196956	1.3835139089481
20	14630	140.426818105904	1.1977853738452
20	14780	141.624603479749	4.1698573469735
20	15262	145.794460826723	0.012533449445762
20	15263	145.806994276169	1.5059138867235
20	15449	147.312908162892	8.8323781802592
20	16438	156.145286343151	0.21291301704242
20	16458	156.358199360193	1.9862377209178
20	16678	158.344437081111	1.6779571537502
20	16889	160.022394234861	1.0277106812952
20	17015	161.050104916156	1.374202122324
20	17185	162.42430703848	0.36213204768337
20	17222	162.786439086163	0.81078940915794
20	17362	163.597228495321	0.75593926893086
20	17413	164.353167764252	0.66139863364097
20	17496	165.014566397893	0.84734088147847
20	17590	165.861907279371	1.9675863350488
20	17819	167.82949361442	4.9449673301882
20	18346	172.774460944608	2.7479496246855
20	18586	175.522410569293	0.62849294578837
20	18655	176.150903515081	9.1038219028759
20	19688	185.254725417957	2.7292363003246
20	19977	187.983961718282	1.5599854827097
20	20116	189.543947200992	0.27013230248074
20	20155	189.814079503473	0.31387006990923
20	20194	190.127949573382	4.501128041875
20	20666	194.629077615257	2.4534815084817
20	21008	197.082559123739	2.0487559466521
20	21210	199.131315070391	1.2783882653425
20	21336	200.409703335733	0.33609767569501
20	21387	200.745801011428	3.7418618962972
20	21766	204.487662907725	2.1345203860587
20	21955	206.622183293784	3.4686955913209
20	22362	210.090878885105	1.8165608830471
20	22538	211.907439768152	0.60640033636681
20	22600	212.513840104519	1.5234879411087
20	22768	214.037328045628	4.9872868217904
20	23228	219.024614867418	2.4946002975333
20	23519	221.519215164951	1.1200010242509
20	23626	222.639216189202	1.1675147130857
20	23753	223.806730902288	0.54627707167563
20	23792	224.353007973964	2.5695864595147
20	23992	226.922594433479	0.25238651840456
20	24021	227.174980951884	0.25876202722619
20	24054	227.43374297911	5.4953479552701
20	24533	232.92909093438	1.0871325973156
20	24641	234.016223531696	0.31715541734112
20	24690	234.333378949037	0.76309487373025
20	24793	235.096473822767	0.1068083196067
20	24815	235.203282142374	6.1915461177796
20	25434	241.394828260154	0.61920734194869
20	25495	242.014035602103	4.7476675955174
20	25977	246.76170319762	0.72079820689402
20	26087	247.482501404514	0.49831619795871
20	26124	247.980817602473	0.78738668470196
20	26256	248.768204287175	0.30580705981513
20	26277	249.07401134699	1.8312598210795
20	26495	250.905271168069	5.6566893249317
20	27202	256.561960493001	1.1338718067626
20	27349	257.695832299764	1.4021087546719
20	27512	259.097941054436	1.6919886491275
20	27704	260.789929703563	6.7715841499008
20	28607	267.561513853464	3.9144630143841
20	28975	271.475976867848	3.6548564913581
20	29342	275.130833359206	0.63763077867596
20	29414	275.768464137882	0.21778728733739
20	29431	275.986251425219	0.55638434147032
20	29464	276.542635766689	1.8486519741752
20	29639	278.391287740864	1.877675377902
20	29821	280.268963118766	5.0779771898218
20	30379	285.346940308588	1.1549513235128
20	30501	286.501891632101	0.096937739072917
20	30502	286.598829371174	1.4362391723535
20	30688	288.035068543528	5.8207910153138
20	31393	293.855859558842	3.3934412967185
20	31902	297.24930085556	0.10108021119064
20	31917	297.350381066751	0.51963573802095
20	31979	297.870016804772	2.3055935838845
20	32264	300.175610388656	0.87870902663153
20	32338	301.054319415288	0.038916814406903
20	32345	301.093236229695	0.70903047222551
20	32456	301.802266701921	0.093111925298526
20	32479	301.89537862722	0.2171814423258
20	32494	302.112560069546	2.2445388563458
20	32747	304.357098925892	3.5094615543573
20	33063	307.866560480249	1.1634396341304
20	33185	309.030000114379	2.4043654671827
20	33486	311.434365581562	1.6565353621302
20	33683	313.090900943692	4.0968856771473
20	34131	317.187786620839	0.59284881832794
20	34185	317.780635439167	1.5347223147678
20	34374	319.315357753935	0.79032594212061
20	34416	320.105683696056	0.21337499238807
20	34433	320.319058688444	0.2597839193019
20	34444	320.578842607746	1.3842557602358
20	34577	321.963098367982	0.79690260236257
20	34664	322.760000970345	0.49934181793357
20	34719	323.259342788279	0.87377795275693
20	34785	324.133120741036	2.3145010930772
20	35006	326.447621834113	0.6782040605735
20	35062	327.125825894686	5.6400776215515
20	35582	332.765903516238	1.1318712833035
20	35712	333.897774799541	0.96713173278841
20	35802	334.864906532329	0.066094533750113
20	35803	334.931001066079	0.7610957176106
20	35867	335.69209678369	1.7059050489667
20	36068	337.398001832657	10.615474576605
20	37245	348.013476409262	2.6447453496227
20	37579	350.658221758885	0.053932483085627
20	37598	350.712154241971	4.8435902129171
20	38105	355.555744454888	0.88400112570039
20	38227	356.439745580588	1.7888324246634
20	38447	358.228578005251	2.074586298666
20	38711	360.303164303917	0.097525210308474
20	38713	360.400689514225	0.17313927641608
20	38741	360.573828790641	0.73514639168283
20	38791	361.308975182324	0.58597839019583
20	38853	361.89495357252	0.98736654904827
20	38957	362.882320121568	1.1723832722449
20	39058	364.054703393813	0.82118598118541
20	39163	364.875889374998	4.6150485844643
20	39644	369.490937959462	3.4445462009974
20	39928	372.935484160459	8.5150151223415
20	40923	381.450499282801	3.4480330534297
20	41247	384.898532336231	0.70834613144324
20	41285	385.606878467674	0.61473250842041
20	41373	386.221610976094	1.7930512057324
20	41545	388.014662181826	2.5464864983836
20	41763	390.56114868021	1.1235556932795
20	41863	391.684704373489	0.22330468503923
20	41896	391.908009058528	2.5110610058866
20	42190	394.419070064415	2.2404940739709
20	42495	396.659564138386	5.7461474495287
21	1271	12.864931230216	0.1236412677001
21	1279	12.988572497916	3.3832866442312
21	1564	16.371859142147	4.938548736474
21	2095	21.310407878621	0.43526363157643
21	2143	21.745671510197	1.2795065585231
21	2279	23.02517806872	0.049749025588108
21	2280	23.074927094308	3.3728257991422
21	2699	26.44775289345	3.835132495372
21	3133	30.282885388822	1.5493837760449
21	3269	31.832269164867	4.3256645027651
21	3712	36.157933667632	1.8684857572238
21	3907	38.026419424856	5.1722350016958
21	4390	43.198654426552	2.6807463160366
21	4711	45.879400742589	3.6686792168507
21	5094	49.54807995944	4.5481248369294
21	5485	54.096204796369	3.303420215673
21	5784	57.399625012042	2.6855096682731
21	6092	60.085134680315	0.34902535225032
21	6120	60.434160032565	0.7580738634668
21	6185	61.192233896032	1.0826338946041
21	6329	62.274867790636	0.30150692602109
21	6349	62.576374716657	0.73306291573954
21	6432	63.309437632397	0.15919184800066
21	6453	63.468629480398	0.38837690513293
21	6501	63.857006385531	0.25891160858434
21	6536	64.115917994115	0.9902884171812
21	6604	65.106206411296	0.24339020988258
21	6629	65.349596621179	2.2398786577244
21	6828	67.589475278903	1.1527004097564
21	6954	68.742175688659	6.466434678101
21	7614	75.20861036676	0.49894387542576
21	7657	75.707554242186	1.9231455499907
21	7856	77.630699792177	0.035984037604736
21	7857	77.666683829782	0.3680790832244
21	7879	78.034762913006	3.1781565654144
21	8234	81.21291947842	1.2220496845938
21	8381	82.434969163014	0.43250489298483
21	8423	82.867474055999	4.4294778913361
21	8936	87.296951947335	1.664738586438
21	9137	88.961690533773	1.2434299992762
21	9273	90.205120533049	2.6721718791433
21	9549	92.877292412192	0.090146461353067
21	9555	92.967438873545	3.0314900103056
21	9896	95.998928883851	1.2483789275307
21	10027	97.247307811382	0.031127278261258
21	10031	97.278435089643	4.3199996174807
21	10454	101.598434707124	6.6177519689649
21	11207	108.216186676089	0.14865509750009
21	11211	108.364841773589	10.543829835563
21	12272	118.908671609152	3.2430351968661
21	12620	122.151706806018	0.7572538784537
21	12698	122.908960684472	5.2304546504253
21	13268	128.139415334897	0.36988339017203
21	13303	128.509298725069	0.27030164803062
21	13335	128.7796003731	2.0415819928137
21	13541	130.821182365914	0.55478906408938
21	13633	131.375971430003	1.5676269887789
21	13806	132.943598418782	0.57562694476728
21	13893	133.519225363549	0.5081769313085
21	13943	134.027402294858	4.1476154701284
21	14391	138.175017764986	2.3116302555468
21	14631	140.486648020533	0.057372984683449
21	14647	140.544021005216	2.7552495891879
21	14959	143.299270594404	0.73179474295172
21	15034	144.031065337356	1.3699284309192
21	15222	145.400993768275	0.17699668067689
21	15229	145.577990448952	1.0254037344854
21	15359	146.603394183437	0.061876765741074
21	15378	146.665270949178	0.68440138120403
21	15451	147.349672330382	10.959148085205
21	16677	158.308820415587	5.8808814284037
21	17391	164.189701843991	0.34716206658547
21	17443	164.536863910576	1.8135279854225
21	17644	166.350391895999	3.4328254723503
21	18008	169.783217368349	2.266537064194
21	18262	172.049754432543	1.2001420097915
21	18390	173.249896442334	2.2243864025244
21	18585	175.474282844858	2.8131522522758
21	18940	178.287435097134	0.51618740512028
21	19001	178.803622502254	0.62702836287209
21	19057	179.430650865126	9.153400134368
21	20039	188.584050999494	0.97941210429517
21	20120	189.563463103789	1.8100374581797
21	20348	191.373500561969	2.5048501347418
21	20617	193.878350696711	1.0088081779389
21	20692	194.88715887465	1.2340522587282
21	20852	196.121211133378	0.24825491312481
21	20914	196.369466046503	2.4848140959998
21	21167	198.854280142503	0.58348540629882
21	21237	199.437765548802	0.88547551855015
21	21331	200.323241067352	0.4935015600262
21	21398	200.816742627378	0.37684784664079
21	21457	201.193590474019	0.98413137752405
21	21534	202.177721851543	0.53219921637705
21	21595	202.70992106792	0.54700311536621
21	21629	203.256924183286	2.3700339057628
21	21879	205.626958089049	0.86674443982162
21	21948	206.493702528871	0.051113429390155
21	21949	206.544815958261	3.8054346089649
21	22399	210.350250567226	0.29993294270709
21	22437	210.650183509933	1.5722049251073
21	22574	212.22238843504	0.31532174708088
21	22601	212.537710182121	0.68869692311068
21	22659	213.226407105232	4.5652886498616
21	23089	217.791695755094	1.5233982653401
21	23263	219.315094020434	2.5897094875858
21	23550	221.90480350802	1.6467153708169
21	23726	223.551518878837	1.9199127287831
21	23907	225.47143160762	2.7552326931747
21	24130	228.226664300795	1.8517588696078
21	24282	230.078423170403	1.4142087149103
21	24389	231.492631885313	3.1210021894778
21	24731	234.613634074791	2.7441103080061
21	25037	237.357744382797	0.75531557424782
21	25120	238.113059957045	0.50404234969752
21	25160	238.617102306743	0.17276133084332
21	25205	238.789863637586	0.76737612494972
21	25277	239.557239762536	1.116445837539
21	25410	240.673685600075	2.3406885161519
21	25554	243.014374116227	2.3331061534068
21	25783	245.347480269634	1.79768822933
21	26035	247.145168498964	0.1889077889606
21	26070	247.334076287925	1.3654020171336
21	26236	248.699478305059	0.48495141706563
21	26290	249.184429722125	5.9770828799346
21	27026	255.16151260206	0.54962923900504
21	27095	255.711141841065	0.36327010919102
21	27129	256.074411950256	1.1834275776566
21	27288	257.257839527913	1.3506166058525
21	27461	258.608456133765	3.8567955118021
21	27961	262.465251645567	1.2904544537423
21	28118	263.755706099309	0.93952347481377
21	28252	264.695229574123	0.30933625829032
21	28295	265.004565832413	0.41916878236044
21	28363	265.423734614773	0.21940414235035
21	28384	265.643138757123	3.9522633808197
21	28781	269.595402137943	0.094060242966162
21	28793	269.689462380909	1.7678985244885
21	28974	271.457360905397	6.3771493358427
21	29591	277.83451024124	0.67993319610392
21	29645	278.514443437344	4.1154879522886
21	30080	282.629931389633	0.64055858130538
21	30154	283.270489970938	0.28746517778332
21	30187	283.557955148721	1.7243220543424
21	30368	285.282277203063	0.76437438180212
21	30447	286.046651584865	0.01561527318771
21	30454	286.062266858053	1.2604738912289
21	30566	287.322740749282	0.43899668239624
21	30645	287.761737431678	2.2928879540224
21	30968	290.0546253857	0.24562043814154
21	31001	290.300245823842	1.1023291148568
21	31081	291.402574938699	2.6750418458684
21	31434	294.077616784567	1.4070219737504
21	31654	295.484638758317	0.20505055251304
21	31675	295.68968931083	0.18861417618631
21	31686	295.878303487016	0.89981946225484
21	31813	296.778122949271	0.48378845659669
21	31904	297.261911405868	0.71981788207517
21	31996	297.981729287943	1.561465782224
21	32202	299.543195070167	1.0754684553627
21	32301	300.61866352553	2.6803036729382
21	32625	303.298967198468	4.411509894595
21	33034	307.710477093063	0.052631541583816
21	33041	307.763108634647	1.2019264696752
21	33183	308.965035104322	0.52204796583075
21	33249	309.487083070153	0.84847448585263
21	33369	310.335557556006	0.56437774274982
21	33436	310.899935298756	0.63392370920202
21	33507	311.533859007958	3.9062157721635
21	33951	315.440074780122	5.3574436497288
21	34476	320.797518429851	0.31500295832595
21	34508	321.112521388177	5.5610735211264
21	35025	326.673594909303	0.099114144518793
21	35032	326.772709053822	2.7453111839914
21	35262	329.518020237813	8.5319537801466
21	36123	338.04997401796	1.0410718901613
21	36221	339.091045908121	5.558276263209
21	36838	344.64932217133	4.0246057324787
21	37328	348.673927903809	1.2465763551797
21	37500	349.920504258989	3.3826099522767
21	37875	353.303114211266	2.9553860395453
21	38221	356.258500250811	2.9977545905021
21	38586	359.256254841313	1.3678615426142
21	38742	360.624116383927	1.6054746231414
21	38883	362.229591007068	1.3132339017931
21	39024	363.542824908861	1.3172602189365
21	39161	364.860085127798	2.5938956839337
21	39416	367.453980811732	1.5103099295021
21	39600	368.964290741234	5.4100198812677
21	40155	374.374310622502	2.7870368065905
21	40467	377.161347429092	1.5318655849657
21	40639	378.693213014058	1.1798293400381
21	40743	379.873042354096	3.3153457285038
21	41087	383.1883880826	0.11931315035146
21	41099	383.307701232951	0.14816530220604
21	41116	383.455866535157	1.3203812366034
21	41240	384.77624777176	0.50390499232863
21	41267	385.280152764089	3.3107147581062
21	41574	388.590867522195	0.82418201519346
21	41656	389.415049537388	0.32793317937802
21	41689	389.742982716766	0.91844045343922
21	41764	390.661423170205	5.030666176011
21	42365	395.692089346216	0.02746393918481
21	42366	395.719553285401	6.467137064778

