file 9687478 1614185315                                         
version 2
run Nonmonitoring-exponential-46-20210224-17:48:33-26574
attr configname Nonmonitoring-exponential
attr datetime 20210224-17:48:33
attr experiment Nonmonitoring-exponential
attr inifile aerocom.ini
attr iterationvars $0=9
attr iterationvarsf 9-
attr measurement $0=9
attr network Aerocom
attr processid 26574
attr repetition 46
attr replication #46
attr resultdir results
attr runnumber 46
attr seedset 46
param **.t 2s
param **.k 9ms
param **.X 0.05s
param **.m 1s
param **.tDistribution "\"exponential\""
param **.operationMode 1
param **.s "70 byte"
param **.dimPoolMax 10000
param **.dimPoolMin 8000
param **.nDL 16
param **.nA 1
param **.DLMaxCapacity 0
param **.trasmitting false

vector 0 Aerocom.aircraft[0].linkSelector responseTime:vector ETV
attr "" ""
attr source computeResponseTime
vector 1 Aerocom.aircraft[0].linkSelector waitingTime:vector ETV
attr "" ""
attr source computeWaitingTime
vector 2 Aerocom.aircraft[0].linkSelector queueLength:vector ETV
attr "" ""
attr source computeQueueLength
vector 3 Aerocom.aircraft[0].dataLink[12] actualCapacity:vector ETV
attr "" ""
attr source computeActualCapacity
vector 4 Aerocom.aircraft[0].linkSelector serviceTime:vector ETV
attr "" ""
attr source computeServiceTime
vector 5 Aerocom.aircraft[0].packetGenerator arrivalTime:vector ETV
attr "" ""
attr source computeArrivalTime
vector 6 Aerocom.aircraft[0].dataLink[0] tDistribution:vector ETV
attr "" ""
attr source computeTDistribution
vector 7 Aerocom.aircraft[0].dataLink[6] tDistribution:vector ETV
attr "" ""
attr source computeTDistribution
vector 8 Aerocom.aircraft[0].dataLink[12] tDistribution:vector ETV
attr "" ""
attr source computeTDistribution
vector 9 Aerocom.aircraft[0].dataLink[3] tDistribution:vector ETV
attr "" ""
attr source computeTDistribution
vector 10 Aerocom.aircraft[0].dataLink[4] tDistribution:vector ETV
attr "" ""
attr source computeTDistribution
vector 11 Aerocom.aircraft[0].dataLink[7] tDistribution:vector ETV
attr "" ""
attr source computeTDistribution
vector 12 Aerocom.aircraft[0].dataLink[9] tDistribution:vector ETV
attr "" ""
attr source computeTDistribution
vector 13 Aerocom.aircraft[0].dataLink[15] tDistribution:vector ETV
attr "" ""
attr source computeTDistribution
vector 14 Aerocom.aircraft[0].dataLink[1] tDistribution:vector ETV
attr "" ""
attr source computeTDistribution
vector 15 Aerocom.aircraft[0].dataLink[13] tDistribution:vector ETV
attr "" ""
attr source computeTDistribution
vector 16 Aerocom.aircraft[0].dataLink[8] tDistribution:vector ETV
attr "" ""
attr source computeTDistribution
vector 17 Aerocom.aircraft[0].dataLink[2] tDistribution:vector ETV
attr "" ""
attr source computeTDistribution
vector 18 Aerocom.aircraft[0].dataLink[11] tDistribution:vector ETV
attr "" ""
attr source computeTDistribution
vector 19 Aerocom.aircraft[0].dataLink[5] tDistribution:vector ETV
attr "" ""
attr source computeTDistribution
vector 20 Aerocom.aircraft[0].dataLink[14] tDistribution:vector ETV
attr "" ""
attr source computeTDistribution
vector 21 Aerocom.aircraft[0].dataLink[10] tDistribution:vector ETV
attr "" ""
attr source computeTDistribution
0	3128 1306440 5327 171542 10.007948295115 305.037304223821 32768 0.007007708479 0.329123023985 1426.5842997636 132.04190263576
1	1309568 1253565 5327 171542 10.007948295115 305.037304223821 32768 0 0.321392488369 1169.3835707673 111.20824144959
2	2563133 888205 5327 171542 10.007948295115 305.037304223821 32768 0 40 131321 1538861
3	3451338 982461 5327 171542 10.007948295115 305.037304223821 32768 8001 9989 293011085 2626780239183
4	4433799 1436882 5327 171542 10.007948295115 305.037304223821 32768 0.0070077084793273 0.0087489063867017 257.17154875211 2.0235148905002
5	5870681 1306007 5330 171561 10.009027883703 305.072076760537 32768 3.09694e-07 0.084098837472 295.0727073204 5.3253876672209
0	7176688 432257 171545 225282 305.045489443653 399.999349674132 10600 0.007010515774 0.212406982678 415.76034404852 28.81271432161
1	7608945 416291 171549 225282 305.052742665916 399.999349674132 10600 0 0.204062722337 332.07022973517 22.817376858376
2	8025236 296560 171549 225282 305.052742665916 399.999349674132 10600 0 24 36748 308260
3	8321796 327432 171549 225282 305.052742665916 399.999349674132 10600 8092 9989 94175201 838862160927
4	8649228 474555 171549 225282 305.052742665916 399.999349674132 10600 0.0070077084793273 0.0086505190311419 83.730308336375 0.66305958889036
5	9123783 432318 171566 225276 305.081735204101 399.984211118261 10606 1.345168e-06 0.096636814398 94.927886678956 1.7047634683343
6	9556101 7454 5358 224383 10.059933318428 398.434499023636 179 0.00045415606600958 16.765179118316 392.16947134114 1834.0132563854
7	9563555 8859 5392 225042 10.143072447223 399.578397462255 213 0.0029149341823343 15.009005616211 389.91924331121 1580.9678322793
8	9572414 7965 5485 225281 10.320302542788 399.997732607023 192 0.019777992133815 15.835263314929 389.90825854562 1607.4081088327
9	9580379 8943 5510 224839 10.360855892899 399.163831320788 215 0.00026847081914928 9.1279128694607 391.23107770427 1246.1372146581
10	9589322 7440 5581 225052 10.495958941202 399.596035402998 175 0.030972589570388 13.014892077784 389.56325882642 1710.7221395675
11	9596762 8168 5637 224435 10.583434933504 398.516068028984 192 0.023222659612092 9.2125674705988 390.15716072638 1464.7048004831
12	9604930 8825 5741 224316 10.752914689347 398.350674900322 207 0.0031210257830189 12.782584473709 389.81424466474 1392.3964170866
13	9613755 7805 5753 224980 10.782807459413 399.472364594073 184 0.036684360700566 10.368450149093 389.29726769721 1593.4586189119
14	9621560 8208 5822 223546 10.90213386215 396.887958372369 193 0.0012019171430584 9.9438073514821 391.71516699684 1476.2898704637
15	9629768 8124 6249 224701 11.581187837553 398.935314258858 191 0.020984376439017 9.4672767203105 388.99804398562 1413.6505509397
16	9637892 8740 6348 223707 11.734073339327 397.185288599983 205 0.0033745939781817 8.9810677253261 388.75100795013 1403.5511334595
17	9646632 8487 6507 225099 11.995568230288 399.678985151775 199 0.012250502382177 27.806087234133 390.60351777531 1992.5673050399
18	9655119 7150 7031 225118 12.911883076459 399.709220197994 168 0.0057489620043092 11.442429241444 387.7404553795 1681.40045891
19	9662269 7956 7982 221994 14.409101636495 394.050122900234 187 0.020185327917304 11.234885180688 390.11525704366 1662.5444156483
20	9670225 8116 8057 224099 14.532726291263 397.955972612822 191 0.0009412922010094 12.649401160041 386.40360390858 1534.8936494461
21	9678341 9136 8270 223531 14.892132401685 396.861132575679 215 0.015205568904897 9.9562688692756 385.53644886046 1356.7619077012

