version 2
run Nonmonitoring-exponential-588-20210224-17:49:34-27103
attr configname Nonmonitoring-exponential
attr datetime 20210224-17:49:34
attr experiment Nonmonitoring-exponential
attr inifile aerocom.ini
attr iterationvars $0=50
attr iterationvarsf 50-
attr measurement $0=50
attr network Aerocom
attr processid 27103
attr repetition 88
attr replication #88
attr resultdir results
attr runnumber 588
attr seedset 88
param **.t 2s
param **.k 50ms
param **.X 0.05s
param **.m 1s
param **.tDistribution "\"exponential\""
param **.operationMode 1
param **.s "70 byte"
param **.dimPoolMax 10000
param **.dimPoolMin 8000
param **.nDL 16
param **.nA 1
param **.DLMaxCapacity 0
param **.trasmitting false

vector 0 Aerocom.aircraft[0].packetGenerator arrivalTime:vector ETV
attr "" ""
attr source computeArrivalTime
vector 1 Aerocom.aircraft[0].linkSelector waitingTime:vector ETV
attr "" ""
attr source computeWaitingTime
vector 2 Aerocom.aircraft[0].linkSelector queueLength:vector ETV
attr "" ""
attr source computeQueueLength
vector 3 Aerocom.aircraft[0].dataLink[10] actualCapacity:vector ETV
attr "" ""
attr source computeActualCapacity
vector 4 Aerocom.aircraft[0].linkSelector serviceTime:vector ETV
attr "" ""
attr source computeServiceTime
vector 5 Aerocom.aircraft[0].linkSelector responseTime:vector ETV
attr "" ""
attr source computeResponseTime
vector 6 Aerocom.aircraft[0].dataLink[5] tDistribution:vector ETV
attr "" ""
attr source computeTDistribution
vector 7 Aerocom.aircraft[0].dataLink[14] tDistribution:vector ETV
attr "" ""
attr source computeTDistribution
vector 8 Aerocom.aircraft[0].dataLink[8] tDistribution:vector ETV
attr "" ""
attr source computeTDistribution
vector 9 Aerocom.aircraft[0].dataLink[3] tDistribution:vector ETV
attr "" ""
attr source computeTDistribution
vector 10 Aerocom.aircraft[0].dataLink[13] tDistribution:vector ETV
attr "" ""
attr source computeTDistribution
vector 11 Aerocom.aircraft[0].dataLink[2] tDistribution:vector ETV
attr "" ""
attr source computeTDistribution
vector 12 Aerocom.aircraft[0].dataLink[6] tDistribution:vector ETV
attr "" ""
attr source computeTDistribution
vector 13 Aerocom.aircraft[0].dataLink[9] tDistribution:vector ETV
attr "" ""
attr source computeTDistribution
vector 14 Aerocom.aircraft[0].dataLink[11] tDistribution:vector ETV
attr "" ""
attr source computeTDistribution
vector 15 Aerocom.aircraft[0].dataLink[15] tDistribution:vector ETV
attr "" ""
attr source computeTDistribution
vector 16 Aerocom.aircraft[0].dataLink[1] tDistribution:vector ETV
attr "" ""
attr source computeTDistribution
vector 17 Aerocom.aircraft[0].dataLink[0] tDistribution:vector ETV
attr "" ""
attr source computeTDistribution
vector 18 Aerocom.aircraft[0].dataLink[4] tDistribution:vector ETV
attr "" ""
attr source computeTDistribution
vector 19 Aerocom.aircraft[0].dataLink[10] tDistribution:vector ETV
attr "" ""
attr source computeTDistribution
vector 20 Aerocom.aircraft[0].dataLink[7] tDistribution:vector ETV
attr "" ""
attr source computeTDistribution
vector 21 Aerocom.aircraft[0].dataLink[12] tDistribution:vector ETV
attr "" ""
attr source computeTDistribution
0	1086	10.057414260695	0.070909365269
0	1091	10.128323625964	0.033225924733
0	1096	10.161549550697	0.022376035846
0	1101	10.183925586543	0.402216620134
0	1110	10.586142206677	0.005823250446
0	1112	10.591965457123	0.106987597509
0	1121	10.698953054632	0.018990951686
0	1127	10.717944006318	0.143246803788
0	1132	10.861190810106	0.022628311133
0	1138	10.883819121239	0.004761882662
0	1140	10.888581003901	0.152706313395
0	1150	11.041287317296	0.000748449377
0	1152	11.042035766673	0.191172489535
0	1162	11.233208256208	0.121396134487
0	1167	11.354604390695	0.03815467593
0	1172	11.392759066625	0.003281202773
0	1174	11.396040269398	0.011269311585
0	1179	11.407309580983	0.040777100298
0	1189	11.448086681281	0.036901514033
0	1194	11.484988195314	0.086481162302
0	1199	11.571469357616	0.023445888264
0	1204	11.59491524588	0.009592255686
0	1209	11.604507501566	0.028875179062
0	1214	11.633382680628	0.030325767861
0	1219	11.663708448489	0.022628039349
0	1224	11.686336487838	0.077091242615
0	1231	11.763427730453	0.10845375126
0	1236	11.871881481713	0.035428257813
0	1241	11.907309739526	0.064860019266
0	1246	11.972169758792	0.029391988079
0	1251	12.001561746871	0.069858192501
0	1256	12.071419939372	0.02265594783
0	1261	12.094075887202	0.00695216133
0	1263	12.101028048532	0.091907805696
0	1271	12.192935854228	0.019910123365
0	1276	12.212845977593	0.030177772664
0	1281	12.243023750257	0.007643930768
0	1286	12.250667681025	0.024526062951
0	1291	12.275193743976	0.010862066368
0	1296	12.286055810344	0.004369567295
0	1299	12.290425377639	0.023115660771
0	1307	12.31354103841	0.003759446741
0	1309	12.317300485151	0.160586779701
0	1317	12.477887264852	0.0869514776
0	1323	12.564838742452	0.011209848741
0	1328	12.576048591193	0.213736136454
0	1335	12.789784727647	0.009458545095
0	1340	12.799243272742	0.21082810283
0	1346	13.010071375572	0.000681055745
0	1348	13.010752431317	0.003789283496
0	1350	13.014541714813	0.086783677915
0	1363	13.101325392728	0.094823704378
0	1370	13.196149097106	0.0398997935
0	1375	13.236048890606	0.019877375069
0	1381	13.255926265675	0.025647004546
0	1386	13.281573270221	0.094554797449
0	1392	13.37612806767	0.041826961996
0	1397	13.417955029666	0.032141096635
0	1402	13.450096126301	0.120948327163
0	1407	13.571044453464	0.045321095635
0	1414	13.616365549099	0.04037290038
0	1419	13.656738449479	0.176690888445
0	1428	13.833429337924	0.015406640668
0	1433	13.848835978592	0.029409938117
0	1438	13.878245916709	0.046439877271
0	1443	13.92468579398	0.189742825019
0	1450	14.114428618999	0.069280035621
0	1455	14.18370865462	0.007138627037
0	1457	14.190847281657	0.005285833065
0	1462	14.196133114722	0.002855159557
0	1464	14.198988274279	0.016208591355
0	1472	14.215196865634	0.040514732459
0	1480	14.255711598093	0.003024924878
0	1482	14.258736522971	0.059413543418
0	1490	14.318150066389	0.045375616109
0	1495	14.363525682498	0.019865246489
0	1500	14.383390928987	0.038968657281
0	1505	14.422359586268	0.007590061971
0	1507	14.429949648239	0.076796531826
0	1516	14.506746180065	0.096763372255
0	1522	14.60350955232	0.014562110202
0	1527	14.618071662522	0.037080314612
0	1532	14.655151977134	0.074121346148
0	1537	14.729273323282	0.073385814518
0	1543	14.8026591378	0.020933454877
0	1548	14.823592592677	0.003324413508
0	1550	14.826917006185	0.048301193974
0	1558	14.875218200159	0.003051954341
0	1560	14.8782701545	0.00287589742
0	1562	14.88114605192	0.025759995877
0	1573	14.906906047797	0.072648845949
0	1578	14.979554893746	0.046747782573
0	1584	15.026302676319	0.012324278074
0	1589	15.038626954393	0.019608449745
0	1594	15.058235404138	0.024377076812
0	1599	15.08261248095	0.031719310441
0	1604	15.114331791391	0.11036576747
0	1609	15.224697558861	0.013778365997
0	1614	15.238475924858	0.036287782296
0	1619	15.274763707154	0.039670452739
0	1624	15.314434159893	0.020804923883
0	1629	15.335239083776	0.029109118983
0	1634	15.364348202759	0.003498853326
0	1636	15.367847056085	0.040569484487
0	1644	15.408416540572	0.103436846625
0	1650	15.511853387197	0.012930905818
0	1655	15.524784293015	0.039254312937
0	1660	15.564038605952	0.033716120612
0	1665	15.597754726564	0.013484825214
0	1670	15.611239551778	0.005012809674
0	1672	15.616252361452	0.032725108961
0	1682	15.648977470413	0.019186577706
0	1687	15.668164048119	0.001212777086
0	1689	15.669376825205	0.0728717906
0	1698	15.742248615805	0.05166386126
0	1704	15.793912477065	0.107753461566
0	1710	15.901665938631	0.071155865225
0	1715	15.972821803856	0.069906818057
0	1720	16.042728621913	0.100316454683
0	1726	16.143045076596	0.041873874921
0	1731	16.184918951517	0.014845468167
0	1736	16.199764419684	0.049324044918
0	1742	16.249088464602	0.136447492709
0	1749	16.385535957311	0.088215343579
0	1754	16.47375130089	0.043916738425
0	1759	16.517668039315	0.146779902674
0	1764	16.664447941989	0.021578694874
0	1769	16.686026636863	0.056305411832
0	1774	16.742332048695	0.00816584197
0	1776	16.750497890665	0.026455315226
0	1784	16.776953205891	0.011283754469
0	1789	16.78823696036	0.019690494998
0	1794	16.807927455358	0.007122974305
0	1796	16.815050429663	0.064125350972
0	1804	16.879175780635	0.011912093001
0	1809	16.891087873636	0.149774918286
0	1816	17.040862791922	0.033270621774
0	1822	17.074133413696	0.004970877135
0	1824	17.079104290831	0.127477090183
0	1832	17.206581381014	0.060546493059
0	1838	17.267127874073	0.009859666293
0	1843	17.276987540366	0.099442650475
0	1849	17.376430190841	0.040000739233
0	1854	17.416430930074	0.201449924891
0	1859	17.617880854965	0.007336982059
0	1861	17.625217837024	0.030462417405
0	1869	17.655680254429	0.009425480279
0	1874	17.665105734708	0.088878388521
0	1880	17.753984123229	0.075099003196
0	1886	17.829083126425	0.005966001362
0	1888	17.835049127787	0.058477440561
0	1898	17.893526568348	0.040466831598
0	1904	17.933993399946	0.026141964999
0	1909	17.960135364945	0.090058963556
0	1916	18.050194328501	0.027776121279
0	1922	18.07797044978	0.075053895311
0	1927	18.153024345091	0.023117429716
0	1932	18.176141774807	0.002593634316
0	1934	18.178735409123	0.04316981667
0	1942	18.221905225793	0.117010443667
0	1949	18.33891566946	0.007602866993
0	1951	18.346518536453	0.010334214732
0	1959	18.356852751185	0.0027096432
0	1961	18.359562394385	0.087070861507
0	1970	18.446633255892	0.002722039729
0	1972	18.449355295621	0.050053911972
0	1980	18.499409207593	0.0643357327
0	1985	18.563744940293	0.037957050508
0	1990	18.601701990801	0.088603289625
0	1995	18.690305280426	0.034231107578
0	2001	18.724536388004	0.095242177955
0	2007	18.819778565959	0.093207452929
0	2013	18.912986018888	0.049349243054
0	2018	18.962335261942	0.049959037336
0	2023	19.012294299278	0.033499373339
0	2028	19.045793672617	0.001924419447
0	2030	19.047718092064	0.037157666106
0	2038	19.08487575817	0.035985903149
0	2043	19.120861661319	0.040490399659
0	2048	19.161352060978	0.023763618364
0	2053	19.185115679342	0.020588113318
0	2058	19.20570379266	0.025615527083
0	2063	19.231319319743	0.12041311059
0	2070	19.351732430333	0.071737825994
0	2076	19.423470256327	0.135034786821
0	2081	19.558505043148	0.023958709391
0	2086	19.582463752539	0.036298770198
0	2091	19.618762522737	0.003617783682
0	2093	19.622380306419	0.034296484969
0	2101	19.656676791388	0.036556222747
0	2106	19.693233014135	0.06170290775
0	2112	19.754935921885	0.013020863292
0	2117	19.767956785177	0.067322150908
0	2123	19.835278936085	0.032315575482
0	2128	19.867594511567	0.013387391975
0	2133	19.880981903542	0.023414059907
0	2138	19.904395963449	0.003883927476
0	2140	19.908279890925	0.005203023766
0	2145	19.913482914691	0.077752280061
0	2154	19.991235194752	0.018035615198
0	2159	20.00927080995	0.041760849349
0	2165	20.051031659299	0.043894080138
0	2171	20.094925739437	0.155490821862
0	2177	20.250416561299	0.000499876375
0	2179	20.250916437674	0.010024449784
0	2184	20.260940887458	0.006924193984
0	2189	20.267865081442	0.029510266419
0	2197	20.297375347861	0.027265939756
0	2203	20.324641287617	0.070592355838
0	2208	20.395233643455	0.090927157234
0	2213	20.486160800689	0.001187254562
0	2215	20.487348055251	0.075255593065
0	2223	20.562603648316	0.037011391675
0	2228	20.599615039991	0.037088609206
0	2233	20.636703649197	0.049448396522
0	2239	20.686152045719	0.032952390214
0	2245	20.719104435933	0.139160289214
0	2252	20.858264725147	0.017551715421
0	2257	20.875816440568	0.030588923818
0	2262	20.906405364386	0.062141951253
0	2267	20.968547315639	0.098464549311
0	2272	21.06701186495	0.021324160955
0	2277	21.088336025905	0.003052381762
0	2279	21.091388407667	0.102651417944
0	2288	21.194039825611	0.055414591561
0	2293	21.249454417172	0.040067542703
0	2298	21.289521959875	0.075698652338
0	2303	21.365220612213	0.059646620369
0	2309	21.424867232582	0.01988591519
0	2314	21.444753147772	0.068712016404
0	2319	21.513465164176	0.079809164776
0	2324	21.593274328952	0.031862167257
0	2329	21.625136496209	0.003359725187
0	2331	21.628496221396	0.018353429866
0	2339	21.646849651262	0.05553583818
0	2345	21.702385489442	0.02534485069
0	2350	21.727730340132	0.01405719779
0	2355	21.741787537922	0.012635759203
0	2360	21.754423297125	0.04268452011
0	2365	21.797107817235	0.003432545257
0	2367	21.800540362492	0.090034632083
0	2375	21.890574994575	0.052889810686
0	2380	21.943464805261	0.10588843622
0	2385	22.049353241481	0.040598167384
0	2390	22.089951408865	0.065889746944
0	2396	22.155841155809	0.037599651213
0	2401	22.193440807022	0.006348003003
0	2403	22.199788810025	0.072392106017
0	2411	22.272180916042	0.023341787829
0	2416	22.295522703871	0.019101408701
0	2421	22.314624112572	0.01143539026
0	2427	22.326059502832	0.191504340041
0	2435	22.517563842873	0.049206181525
0	2440	22.566770024398	0.093389156532
0	2446	22.66015918093	0.071104783785
0	2454	22.731263964715	0.008161741624
0	2456	22.739425706339	0.075962243916
0	2464	22.815387950255	0.002540004677
0	2466	22.817927954932	0.107000576267
0	2475	22.924928531199	0.016065503323
0	2480	22.940994034522	0.004841039103
0	2482	22.945835073625	0.027103200568
0	2490	22.972938274193	0.137807514353
0	2499	23.110745788546	0.095755625403
0	2507	23.206501413949	0.058079951739
0	2514	23.264581365688	0.013388105657
0	2520	23.277969471345	0.000837199125
0	2522	23.27880667047	0.018408321403
0	2530	23.297214991873	0.063247617652
0	2535	23.360462609525	0.075789379911
0	2540	23.436251989436	0.066608127927
0	2546	23.502860117363	0.000431659299
0	2548	23.503291776662	0.053652212107
0	2556	23.556943988769	0.033608814685
0	2561	23.590552803454	0.041106285604
0	2566	23.631659089058	0.046146024362
0	2571	23.67780511342	0.125223321263
0	2577	23.803028434683	0.063795233337
0	2582	23.86682366802	0.063586949507
0	2587	23.930410617527	0.066952058203
0	2593	23.99736267573	0.003486207476
0	2595	24.000848883206	0.017222839672
0	2603	24.018071722878	0.020986701815
0	2608	24.039058424693	0.024297968188
0	2613	24.063356392881	0.010024660385
0	2618	24.073381053266	0.066463138622
0	2626	24.139844191888	0.047871450072
0	2631	24.18771564196	0.158705651717
0	2637	24.346421293677	0.018712565595
0	2642	24.365133859272	0.000573212375
0	2644	24.365707071647	0.000414634229
0	2646	24.366121705876	0.073654909188
0	2658	24.439776615064	0.156070849846
0	2663	24.59584746491	0.034417920436
0	2668	24.630265385346	0.034073871855
0	2673	24.664339257201	0.114000348816
0	2678	24.778339606017	0.08564452747
0	2684	24.863984133487	0.045549122173
0	2689	24.90953325566	0.031107055371
0	2695	24.940640311031	0.020703447651
0	2700	24.961343758682	0.008868838604
0	2705	24.970212597286	0.00502054658
0	2707	24.975233143866	0.090553601564
0	2716	25.06578674543	0.321922145578
0	2723	25.387708891008	0.012884176793
0	2728	25.400593067801	0.129746016791
0	2733	25.530339084592	0.023228832167
0	2738	25.553567916759	0.129974310945
0	2744	25.683542227704	0.034376121488
0	2749	25.717918349192	0.071643648204
0	2755	25.789561997396	0.068886846128
0	2760	25.858448843524	0.026249118123
0	2765	25.884697961647	0.011354045369
0	2770	25.896052007016	0.114777185507
0	2775	26.010829192523	0.062426003267
0	2781	26.07325519579	0.015042207412
0	2786	26.088297403202	0.025131180408
0	2791	26.11342858361	0.023699511107
0	2796	26.137128094717	0.038432833677
0	2801	26.175560928394	0.023522519865
0	2806	26.199083448259	0.119625386329
0	2813	26.318708834588	0.016981153813
0	2818	26.335689988401	0.04489608187
0	2823	26.380586070271	0.063384100998
0	2828	26.443970171269	0.028982027905
0	2833	26.472952199174	0.05562130837
0	2838	26.528573507544	0.002349524478
0	2840	26.530923032022	0.008757503552
0	2845	26.539680535574	0.174837609686
0	2854	26.71451814526	0.064178570343
0	2859	26.778696715603	0.106499791894
0	2867	26.885196507497	0.171031941153
0	2876	27.05622844865	0.046602746865
0	2882	27.102831195515	0.05842478501
0	2887	27.161255980525	0.078027998092
0	2892	27.239283978617	0.035487713418
0	2897	27.274771692035	0.007063046218
0	2899	27.281834738253	0.005869883805
0	2904	27.287704622058	0.166850374956
0	2913	27.454554997014	0.051952754007
0	2919	27.506507751021	0.016570860955
0	2924	27.523078611976	0.045241283763
0	2929	27.568319895739	0.10310427886
0	2935	27.671424174599	0.034936097609
0	2940	27.706360272208	0.041727923174
0	2945	27.748088195382	0.026704077516
0	2950	27.774792272898	0.094649791219
0	2956	27.869442064117	0.08304923714
0	2961	27.952491301257	0.003274782772
0	2963	27.955766084029	0.005378305844
0	2968	27.961144389873	0.073117335798
0	2976	28.034261725671	0.009761825918
0	2981	28.044023551589	0.11760795664
0	2987	28.161631508229	0.066600415331
0	2993	28.22823192356	0.010319368148
0	2998	28.238551291708	0.028095476216
0	3003	28.266646767924	0.029421774277
0	3009	28.296068542201	0.011999886732
0	3014	28.308068428933	0.106564622629
0	3019	28.414633051562	0.04042555068
0	3024	28.455058602242	0.017807516214
0	3029	28.472866118456	0.042894711527
0	3035	28.515760829983	0.00687357219
0	3037	28.522634402173	0.099623651145
0	3045	28.622258053318	0.041069242507
0	3051	28.663327295825	0.130161091996
0	3058	28.793488387821	0.070050029862
0	3063	28.863538417683	0.005504078287
0	3065	28.86904249597	0.005495794021
0	3070	28.874538289991	0.135374223035
0	3078	29.009912513026	0.012506950916
0	3083	29.022419463942	0.025165150869
0	3088	29.047584614811	0.18150327173
0	3096	29.229087886541	0.054817164796
0	3101	29.283905051337	0.009277904438
0	3106	29.293182955775	0.022011895261
0	3112	29.315194851036	0.008239335753
0	3117	29.323434186789	0.019856483282
0	3122	29.343290670071	0.057400536085
0	3127	29.400691206156	0.018633934308
0	3134	29.419325140464	0.015405652534
0	3140	29.434730792998	0.060178601348
0	3145	29.494909394346	0.013798978684
0	3150	29.50870837303	0.075953579673
0	3156	29.584661952703	0.06840791786
0	3161	29.653069870563	0.059745467435
0	3167	29.712815337998	0.004260200401
0	3169	29.717075538399	0.012810954676
0	3178	29.729886493075	0.080750267378
0	3184	29.810636760453	0.059841405475
0	3189	29.870478165928	0.012917773676
0	3194	29.883395939604	0.179424686595
0	3202	30.062820626199	0.037187784238
0	3208	30.100008410437	0.023236522418
0	3213	30.123244932855	0.035925652555
0	3221	30.15917058541	0.050564525692
0	3228	30.209735111102	0.071616023402
0	3233	30.281351134504	0.028729828019
0	3238	30.310080962523	0.001194748893
0	3240	30.311275711416	0.044350754559
0	3248	30.355626465975	0.129985820995
0	3257	30.48561228697	0.005125344564
0	3259	30.490737631534	0.214126126502
0	3268	30.704863758036	0.035288793164
0	3273	30.7401525512	0.041166873062
0	3279	30.781319424262	0.017983569339
0	3284	30.799302993601	0.094860021198
0	3290	30.894163014799	0.006541274945
0	3292	30.900704289744	0.021148686095
0	3300	30.921852975839	0.062303154953
0	3306	30.984156130792	0.169447905805
0	3314	31.153604036597	0.043512768828
0	3319	31.197116805425	0.086831891873
0	3326	31.283948697298	0.012610237293
0	3331	31.296558934591	0.043954996171
0	3337	31.340513930762	0.102287848139
0	3343	31.442801778901	0.043215933287
0	3348	31.486017712188	0.040448226345
0	3353	31.526465938533	0.087254192049
0	3359	31.613720130582	0.075430934856
0	3364	31.689151065438	0.010867497261
0	3369	31.700018562699	0.105551545128
0	3374	31.805570107827	0.108416421176
0	3379	31.913986529003	0.005587959781
0	3381	31.919574488784	0.067228153332
0	3389	31.986802642116	0.053451478331
0	3394	32.040254120447	0.091538928501
0	3400	32.131793048948	0.012566700132
0	3405	32.14435974908	0.165792022585
0	3411	32.310151771665	0.029344785516
0	3417	32.339496557181	0.051268870259
0	3422	32.39076542744	0.041355191416
0	3428	32.432120618856	0.026993070292
0	3433	32.459113689148	0.012293463772
0	3438	32.47140715292	0.062373945589
0	3444	32.533781098509	0.030017628618
0	3450	32.563798727127	0.004101612165
0	3452	32.567900339292	0.034016801818
0	3460	32.60191714111	0.020629090027
0	3465	32.622546231137	0.149653113695
0	3470	32.772199344832	0.005231974188
0	3472	32.77743131902	0.100336862041
0	3480	32.877768181061	0.078493195916
0	3485	32.956261376977	0.1649114752
0	3492	33.121172852177	0.041757691091
0	3497	33.162930543268	0.029846780201
0	3502	33.192777323469	0.004492249031
0	3504	33.1972695725	0.017101435193
0	3512	33.214371007693	0.024350697264
0	3517	33.238721704957	0.053444139692
0	3522	33.292165844649	0.208048097151
0	3527	33.5002139418	0.001386101836
0	3529	33.501600043636	0.014753032907
0	3537	33.516353076543	0.00378042479
0	3539	33.520133501333	0.105643868703
0	3548	33.625777370036	0.061428452142
0	3553	33.687205822178	0.013091220832
0	3559	33.70029704301	0.151663266442
0	3567	33.851960309452	0.00649853785
0	3569	33.858458847302	0.039604219127
0	3577	33.898063066429	0.025079726864
0	3584	33.923142793293	0.005974071839
0	3586	33.929116865132	0.058681088154
0	3595	33.987797953286	0.054955655573
0	3601	34.042753608859	0.09374601372
0	3608	34.136499622579	0.008466837515
0	3613	34.144966460094	0.035687748871
0	3618	34.180654208965	0.19906397766
0	3625	34.379718186625	0.002648650961
0	3627	34.382366837586	0.026631761793
0	3635	34.408998599379	0.0688100445
0	3641	34.477808643879	0.01382287908
0	3646	34.491631522959	0.001780529706
0	3648	34.493412052665	0.044800929364
0	3656	34.538212982029	0.097405728653
0	3662	34.635618710682	0.068757816994
0	3667	34.704376527676	0.024826632416
0	3672	34.729203160092	0.138582965718
0	3677	34.86778612581	0.046360844342
0	3683	34.914146970152	0.041182359987
0	3688	34.955329330139	0.026712737752
0	3693	34.982042067891	0.006687349561
0	3695	34.988729417452	0.002711619284
0	3700	34.991441036736	0.01878776665
0	3709	35.010228803386	0.087902071711
0	3715	35.098130875097	0.010295249078
0	3720	35.108426124175	0.194642428287
0	3727	35.303068552462	0.002693368599
0	3729	35.305761921061	0.049989626803
0	3737	35.355751547864	0.04664452841
0	3742	35.402396076274	0.023696968435
0	3747	35.426093044709	0.117689123425
0	3752	35.543782168134	0.013544410215
0	3757	35.557326578349	0.059536317033
0	3763	35.616862895382	0.041657969948
0	3768	35.65852086533	0.003193292462
0	3770	35.661714157792	0.096640906293
0	3778	35.758355064085	0.205443298773
0	3783	35.963798362858	0.058328307426
0	3790	36.022126670284	0.024266616389
0	3795	36.046393286673	0.024544486635
0	3800	36.070937773308	0.049206254501
0	3806	36.120144027809	0.048019043742
0	3811	36.168163071551	0.064725447082
0	3816	36.232888518633	0.061952563944
0	3823	36.294841082577	0.000157091287
0	3825	36.294998173864	0.034159890561
0	3834	36.329158064425	0.012020856626
0	3839	36.341178921051	0.012278219664
0	3844	36.353457140715	0.082491137258
0	3849	36.435948277973	0.044746355029
0	3854	36.480694633002	0.036526452302
0	3859	36.517221085304	0.041103128849
0	3864	36.558324214153	0.040658348852
0	3870	36.598982563005	0.029651243451
0	3875	36.628633806456	0.046789516679
0	3880	36.675423323135	0.032867194144
0	3885	36.708290517279	0.046680307887
0	3890	36.754970825166	0.200469582913
0	3895	36.955440408079	0.010514464659
0	3900	36.965954872738	0.014881628498
0	3905	36.980836501236	0.058522990176
0	3911	37.039359491412	0.068300934523
0	3917	37.107660425935	0.068280195121
0	3922	37.175940621056	0.026120729834
0	3927	37.20206135089	0.013142887868
0	3932	37.215204238758	0.035036331479
0	3938	37.250240570237	0.051989609561
0	3944	37.302230179798	0.02235284161
0	3949	37.324583021408	0.101498735052
0	3954	37.42608175646	0.272630268919
0	3959	37.698712025379	0.004509387306
0	3961	37.703221412685	0.078151721042
0	3969	37.781373133727	0.033082224266
0	3974	37.814455357993	0.065465959101
0	3979	37.879921317094	0.017941204967
0	3984	37.897862522061	0.012802367341
0	3989	37.910664889402	0.109176379435
0	3995	38.019841268837	0.028568645377
0	4001	38.048409914214	0.054243379569
0	4006	38.102653293783	0.013973754522
0	4011	38.116627048305	0.005186189766
0	4013	38.121813238071	0.188157315882
0	4024	38.309970553953	0.017324859509
0	4029	38.327295413462	0.134929889293
0	4036	38.462225302755	0.06814076162
0	4043	38.530366064375	0.045316893827
0	4048	38.575682958202	0.049242807989
0	4053	38.624925766191	0.007836982709
0	4058	38.6327627489	0.023156765998
0	4063	38.655919514898	0.090875285042
0	4069	38.74679479994	0.004166373058
0	4071	38.750961172998	0.002462300334
0	4073	38.753423473332	0.016257612667
0	4081	38.769681085999	0.01831942704
0	4090	38.788000513039	0.117606034842
0	4095	38.905606547881	0.177497916864
0	4101	39.083104464745	0.044919875983
0	4106	39.128024340728	0.014892240342
0	4111	39.14291658107	0.031078416447
0	4116	39.173994997517	0.028468892723
0	4121	39.20246389024	0.067598740426
0	4126	39.270062630666	0.029068145451
0	4131	39.299130776117	0.050789157313
0	4136	39.34991993343	0.029878698483
0	4141	39.379798631913	0.031452656797
0	4146	39.41125128871	0.022337084467
0	4151	39.433588373177	0.049039602834
0	4157	39.482627976011	0.003188738611
0	4159	39.485816714622	0.020013813906
0	4167	39.505830528528	0.038240699858
0	4173	39.544071228386	0.00423194609
0	4175	39.548303174476	0.108005541021
0	4184	39.656308715497	0.049590995283
0	4190	39.70589971078	0.005677059615
0	4192	39.711576770395	0.035709184322
0	4200	39.747285954717	0.109537663044
0	4207	39.856823617761	0.065011220516
0	4213	39.921834838277	0.053357435457
0	4218	39.975192273734	0.194596992736
0	4224	40.16978926647	0.006559828167
0	4226	40.176349094637	0.027911307249
0	4234	40.204260401886	0.027279808101
0	4239	40.231540209987	0.071298971138
0	4244	40.302839181125	0.006887325289
0	4246	40.309726506414	0.096398758429
0	4254	40.406125264843	0.034618087636
0	4259	40.440743352479	0.042387348476
0	4264	40.483130700955	0.255434373776
0	4270	40.738565074731	0.170470435264
0	4277	40.909035509995	0.011681713423
0	4282	40.920717223418	0.147124434532
0	4287	41.06784165795	0.063900094424
0	4293	41.131741752374	0.091120600328
0	4298	41.222862352702	0.08326307285
0	4304	41.306125425552	0.039690162589
0	4310	41.345815588141	0.006605944404
0	4312	41.352421532545	0.001598953927
0	4317	41.354020486472	0.043462317998
0	4326	41.39748280447	0.046727317851
0	4331	41.444210122321	0.067326259826
0	4336	41.511536382147	0.055746269972
0	4342	41.567282652119	0.030251594199
0	4347	41.597534246318	0.030967957789
0	4352	41.628502204107	0.000430595748
0	4354	41.628932799855	0.043514528161
0	4362	41.672447328016	0.044758665099
0	4367	41.717205993115	0.054224748854
0	4372	41.771430741969	0.032206305535
0	4377	41.803637047504	0.033813861876
0	4384	41.83745090938	0.015190843148
0	4389	41.852641752528	0.071955427025
0	4394	41.924597179553	0.060702106564
0	4399	41.985299286117	0.005386084581
0	4401	41.990685370698	0.060804315525
0	4409	42.051489686223	0.033573780944
0	4415	42.085063467167	0.021272694744
0	4420	42.106336161911	0.008397923547
0	4425	42.114734085458	0.00062260516
0	4427	42.115356690618	0.003070543569
0	4429	42.118427234187	0.009474564066
0	4434	42.127901798253	0.029457206831
0	4445	42.157359005084	0.074918998506
0	4451	42.23227800359	0.054718993741
0	4456	42.286996997331	0.012811840736
0	4461	42.299808838067	0.067243434873
0	4466	42.36705227294	0.008680317038
0	4471	42.375732589978	0.055910930024
0	4477	42.431643520002	0.085715581929
0	4483	42.517359101931	0.168646636199
0	4488	42.68600573813	0.00440213453
0	4490	42.69040787266	0.079529898412
0	4498	42.769937771072	0.003814462493
0	4500	42.773752233565	0.013456641809
0	4508	42.787208875374	0.028077450488
0	4513	42.815286325862	0.116666366374
0	4519	42.931952692236	0.068581136055
0	4524	43.000533828291	0.058288156719
0	4529	43.05882198501	0.020806667067
0	4535	43.079628652077	0.021772678663
0	4541	43.10140133074	0.043875165067
0	4546	43.145276495807	0.077112578146
0	4552	43.222389073953	0.006470534846
0	4554	43.228859608799	0.015660953374
0	4563	43.244520562173	0.007592976548
0	4568	43.252113538721	0.073510801853
0	4573	43.325624340574	0.262506300689
0	4580	43.588130641263	0.052410260962
0	4585	43.640540902225	0.040022147963
0	4590	43.680563050188	0.000470301026
0	4592	43.681033351214	0.031143109296
0	4600	43.71217646051	0.070775009577
0	4607	43.782951470087	0.004956531775
0	4609	43.787908001862	0.046349773274
0	4617	43.834257775136	0.010364716402
0	4622	43.844622491538	0.058927240544
0	4627	43.903549732082	0.001289262823
0	4629	43.904838994905	0.002812827408
0	4631	43.907651822313	0.004212044542
0	4636	43.911863866855	0.017454745398
0	4644	43.929318612253	0.05585350869
0	4653	43.985172120943	0.143880071208
0	4658	44.129052192151	0.153255709083
0	4664	44.282307901234	0.052057587624
0	4670	44.334365488858	0.162885536553
0	4677	44.497251025411	0.019517232597
0	4682	44.516768258008	0.082799981576
0	4687	44.599568239584	0.066675551266
0	4692	44.66624379085	0.096775102028
0	4698	44.763018892878	0.00954695073
0	4703	44.772565843608	0.059816362682
0	4709	44.83238220629	0.037590673051
0	4714	44.869972879341	0.018360396529
0	4719	44.88833327587	0.016704738766
0	4724	44.905038014636	0.006809180147
0	4726	44.911847194783	0.078201125408
0	4734	44.990048320191	0.13183278285
0	4740	45.121881103041	0.015402698545
0	4745	45.137283801586	0.01668290455
0	4750	45.153966706136	0.025693188977
0	4755	45.179659895113	0.246163690009
0	4764	45.425823585122	0.013745841839
0	4769	45.439569426961	0.126646327011
0	4778	45.566215753972	0.155375027805
0	4783	45.721590781777	0.013792888329
0	4788	45.735383670106	0.00697481614
0	4790	45.742358486246	0.036494291011
0	4798	45.778852777257	0.088633228323
0	4804	45.86748600558	0.031897105203
0	4810	45.899383110783	0.003183682792
0	4812	45.902566793575	0.234054826572
0	4821	46.136621620147	0.009753296447
0	4826	46.146374916594	0.007912247305
0	4831	46.154287163899	0.005428953205
0	4833	46.159716117104	0.062326512523
0	4841	46.222042629627	0.017898249915
0	4846	46.239940879542	0.013571073806
0	4851	46.253511953348	0.016951888425
0	4856	46.270463841773	0.145264092299
0	4861	46.415727934072	0.030884650529
0	4867	46.446612584601	0.065460549736
0	4872	46.512073134337	0.0502342717
0	4878	46.562307406037	0.006782465007
0	4880	46.569089871044	0.02049143837
0	4888	46.589581309414	0.049447343081
0	4893	46.639028652495	0.053263781065
0	4898	46.69229243356	0.006235633809
0	4900	46.698528067369	0.147861789218
0	4908	46.846389856587	0.009753266211
0	4913	46.856143122798	0.055282459511
0	4918	46.911425582309	0.018844760862
0	4923	46.930270343171	0.042244619267
0	4928	46.972514962438	0.149410731487
0	4936	47.121925693925	0.052286626849
0	4941	47.174212320774	0.00988308803
0	4947	47.184095408804	0.07456613499
0	4952	47.258661543794	0.003799975011
0	4954	47.262461518805	0.029092998471
0	4962	47.291554517276	0.016306072971
0	4967	47.307860590247	0.037375832488
0	4972	47.345236422735	0.045766043839
0	4977	47.391002466574	0.087241428816
0	4983	47.47824389539	0.00106068352
0	4985	47.47930457891	0.037598714765
0	4994	47.516903293675	0.078010567582
0	4999	47.594913861257	0.014262649566
0	5005	47.609176510823	0.036860358704
0	5011	47.646036869527	0.043879049519
0	5018	47.689915919046	0.053864488898
0	5024	47.743780407944	0.01786006675
0	5029	47.761640474694	0.128437867878
0	5035	47.890078342572	0.004451792919
0	5037	47.894530135491	0.07753482825
0	5045	47.972064963741	0.071664178329
0	5050	48.04372914207	0.124565061925
0	5057	48.168294203995	0.034531179415
0	5062	48.20282538341	0.00877753009
0	5067	48.2116029135	0.001821055053
0	5069	48.213423968553	0.041221157069
0	5077	48.254645125622	0.035973101409
0	5082	48.290618227031	0.042554142112
0	5087	48.333172369143	0.073256385181
0	5093	48.406428754324	0.039990489534
0	5099	48.446419243858	0.005832797855
0	5101	48.452252041713	0.022128518768
0	5109	48.474380560481	0.065980507118
0	5114	48.540361067599	0.035894542053
0	5119	48.576255609652	0.188555264997
0	5126	48.764810874649	0.124050674419
0	5131	48.888861549068	0.038868001429
0	5136	48.927729550497	0.043200487034
0	5141	48.970930037531	0.059590767204
0	5146	49.030520804735	0.082300024973
0	5151	49.112820829708	0.041342862251
0	5157	49.154163691959	0.099755537393
0	5163	49.253919229352	0.027379450163
0	5168	49.281298679515	0.031449750125
0	5173	49.31274842964	0.031481872871
0	5179	49.344230302511	0.033247523561
0	5184	49.377477826072	0.124644015071
0	5190	49.502121841143	0.025122042026
0	5195	49.527243883169	0.054870551207
0	5201	49.582114434376	0.010387563479
0	5206	49.592501997855	0.019445707105
0	5211	49.61194770496	0.019468556535
0	5217	49.631416261495	0.009798994843
0	5222	49.641215256338	0.006293522729
0	5224	49.647508779067	0.120360541311
0	5233	49.767869320378	0.01848958777
0	5239	49.786358908148	0.039957810502
0	5244	49.82631671865	0.081927489212
0	5252	49.908244207862	0.155787162731
0	5258	50.064031370593	0.003430126691
0	5260	50.067461497284	0.129686224184
0	5269	50.197147721468	0.019323045027
0	5274	50.216470766495	0.032003139531
0	5279	50.248473906026	0.164827365685
0	5285	50.413301271711	0.047341812198
0	5291	50.460643083909	0.088153895575
0	5297	50.548796979484	0.13013582717
0	5303	50.678932806654	0.018352704286
0	5308	50.69728551094	0.085418922543
0	5315	50.782704433483	0.134495610604
0	5320	50.917200044087	0.036486803237
0	5326	50.953686847324	0.018731849781
0	5332	50.972418697105	0.057049554514
0	5337	51.029468251619	0.002400613452
0	5339	51.031868865071	0.108596595852
0	5348	51.140465460923	0.069957750096
0	5353	51.210423211019	0.07554350473
0	5359	51.285966715749	0.082206286891
0	5365	51.36817300264	0.023608789735
0	5370	51.391781792375	0.042253433905
0	5375	51.43403522628	0.005068504219
0	5377	51.439103730499	0.064597957435
0	5386	51.503701687934	0.006254001345
0	5388	51.509955689279	0.030492516545
0	5396	51.540448205824	0.058388115112
0	5403	51.598836320936	0.044585156581
0	5408	51.643421477517	0.003184230076
0	5410	51.646605707593	0.046604125115
0	5418	51.693209832708	0.029865600719
0	5423	51.723075433427	0.000658044004
0	5425	51.723733477431	0.192394495493
0	5435	51.916127972924	0.004389857164
0	5437	51.920517830088	0.043757522744
0	5445	51.964275352832	0.016414585832
0	5450	51.980689938664	0.043578885557
0	5455	52.024268824221	0.040218608169
0	5461	52.06448743239	0.017767440373
0	5466	52.082254872763	0.040296585932
0	5471	52.122551458695	0.045708252912
0	5477	52.168259711607	0.034568437073
0	5482	52.20282814868	0.024067388988
0	5487	52.226895537668	0.040796107628
0	5493	52.267691645296	0.062197575452
0	5498	52.329889220748	0.037576185636
0	5503	52.367465406384	0.063041613835
0	5509	52.430507020219	0.053762637065
0	5515	52.484269657284	0.029700573022
0	5522	52.513970230306	0.04053035295
0	5527	52.554500583256	0.147324244518
0	5533	52.701824827774	0.076588190394
0	5539	52.778413018168	0.003165537087
0	5541	52.781578555255	0.0575687326
0	5549	52.839147287855	0.034400636702
0	5554	52.873547924557	0.00188650869
0	5556	52.875434433247	0.058009190211
0	5567	52.933443623458	0.03678457505
0	5572	52.970228198508	0.016216937431
0	5577	52.986445135939	0.00614731119
0	5579	52.992592447129	0.014763504756
0	5587	53.007355951885	0.012295466853
0	5593	53.019651418738	0.030749349718
0	5598	53.050400768456	0.008968047252
0	5603	53.059368815708	0.025523564453
0	5608	53.084892380161	0.076689875553
0	5613	53.161582255714	0.011719761241
0	5618	53.173302016955	0.020060054866
0	5623	53.193362071821	0.118486493888
0	5628	53.311848565709	0.027436062793
0	5633	53.339284628502	0.039709026829
0	5639	53.378993655331	0.035071287815
0	5644	53.414064943146	0.007266340153
0	5646	53.421331283299	0.027066545504
0	5654	53.448397828803	0.132917138906
0	5659	53.581314967709	0.004780821411
0	5661	53.58609578912	0.004860723316
0	5666	53.590956512436	0.068004306904
0	5674	53.65896081934	0.008636044694
0	5679	53.667596864034	0.068473433342
0	5685	53.736070297376	0.234532497714
0	5693	53.97060279509	0.075354875759
0	5699	54.045957670849	0.039811329369
0	5704	54.085769000218	0.006691327058
0	5707	54.092460327276	0.010896168217
0	5715	54.103356495493	0.020766050195
0	5720	54.124122545688	0.15899928384
0	5726	54.283121829528	0.074360050009
0	5732	54.357481879537	0.01320065882
0	5737	54.370682538357	0.037983662467
0	5742	54.408666200824	0.055749863842
0	5747	54.464416064666	0.102520242551
0	5752	54.566936307217	0.040939279412
0	5757	54.607875586629	0.022151849223
0	5762	54.630027435852	0.000783289427
0	5764	54.630810725279	0.058790354204
0	5772	54.689601079483	0.0257250902
0	5777	54.715326169683	0.015132862199
0	5782	54.730459031882	0.005946286792
0	5784	54.736405318674	0.037836293404
0	5792	54.774241612078	0.047063471661
0	5797	54.821305083739	0.089121881189
0	5802	54.910426964928	0.043146850194
0	5807	54.953573815122	0.1249418352
0	5814	55.078515650322	0.022907450328
0	5819	55.10142310065	0.015484225863
0	5824	55.116907326513	0.014371294037
0	5829	55.13127862055	0.078827337376
0	5834	55.210105957926	0.023888880551
0	5840	55.233994838477	0.034339100366
0	5845	55.268333938843	0.00955946
0	5850	55.277893398843	0.036180238837
0	5855	55.31407363768	0.035819108258
0	5860	55.349892745938	0.033849855378
0	5865	55.383742601316	0.06947923194
0	5870	55.453221833256	0.294811710783
0	5879	55.748033544039	0.010026439807
0	5884	55.758059983846	0.030617877404
0	5889	55.78867786125	0.108227258804
0	5894	55.896905120054	0.099986502154
0	5900	55.996891622208	0.052780843458
0	5905	56.049672465666	0.02926350153
0	5911	56.078935967196	0.38538033404
0	5921	56.464316301236	0.010378161023
0	5926	56.474694462259	0.010527971267
0	5931	56.485222433526	0.003347923355
0	5933	56.488570356881	0.003574850322
0	5935	56.492145207203	0.028250298304
0	5949	56.520395505507	0.234337626165
0	5956	56.754733131672	0.036640917178
0	5962	56.79137404885	0.000599588676
0	5964	56.791973637526	0.042825737406
0	5972	56.834799374932	0.012816894588
0	5978	56.84761626952	0.007252202398
0	5980	56.854868471918	0.017306347939
0	5988	56.872174819857	0.109560358321
0	5993	56.981735178178	0.055740149574
0	5998	57.037475327752	0.188178440078
0	6005	57.22565376783	0.015157948513
0	6010	57.240811716343	0.102160988728
0	6015	57.342972705071	0.122068490377
0	6021	57.465041195448	0.008090621765
0	6026	57.473131817213	0.032094233414
0	6032	57.505226050627	0.04810827322
0	6037	57.553334323847	0.076536817989
0	6043	57.629871141836	0.001560534249
0	6045	57.631431676085	0.013318055751
0	6053	57.644749731836	0.09145683166
0	6060	57.736206563496	0.014821066928
0	6065	57.751027630424	0.025163831117
0	6070	57.776191461541	0.058118379746
0	6075	57.834309841287	0.043907425349
0	6081	57.878217266636	0.002907364521
0	6083	57.881124631157	0.028867505087
0	6091	57.909992136244	0.041822609044
0	6096	57.951814745288	0.088689586183
0	6103	58.040504331471	0.017027784161
0	6108	58.057532115632	0.090692664938
0	6113	58.14822478057	0.091384536284
0	6120	58.239609316854	0.159492240743
0	6125	58.399101557597	0.023447935067
0	6130	58.422549492664	0.004656587134
0	6132	58.427206079798	0.03629474056
0	6140	58.463500820358	0.053689988222
0	6145	58.51719080858	0.123807039519
0	6153	58.640997848099	0.064764603156
0	6159	58.705762451255	0.006328504937
0	6161	58.712090956192	0.02860587042
0	6170	58.740696826612	0.012658793737
0	6175	58.753355620349	0.091855461971
0	6181	58.84521108232	0.031691103262
0	6186	58.876902185582	0.027862621038
0	6191	58.90476480662	0.023597281332
0	6196	58.928362087952	0.016287446974
0	6201	58.944649534926	0.059789508288
0	6207	59.004439043214	0.042329682215
0	6213	59.046768725429	0.003357213778
0	6215	59.050125939207	0.024943281545
0	6223	59.075069220752	0.030833681006
0	6228	59.105902901758	0.028338247968
0	6233	59.134241149726	0.013134053665
0	6238	59.147375203391	0.021838456676
0	6243	59.169213660067	0.066159052098
0	6248	59.235372712165	0.036303570705
0	6253	59.27167628287	0.002805736846
0	6255	59.274482019716	0.014289713715
0	6263	59.288771733431	0.03905419148
0	6268	59.327825924911	0.068723955666
0	6273	59.396549880577	0.037538817006
0	6278	59.434088697583	0.00185644616
0	6280	59.435945143743	0.052451875407
0	6289	59.48839701915	0.092244002775
0	6294	59.580641021925	0.033928742163
0	6299	59.614569764088	0.039834711353
0	6304	59.654404475441	0.23275095962
0	6314	59.887155435061	0.062293067681
0	6319	59.949448502742	0.020846396484
0	6325	59.970294899226	0.006713747571
0	6327	59.977008646797	0.032735260825
0	6336	60.009743907622	0.042228244406
0	6342	60.051972152028	0.007895403577
0	6347	60.059867555605	0.018959409695
0	6352	60.0788269653	0.038995821312
0	6358	60.117822786612	0.011936867669
0	6363	60.129759654281	0.015859062978
0	6368	60.145618717259	0.003125447505
0	6370	60.148744164764	0.000461801054
0	6372	60.149205965818	0.222438485871
0	6386	60.371644451689	0.006753006177
0	6388	60.378397457866	0.002613933318
0	6393	60.381011391184	0.029049463615
0	6401	60.410060854799	0.02014930266
0	6406	60.430210157459	0.013016312195
0	6411	60.443226469654	0.022481747769
0	6416	60.465708217423	0.019501341252
0	6421	60.485209558675	0.004194872666
0	6423	60.489404431341	0.001597480377
0	6425	60.491001911718	0.030632416158
0	6436	60.521634327876	0.110156032461
0	6441	60.631790360337	0.03085059022
0	6446	60.662640950557	0.04850855892
0	6451	60.711149509477	0.026775754262
0	6456	60.737925263739	0.091882801726
0	6461	60.829808065465	0.129598619654
0	6466	60.959406685119	0.080107032636
0	6471	61.039513717755	0.062645266133
0	6476	61.102158983888	0.123054990302
0	6481	61.22521397419	0.025844453497
0	6486	61.251058427687	0.006378801503
0	6488	61.25743722919	0.009605145733
0	6496	61.267042374923	0.106653172922
0	6501	61.373695547845	0.116548984308
0	6506	61.490244532153	0.013985604699
0	6511	61.504230136852	0.002447820792
0	6513	61.506677957644	0.010494671244
0	6518	61.517172628888	0.013443679478
0	6526	61.530616308366	0.002478825949
0	6528	61.533095134315	0.049322865564
0	6536	61.582417999879	0.026155063845
0	6542	61.608573063724	0.021374530959
0	6547	61.629947594683	0.082742927368
0	6553	61.712690522051	0.094452480849
0	6558	61.8071430029	0.019279195148
0	6563	61.826422198048	0.023867929679
0	6569	61.850290127727	0.013177316837
0	6574	61.863467444564	0.024999799033
0	6579	61.888467243597	0.110240397527
0	6586	61.998707641124	0.004456703928
0	6588	62.003164345052	0.08244985402
0	6596	62.085614199072	0.046544983016
0	6602	62.132159182088	0.033215880023
0	6607	62.165375062111	0.015438455025
0	6612	62.180813517136	0.00996157299
0	6617	62.190775090126	0.003279685479
0	6619	62.194054775605	0.009099566364
0	6624	62.203154341969	0.109584175755
0	6633	62.312738517724	0.077447215467
0	6638	62.390185733191	0.067340585552
0	6644	62.457526318743	0.157610025556
0	6651	62.615136344299	0.003770954864
0	6653	62.618907299163	0.078803513937
0	6661	62.6977108131	0.051834252758
0	6666	62.749545065858	0.016546072792
0	6671	62.76609113865	0.050327313242
0	6677	62.816418451892	0.005867707125
0	6679	62.822286159017	0.052742228291
0	6687	62.875028387308	0.12737493475
0	6692	63.002403322058	0.121944188751
0	6698	63.124347510809	0.033072557963
0	6703	63.157420068772	0.019641741233
0	6708	63.177061810005	0.105548954632
0	6714	63.282610764637	0.072175589484
0	6719	63.354786354121	0.090518912918
0	6724	63.445305267039	0.052959761393
0	6729	63.498265028432	0.008287231073
0	6734	63.506552259505	0.018538137076
0	6739	63.525090396581	0.045044968821
0	6744	63.570135365402	0.044457721765
0	6749	63.614593087167	0.017888998542
0	6754	63.632482085709	0.059312277856
0	6759	63.691794363565	0.184914125968
0	6766	63.876708489533	0.05938285793
0	6771	63.936091347463	0.042666039635
0	6776	63.978757387098	0.077058714449
0	6781	64.055816101547	0.029950637297
0	6786	64.085766738844	0.005263488112
0	6788	64.091030226956	0.009487710928
0	6796	64.100517937884	0.013544200342
0	6801	64.114062138226	0.018276328299
0	6806	64.132338466525	0.028983724635
0	6811	64.16132219116	0.01701787262
0	6816	64.17834006378	0.026039845206
0	6822	64.204379908986	0.09005270877
0	6827	64.294432617756	0.049199553984
0	6833	64.34363217174	0.046380546655
0	6838	64.390012718395	0.06623754746
0	6843	64.456250265855	0.003960696941
0	6845	64.460210962796	0.021720623551
0	6854	64.481931586347	0.102967404158
0	6862	64.584898990505	0.027240703735
0	6867	64.61213969424	0.058088909168
0	6872	64.670228603408	0.038128399929
0	6877	64.708357003337	0.069911217311
0	6885	64.778268220648	0.072557429467
0	6890	64.850825650115	0.114803059787
0	6896	64.965628709902	0.012651840114
0	6901	64.978280550016	0.012726039822
0	6907	64.991006589838	0.006520285511
0	6909	64.997526875349	0.172191778585
0	6919	65.169718653934	0.042884443425
0	6925	65.212603097359	0.073581459478
0	6930	65.286184556837	0.070562540929
0	6935	65.356747097766	0.067992819
0	6940	65.424739916766	0.037182408547
0	6945	65.461922325313	0.005790429493
0	6947	65.467712754806	0.12288725767
0	6957	65.590600012476	0.024053972798
0	6962	65.614653985274	0.039963912949
0	6968	65.654617898223	0.045788835129
0	6974	65.700406733352	0.035726026057
0	6979	65.736132759409	0.01893740503
0	6984	65.755070164439	0.195055358733
0	6990	65.950125523172	0.058805989894
0	6995	66.008931513066	0.014225721167
0	7000	66.023157234233	0.023132766549
0	7006	66.046290000782	0.01884157907
0	7011	66.065131579852	0.050026163645
0	7017	66.115157743497	0.057260183602
0	7024	66.172417927099	0.072720637384
0	7030	66.245138564483	0.053693158619
0	7035	66.298831723102	0.078729132456
0	7040	66.377560855558	0.149755934337
0	7047	66.527316789895	0.070223196562
0	7052	66.597539986457	0.020767016881
0	7058	66.618307003338	0.084461391511
0	7063	66.702768394849	0.004539995266
0	7065	66.707308390115	0.008502883377
0	7070	66.715811273492	0.089203400271
0	7078	66.805014673763	0.008444838996
0	7083	66.813459512759	0.000555055858
0	7085	66.814014568617	0.024143506148
0	7093	66.838158074765	0.029054042621
0	7098	66.867212117386	0.041425584562
0	7103	66.908637701948	0.031823781439
0	7108	66.940461483387	0.06070692656
0	7114	67.001168409947	0.048596200694
0	7119	67.049764610641	0.048997550026
0	7124	67.098762160667	0.000154935591
0	7126	67.098917096258	0.083388395519
0	7134	67.182305491777	0.0636346914
0	7139	67.245940183177	0.010873313864
0	7144	67.256813497041	0.085612161682
0	7149	67.342425658723	0.075906277771
0	7155	67.418331936494	0.023778151183
0	7160	67.442110087677	0.03677043
0	7165	67.478880517677	0.048523764314
0	7172	67.527404281991	0.011163921331
0	7177	67.538568203322	0.11800785496
0	7184	67.656576058282	0.003106309939
0	7186	67.659682368221	0.048298320542
0	7194	67.707980688763	0.015249999181
0	7199	67.723230687944	0.036795686218
0	7204	67.760026374162	0.0152025284
0	7209	67.775228902562	0.002463282225
0	7211	67.777692184787	0.079728202668
0	7219	67.857420387455	0.09510878511
0	7224	67.952529172565	0.126776919967
0	7230	68.079306092532	0.004876765393
0	7232	68.084182857925	0.031309824871
0	7242	68.115492682796	0.056859027033
0	7247	68.172351709829	0.006593534443
0	7250	68.178945244272	0.097763316225
0	7258	68.276708560497	0.006577073973
0	7260	68.28328563447	0.053822958026
0	7268	68.337108592496	0.047831943493
0	7273	68.384940535989	0.037337393052
0	7278	68.422277929041	0.008415141029
0	7280	68.43069307007	0.007384960225
0	7285	68.438078030295	0.03750133001
0	7295	68.475579360305	0.007660953193
0	7297	68.483240313498	0.05857286655
0	7305	68.541813180048	0.054593072638
0	7310	68.596406252686	0.001567095808
0	7312	68.597973348494	0.028008207526
0	7321	68.62598155602	0.094748050185
0	7326	68.720729606205	0.0714089321
0	7332	68.792138538305	0.053829832637
0	7338	68.845968370942	0.091630211405
0	7343	68.937598582347	0.006192742306
0	7345	68.943791324653	0.018258173652
0	7353	68.962049498305	0.02423054769
0	7358	68.986280045995	0.014735676398
0	7363	69.001015722393	0.03127167439
0	7369	69.032287396783	0.001684081019
0	7371	69.033971477802	0.000836575545
0	7373	69.034808053347	0.010175186599
0	7378	69.044983239946	0.0982591136
0	7391	69.143242353546	0.097452880348
0	7396	69.240695233894	0.034318507058
0	7401	69.275013740952	0.033690271655
0	7406	69.308704012607	0.155959367205
0	7411	69.464663379812	0.02561351207
0	7416	69.490276891882	0.030641522414
0	7422	69.520918414296	0.033323161869
0	7427	69.554241576165	0.032396560535
0	7433	69.5866381367	0.006440841027
0	7435	69.593078977727	0.11313215375
0	7444	69.706211131477	0.006661425174
0	7446	69.712872556651	0.034789772443
0	7454	69.747662329094	0.038616147337
0	7460	69.786278476431	0.013907982795
0	7465	69.800186459226	0.019646108419
0	7470	69.819832567645	0.00771085696
0	7472	69.827543424605	0.007507393631
0	7477	69.835050818236	0.159580085665
0	7486	69.994630903901	0.046548543271
0	7492	70.041179447172	0.021880031226
0	7497	70.063059478398	0.038782680575
0	7502	70.101842158973	0.019440674684
0	7507	70.121282833657	0.128582030231
0	7514	70.249864863888	0.142611155222
0	7520	70.39247601911	0.118746954018
0	7525	70.511222973128	0.006125594621
0	7527	70.517348567749	0.0525467743
0	7535	70.569895342049	0.014746818947
0	7540	70.584642160996	0.001920366573
0	7542	70.586562527569	0.111757270237
0	7551	70.698319797806	0.069853749333
0	7556	70.768173547139	0.076189516339
0	7561	70.844363063478	0.19937444059
0	7568	71.043737504068	0.005096753807
0	7570	71.048834257875	0.00675381918
0	7576	71.055588077055	0.024469888533
0	7584	71.080057965588	0.013638782806
0	7589	71.093696748394	0.069548819237
0	7595	71.163245567631	0.005066743356
0	7597	71.168312310987	0.033541955456
0	7605	71.201854266443	0.124731425555
0	7610	71.326585691998	0.162195273455
0	7617	71.488780965453	0.062772284278
0	7622	71.551553249731	0.109882092784
0	7627	71.661435342515	0.018781627024
0	7632	71.680216969539	0.000764002763
0	7634	71.680980972302	0.01089060084
0	7639	71.691871573142	0.009328515608
0	7644	71.70120008875	0.035906740659
0	7652	71.737106829409	0.007334893615
0	7654	71.744441723024	0.027084800279
0	7662	71.771526523303	0.149103413302
0	7668	71.920629936605	0.090845288663
0	7674	72.011475225268	0.010320768584
0	7679	72.021795993852	0.005729533811
0	7681	72.027525527663	0.054141672695
0	7689	72.081667200358	0.117777775854
0	7694	72.199444976212	0.041408916576
0	7699	72.240853892788	0.138480097888
0	7705	72.379333990676	0.027098412918
0	7711	72.406432403594	0.034071029033
0	7716	72.440503432627	0.001334657806
0	7718	72.441838090433	0.048803631004
0	7727	72.490641721437	0.036511130618
0	7732	72.527152852055	0.155087393501
0	7739	72.682240245556	0.037347003575
0	7744	72.719587249131	0.008609660418
0	7749	72.728196909549	0.048677620118
0	7754	72.776874529667	0.015071929856
0	7759	72.791946459523	0.005156019193
0	7761	72.797102478716	0.057168519954
0	7769	72.85427099867	0.021578244996
0	7774	72.875849243666	0.022634257236
0	7780	72.898483500902	0.079526024595
0	7785	72.978009525497	0.019739224736
0	7790	72.997748750233	0.000107800543
0	7792	72.997856550776	0.076097696726
0	7801	73.073954247502	0.004974057309
0	7803	73.078928304811	0.05896596069
0	7812	73.137894265501	0.014154577378
0	7818	73.152048842879	0.018639246352
0	7823	73.170688089231	0.090935847778
0	7832	73.261623937009	0.016846363576
0	7837	73.278470300585	0.13472394471
0	7843	73.413194245295	0.019382451705
0	7848	73.432576697	0.009452935034
0	7853	73.442029632034	0.168123904016
0	7860	73.61015353605	0.003645756689
0	7862	73.613799292739	0.072335052748
0	7871	73.686134345487	0.001434609306
0	7873	73.687568954793	0.061044037853
0	7881	73.748612992646	0.193532282493
0	7886	73.942145275139	0.03682720395
0	7892	73.978972479089	0.00097197483
0	7894	73.979944453919	0.009551773351
0	7899	73.98949622727	0.055142855336
0	7908	74.044639082606	0.018311725868
0	7913	74.062950808474	0.001848956792
0	7915	74.064799765266	0.01129163488
0	7920	74.076091400146	0.061951390556
0	7929	74.138042790702	0.037317866723
0	7934	74.175360657425	0.001115082808
0	7936	74.176475740233	0.068826002606
0	7944	74.245301742839	0.064696387255
0	7949	74.309998130094	0.035755448004
0	7954	74.345753578098	0.006139573697
0	7956	74.351893151795	0.199062683254
0	7966	74.550955835049	0.035969186345
0	7972	74.586925021394	0.001155411513
0	7974	74.588080432907	0.002930536603
0	7976	74.59101096951	0.042191368801
0	7987	74.633202338311	0.03876785412
0	7992	74.671970192431	0.073504014672
0	7997	74.745474207103	0.015019001141
0	8002	74.760493208244	0.044279798325
0	8007	74.804773006569	0.056248516267
0	8012	74.861021522836	0.02061464533
0	8017	74.881636168166	0.035237811571
0	8022	74.916873979737	0.01478641016
0	8027	74.931660389897	0.001080190859
0	8029	74.932740580756	0.025546907306
0	8037	74.958287488062	0.046457713495
0	8042	75.004745201557	0.002647286557
0	8045	75.007392488114	0.008748882182
0	8050	75.016141370296	0.086947589793
0	8059	75.103088960089	0.046545676288
0	8065	75.149634636377	0.003386762167
0	8067	75.153021398544	0.04916454089
0	8075	75.202185939434	0.001219721639
0	8077	75.203405661073	0.000868801882
0	8079	75.204274462955	0.064755523839
0	8090	75.269029986794	0.051590038901
0	8096	75.320620025695	0.056077136761
0	8103	75.376697162456	0.062804196516
0	8109	75.439501358972	0.021674029173
0	8114	75.461175388145	0.004400151246
0	8116	75.465575539391	0.117841307919
0	8125	75.58341684731	0.09249845922
0	8130	75.67591530653	0.116823354107
0	8136	75.792738660637	0.105645323896
0	8141	75.898383984533	0.057779068142
0	8146	75.956163052675	0.024434237157
0	8151	75.980597289832	0.018448465592
0	8156	75.999045755424	0.135152609084
0	8163	76.134198364508	0.074416959134
0	8169	76.208615323642	0.007472392198
0	8171	76.21608771584	0.079191526104
0	8179	76.295279241944	0.071290795703
0	8185	76.366570037647	0.006784690477
0	8187	76.373354728124	0.050915468271
0	8195	76.424270196395	0.026989038247
0	8200	76.451259234642	0.006902871321
0	8202	76.458162105963	0.041458000447
0	8211	76.49962010641	0.025204576287
0	8216	76.524824682697	0.026117038437
0	8221	76.550941721134	0.061957960371
0	8227	76.612899681505	0.027294462664
0	8232	76.640194144169	0.066041990266
0	8237	76.706236134435	0.009336676007
0	8242	76.715572810442	0.079584092871
0	8247	76.795156903313	0.002445672561
0	8249	76.797602575874	0.08004149759
0	8259	76.877644073464	0.008721934867
0	8264	76.886366008331	0.027183386774
0	8269	76.913549395105	0.046130260791
0	8275	76.959679655896	0.019011302075
0	8280	76.978690957971	0.099873114381
0	8285	77.078564072352	0.342436194255
0	8292	77.421000266607	0.040954027211
0	8297	77.461954293818	0.025432379281
0	8302	77.487386673099	0.007618456753
0	8304	77.495005129852	0.077820085126
0	8314	77.572825214978	0.012685411002
0	8319	77.58551062598	0.012489129221
0	8324	77.597999755201	0.168123572739
0	8331	77.76612332794	0.045563601662
0	8337	77.811686929602	0.130678618396
0	8344	77.942365547998	0.072250289968
0	8350	78.014615837966	0.076174526868
0	8356	78.090790364834	0.012675790687
0	8361	78.103466155521	0.010819278281
0	8366	78.114285433802	0.138430590283
0	8371	78.252716024085	0.025202616965
0	8376	78.27791864105	0.067328290738
0	8381	78.345246931788	0.019841453703
0	8387	78.365088385491	0.002474616515
0	8389	78.367563002006	0.03194119347
0	8397	78.399504195476	0.014691538497
0	8402	78.414195733973	0.005338230353
0	8404	78.419533964326	0.060444445873
0	8412	78.479978410199	0.002610410848
0	8414	78.482588821047	0.000455324779
0	8416	78.483044145826	0.012205798074
0	8421	78.4952499439	0.113171092606
0	8433	78.608421036506	0.039012347046
0	8439	78.647433383552	0.095894092755
0	8444	78.743327476307	0.015016087089
0	8449	78.758343563396	0.299779199686
0	8457	79.058122763082	0.011655418122
0	8462	79.069778181204	0.047853269557
0	8467	79.117631450761	0.003529140862
0	8469	79.121160591623	0.006388098357
0	8474	79.12754868998	0.007066988079
0	8479	79.134615678059	0.167305364874
0	8489	79.301921042933	0.026809766207
0	8494	79.32873080914	0.005747858947
0	8496	79.334478668087	0.105229328918
0	8504	79.439707997005	0.072051013738
0	8509	79.511759010743	0.042138786705
0	8514	79.553897797448	0.044349180215
0	8520	79.598246977663	0.009354388353
0	8525	79.607601366016	0.031793268919
0	8530	79.639394634935	0.004622241893
0	8532	79.644016876828	0.026223627779
0	8540	79.670240504607	0.043082935668
0	8545	79.713323440275	0.03639517832
0	8550	79.749718618595	0.026255966338
0	8555	79.775974584933	0.0649651712
0	8560	79.840939756133	0.085375366642
0	8565	79.926315122775	0.012174872719
0	8570	79.938489995494	0.048426502316
0	8575	79.98691649781	0.002566283914
0	8577	79.989482781724	0.131561485662
0	8586	80.121044267386	0.066608669233
0	8591	80.187652936619	0.028819012874
0	8596	80.216471949493	0.011281840528
0	8602	80.227753790021	0.06144892373
0	8607	80.289202713751	0.015534663358
0	8612	80.304737377109	0.042400055229
0	8617	80.347137432338	0.059184530176
0	8622	80.406321962514	0.057960174136
0	8628	80.46428213665	0.049088883831
0	8635	80.513371020481	0.025374025561
0	8641	80.538745046042	0.027746919926
0	8646	80.566491965968	0.063841996875
0	8651	80.630333962843	0.021861080078
0	8656	80.652195042921	0.00876675665
0	8661	80.660961799571	0.044100914395
0	8666	80.705062713966	0.027117178385
0	8671	80.732179892351	0.178379367938
0	8678	80.910559260289	0.098231320123
0	8684	81.008790580412	0.116352043917
0	8690	81.125142624329	0.070955710366
0	8696	81.196098334695	0.030548711041
0	8702	81.226647045736	0.009435977029
0	8707	81.236083022765	0.036144361886
0	8712	81.272227384651	0.008413110195
0	8717	81.280640494846	0.039948136485
0	8722	81.320588631331	0.288908693927
0	8728	81.609497325258	0.059132127422
0	8734	81.66862945268	0.020086511704
0	8740	81.688715964384	0.069801377352
0	8746	81.758517341736	0.026090541463
0	8751	81.784607883199	0.003312946741
0	8753	81.78792082994	0.013063255515
0	8761	81.800984085455	0.070641053252
0	8766	81.871625138707	0.103634504172
0	8774	81.975259642879	0.042845480118
0	8779	82.018105122997	0.027504119734
0	8784	82.045609242731	0.075819034615
0	8790	82.121428277346	0.125898160104
0	8795	82.24732643745	0.053080891757
0	8801	82.300407329207	0.060232328296
0	8806	82.360639657503	0.059678915706
0	8811	82.420318573209	0.02687168033
0	8817	82.447190253539	0.037672243883
0	8822	82.484862497422	0.052421813558
0	8827	82.53728431098	0.029167244373
0	8832	82.566451555353	0.021817140814
0	8838	82.588268696167	0.054106051128
0	8843	82.642374747295	0.023756683872
0	8848	82.666131431167	0.006124129357
0	8850	82.672255560524	0.005976644683
0	8855	82.678232205207	0.114331476533
0	8863	82.79256368174	0.030454987395
0	8869	82.823018669135	0.089186350268
0	8876	82.912205019403	0.035227329547
0	8881	82.94743234895	0.015372032124
0	8886	82.962804381074	0.084453595607
0	8891	83.047257976681	0.009078383453
0	8896	83.056336360134	0.04608301073
0	8902	83.102419370864	0.039421185708
0	8907	83.141840556572	0.059598207356
0	8912	83.201438763928	0.061998437907
0	8917	83.263437201835	0.008470420917
0	8922	83.271907622752	0.02066990826
0	8927	83.292577531012	0.003494446865
0	8929	83.296071977877	0.038776987835
0	8938	83.334848965712	0.031114042246
0	8943	83.365963007958	0.010658132521
0	8948	83.376621140479	0.055172719474
0	8953	83.431793859953	0.008595807941
0	8958	83.440389667894	0.001917194434
0	8960	83.442306862328	0.012618180949
0	8965	83.454925043277	0.000959858649
0	8967	83.455884901926	0.002714943728
0	8972	83.458599845654	0.0249414674
0	8983	83.483541313054	0.013779818102
0	8988	83.497321131156	0.073900915255
0	8994	83.571222046411	0.024179268371
0	8999	83.595401314782	0.003064175325
0	9001	83.598465490107	0.012827546151
0	9009	83.611293036258	0.000425421442
0	9011	83.6117184577	0.055494939866
0	9020	83.667213397566	0.17086549322
0	9027	83.838078890786	0.034114248011
0	9032	83.872193138797	0.088391919898
0	9038	83.960585058695	0.078153254474
0	9044	84.038738313169	0.012320186455
0	9049	84.051058499624	0.066673989193
0	9055	84.117732488817	0.040269508494
0	9060	84.158001997311	0.055313938379
0	9065	84.21331593569	0.028514484238
0	9070	84.241830419928	0.041658918663
0	9075	84.283489338591	0.011609832462
0	9081	84.295099171053	0.147961915567
0	9088	84.44306108662	0.016294382101
0	9093	84.459355468721	0.188450414858
0	9099	84.647805883579	0.047279187308
0	9104	84.695085070887	0.003136665288
0	9106	84.698221736175	0.149316154177
0	9118	84.847537890352	0.027989289261
0	9123	84.875527179613	0.039675129541
0	9128	84.915202309154	0.013856523725
0	9133	84.929058832879	0.025243343909
0	9138	84.954302176788	0.059979748718
0	9143	85.014281925506	0.00442442839
0	9145	85.018706353896	0.051990480918
0	9154	85.070696834814	0.017934474804
0	9159	85.088631309618	0.024699132246
0	9164	85.113330441864	0.055533642822
0	9169	85.168864084686	0.113757565515
0	9175	85.282621650201	0.028846365058
0	9180	85.311468015259	0.006444432368
0	9182	85.317912447627	0.080023787946
0	9190	85.397936235573	0.010717347047
0	9195	85.40865358262	0.00322285119
0	9197	85.41187643381	0.003662221426
0	9199	85.415538655236	0.001631061073
0	9204	85.417169716309	0.079539983223
0	9215	85.496709699532	0.144165276916
0	9223	85.640874976448	0.009380966818
0	9228	85.650255943266	0.090368959105
0	9234	85.740624902371	0.030561620028
0	9239	85.771186522399	0.001835560118
0	9242	85.773022082517	0.182153324296
0	9253	85.955175406813	0.070448894323
0	9259	86.025624301136	0.124052839309
0	9264	86.149677140445	0.017755208932
0	9269	86.167432349377	0.020064858444
0	9274	86.187497207821	0.030528904008
0	9279	86.218026111829	0.041519667215
0	9284	86.259545779044	0.003792088072
0	9286	86.263337867116	0.00601819291
0	9291	86.269356060026	0.019726151479
0	9300	86.289082211505	0.016648667303
0	9305	86.305730878808	0.01099718582
0	9310	86.316728064628	0.004639073153
0	9312	86.321367137781	0.022638309156
0	9321	86.344005446937	0.0224882686
0	9326	86.366493715537	0.006307529559
0	9328	86.372801245096	0.015008645537
0	9337	86.387809890633	0.257432911936
0	9344	86.645242802569	0.133668888365
0	9350	86.778911690934	0.073437834778
0	9355	86.852349525712	0.020624162546
0	9360	86.872973688258	0.010657892192
0	9365	86.88363158045	0.00162449274
0	9367	86.88525607319	0.007261555012
0	9372	86.892517628202	0.023314238556
0	9380	86.915831866758	0.01153516353
0	9385	86.927367030288	0.019841634252
0	9390	86.94720866454	0.049885785981
0	9397	86.997094450521	0.013912670449
0	9402	87.01100712097	0.042957289925
0	9407	87.053964410895	0.047086897221
0	9412	87.101051308116	0.029252592123
0	9417	87.130303900239	0.033418120931
0	9422	87.16372202117	0.053477021922
0	9428	87.217199043092	0.086239445077
0	9434	87.303438488169	0.108809253715
0	9440	87.412247741884	0.196935662496
0	9445	87.60918340438	0.002690198956
0	9447	87.611873603336	0.035863458552
0	9455	87.647737061888	0.017242865657
0	9460	87.664979927545	0.022647743438
0	9465	87.687627670983	0.019779461738
0	9470	87.707407132721	0.017807482937
0	9475	87.725214615658	0.00636413201
0	9477	87.731578747668	0.181986137885
0	9485	87.913564885553	0.017937851938
0	9490	87.931502737491	0.117372138697
0	9496	88.048874876188	0.06755145048
0	9502	88.116426326668	0.028562018166
0	9507	88.144988344834	0.024917745197
0	9512	88.169906090031	0.125332325586
0	9518	88.295238415617	0.061383906545
0	9523	88.356622322162	0.015788262374
0	9529	88.372410584536	0.224315088885
0	9537	88.596725673421	0.015222734503
0	9542	88.611948407924	0.014643113439
0	9547	88.626591521363	0.045208407305
0	9553	88.671799928668	0.014712518713
0	9559	88.686512447381	0.024265055748
0	9564	88.710777503129	0.016384357792
0	9569	88.727161860921	0.087736585909
0	9576	88.81489844683	0.020546224382
0	9581	88.835444671212	0.062782029715
0	9586	88.898226700927	0.025935571274
0	9591	88.924162272201	0.002974697667
0	9593	88.927136969868	0.023028930053
0	9601	88.950165899921	0.179967847241
0	9606	89.130133747162	0.092633070844
0	9612	89.222766818006	0.123584709264
0	9619	89.34635152727	0.012869742101
0	9624	89.359221269371	0.211873835072
0	9629	89.571095104443	0.205641776358
0	9635	89.776736880801	0.11916489513
0	9640	89.895901775931	0.03369228782
0	9645	89.929594063751	0.009585480956
0	9651	89.939179544707	0.035571144914
0	9656	89.974750689621	0.111748148965
0	9661	90.086498838586	0.043325195519
0	9666	90.129824034105	0.015001032214
0	9671	90.144825066319	0.010636894465
0	9676	90.155461960784	0.052783668597
0	9683	90.208245629381	0.0104580023
0	9688	90.218703631681	0.050745893958
0	9693	90.269449525639	0.151781158577
0	9699	90.421230684216	0.083134300647
0	9705	90.504364984863	0.025180597156
0	9710	90.529545582019	0.000948208849
0	9712	90.530493790868	0.011469657279
0	9717	90.541963448147	0.004461972862
0	9722	90.546425421009	0.09259286615
0	9730	90.639018287159	0.038028200515
0	9736	90.677046487674	0.025172872019
0	9741	90.702219359693	0.002342106266
0	9743	90.704561465959	0.041162585073
0	9751	90.745724051032	0.030957069568
0	9756	90.7766811206	0.036111141463
0	9761	90.812792262063	0.142600361179
0	9767	90.955392623242	0.145887118505
0	9774	91.101279741747	0.064806912385
0	9780	91.166086654132	0.041850981118
0	9786	91.20793763525	0.020667689902
0	9791	91.228605325152	0.05993261909
0	9796	91.288537944242	0.048449039962
0	9801	91.336986984204	0.113048308895
0	9806	91.450035293099	0.032666349342
0	9811	91.482701642441	0.07348039722
0	9816	91.556182039661	0.183214578637
0	9821	91.739396618298	0.19385367712
0	9827	91.933250295418	0.021368678239
0	9832	91.954618973657	0.104228295928
0	9837	92.058847269585	0.048807979049
0	9843	92.107655248634	0.071817863391
0	9848	92.179473112025	0.056506227024
0	9854	92.235979339049	0.055004712261
0	9859	92.29098405131	0.004919322184
0	9861	92.295903373494	0.16422718689
0	9870	92.460130560384	0.05096637924
0	9875	92.511096939624	0.044141719626
0	9882	92.55523865925	0.039719787284
0	9887	92.594958446534	0.181904483945
0	9892	92.776862930479	0.005402816264
0	9894	92.782265746743	0.033584014519
0	9903	92.815849761262	0.0394494951
0	9909	92.855299256362	0.032371735614
0	9914	92.887670991976	0.005532464415
0	9916	92.893203456391	0.106768667668
0	9924	92.999972124059	0.019847822536
0	9929	93.019819946595	0.065523109301
0	9934	93.085343055896	0.050692364671
0	9941	93.136035420567	0.039056563243
0	9946	93.17509198381	0.031267443073
0	9951	93.206359426883	0.036361686072
0	9956	93.242721112955	0.120566290833
0	9961	93.363287403788	0.010229137636
0	9966	93.373516541424	0.004959780945
0	9968	93.378476322369	0.034105115554
0	9976	93.412581437923	0.203039497137
0	9982	93.61562093506	0.131406752496
0	9987	93.747027687556	0.04622251912
0	9992	93.793250206676	0.188678025137
0	9997	93.981928231813	0.031538472805
0	10002	94.013466704618	0.097788071926
0	10008	94.111254776544	0.056080066662
0	10013	94.167334843206	0.011273144139
0	10018	94.178607987345	0.046631435967
0	10023	94.225239423312	0.009036352748
0	10028	94.23427577606	0.011775773594
0	10033	94.246051549654	0.018427913257
0	10038	94.264479462911	0.012876852037
0	10043	94.277356314948	0.012004489083
0	10048	94.289360804031	0.026713901947
0	10053	94.316074705978	0.003163795039
0	10055	94.319238501017	0.062955270918
0	10064	94.382193771935	0.04210589256
0	10069	94.424299664495	0.027114015482
0	10074	94.451413679977	0.148216886002
0	10080	94.599630565979	0.088090151722
0	10087	94.687720717701	0.172470803529
0	10092	94.86019152123	0.079713084617
0	10099	94.939904605847	0.131234269542
0	10104	95.071138875389	0.11998337837
0	10109	95.191122253759	0.055821408806
0	10114	95.246943662565	0.030168267582
0	10119	95.277111930147	0.039529068113
0	10124	95.31664099826	0.112908053476
0	10130	95.429549051736	0.065164275059
0	10135	95.494713326795	0.061864344441
0	10141	95.556577671236	0.056772929614
0	10146	95.61335060085	0.066100276406
0	10151	95.679450877256	0.038699554321
0	10156	95.718150431577	0.001833586052
0	10158	95.719984017629	0.105717772478
0	10167	95.825701790107	0.058367059773
0	10172	95.88406884988	0.048293977444
0	10178	95.932362827324	0.046694846879
0	10183	95.979057674203	0.08300032127
0	10188	96.062057995473	0.151994030266
0	10194	96.214052025739	0.026857403101
0	10199	96.24090942884	0.024350754121
0	10204	96.265260182961	0.021638552115
0	10209	96.286898735076	0.000318415198
0	10211	96.287217150274	0.042786916694
0	10219	96.330004066968	0.0797097984
0	10224	96.409713865368	0.000434440792
0	10226	96.41014830616	0.015106987148
0	10231	96.425255293308	0.081736511959
0	10239	96.506991805267	0.155362240113
0	10245	96.66235404538	0.036781161962
0	10251	96.699135207342	0.030515118233
0	10256	96.729650325575	0.001731121477
0	10258	96.731381447052	0.085300493813
0	10266	96.816681940865	0.017468364946
0	10271	96.834150305811	0.163502440792
0	10277	96.997652746603	0.025037954982
0	10282	97.022690701585	0.154274640137
0	10288	97.176965341722	0.036129495499
0	10293	97.213094837221	0.036477066388
0	10298	97.249571903609	0.008419679887
0	10303	97.257991583496	0.472863348545
0	10311	97.730854932041	0.13079644504
0	10316	97.861651377081	0.100723194139
0	10322	97.96237457122	0.126431935089
0	10328	98.088806506309	0.033131513785
0	10334	98.121938020094	0.009775654328
0	10339	98.131713674422	0.053890966119
0	10344	98.185604640541	0.007232194403
0	10346	98.192836834944	0.103485623768
0	10354	98.296322458712	0.093484002634
0	10359	98.389806461346	0.071656587256
0	10364	98.461463048602	0.007434066577
0	10366	98.468897115179	0.135682546917
0	10375	98.604579662096	0.00992951513
0	10380	98.614509177226	0.034703380085
0	10385	98.649212557311	0.055728353607
0	10391	98.704940910918	0.005118755707
0	10393	98.710059666625	0.011268626144
0	10401	98.721328292769	0.013259610006
0	10407	98.734587902775	0.006012128203
0	10409	98.740600030978	0.019592352957
0	10417	98.760192383935	0.002590430823
0	10419	98.762782814758	0.085888264236
0	10427	98.848671078994	0.076591988089
0	10433	98.925263067083	0.107920781566
0	10439	99.033183848649	0.011741631981
0	10444	99.04492548063	0.015915145103
0	10449	99.060840625733	0.02639148037
0	10454	99.087232106103	0.023015199227
0	10459	99.11024730533	0.030374391101
0	10464	99.140621696431	0.009112097591
0	10469	99.149733794022	0.016040374387
0	10474	99.165774168409	0.024139034562
0	10479	99.189913202971	0.034573457321
0	10484	99.224486660292	0.015767309758
0	10489	99.24025397005	0.010558839937
0	10495	99.250812809987	0.022850045175
0	10500	99.273662855162	0.151505323931
0	10507	99.425168179093	0.007922039872
0	10512	99.433090218965	0.058771650919
0	10517	99.491861869884	0.009749227172
0	10523	99.501611097056	0.038599096995
0	10528	99.540210194051	0.000785387311
0	10530	99.540995581362	0.05127320587
0	10538	99.592268787232	0.088020270423
0	10544	99.680289057655	0.06520322165
0	10549	99.745492279305	0.015269997441
0	10554	99.760762276746	0.0205446436
0	10559	99.781306920346	0.053016895137
0	10564	99.834323815483	0.222588158667
0	10570	100.05691197415	0.010425244015
0	10575	100.067337218165	0.039019018806
0	10580	100.106356236971	0.016472491441
0	10585	100.122828728412	0.010826667677
0	10590	100.133655396089	0.004108137565
0	10592	100.137763533654	0.026864217918
0	10600	100.164627751572	0.022359583788
0	10605	100.18698733536	0.053550549406
0	10612	100.240537884766	0.07183665822
0	10617	100.312374542986	0.083379371214
0	10623	100.3957539142	0.038735269386
0	10629	100.434489183586	0.064495628461
0	10635	100.498984812047	0.056339210212
0	10640	100.555324022259	0.08894450721
0	10645	100.644268529469	0.055008535152
0	10652	100.699277064621	0.003188786804
0	10654	100.702465851425	0.01619533179
0	10662	100.718661183215	0.028954152476
0	10667	100.747615335691	0.01952779537
0	10672	100.767143131061	0.026481403391
0	10677	100.793624534452	0.212987282099
0	10687	101.006611816551	0.022885238208
0	10692	101.029497054759	0.017830390693
0	10697	101.047327445452	0.00692174867
0	10699	101.054249194122	0.133161911159
0	10707	101.187411105281	0.008029678148
0	10712	101.195440783429	0.064056262896
0	10717	101.259497046325	0.029841248021
0	10722	101.289338294346	0.085047813795
0	10731	101.374386108141	0.028205025417
0	10736	101.402591133558	0.02850382919
0	10741	101.431094962748	0.004799494157
0	10743	101.435894456905	0.022060518976
0	10752	101.457954975881	0.05425489826
0	10757	101.512209874141	0.038180944311
0	10762	101.550390818452	0.071029318103
0	10768	101.621420136555	0.067085742038
0	10773	101.688505878593	0.034401220457
0	10778	101.72290709905	0.051055551151
0	10784	101.773962650201	0.043447484823
0	10789	101.817410135024	0.097773731343
0	10795	101.915183866367	0.112901211955
0	10800	102.028085078322	0.010918060889
0	10805	102.039003139211	0.009944764365
0	10810	102.048947903576	0.087662728574
0	10816	102.13661063215	0.026553595094
0	10821	102.163164227244	0.059572723698
0	10826	102.222736950942	0.050144777361
0	10831	102.272881728303	0.04129681021
0	10836	102.314178538513	0.008015081281
0	10841	102.322193619794	0.011760051771
0	10846	102.333953671565	0.019018977485
0	10851	102.35297264905	0.023353016471
0	10857	102.376325665521	0.106493912393
0	10863	102.482819577914	0.159926779639
0	10869	102.642746357553	0.07821195504
0	10874	102.720958312593	0.206497206443
0	10881	102.927455519036	0.009237583865
0	10886	102.936693102901	0.03920813742
0	10891	102.975901240321	0.053703463695
0	10897	103.029604704016	0.094041400653
0	10902	103.123646104669	0.005479329122
0	10904	103.129125433791	0.039526413875
0	10912	103.168651847666	0.060804888202
0	10917	103.229456735868	0.070336970899
0	10922	103.299793706767	0.000420257709
0	10924	103.300213964476	0.017055641037
0	10932	103.317269605513	0.057787706394
0	10937	103.375057311907	0.121174991902
0	10943	103.496232303809	0.095926255977
0	10949	103.592158559786	0.015651621637
0	10954	103.607810181423	0.050363163486
0	10959	103.658173344909	0.101856663478
0	10966	103.760030008387	0.041635254942
0	10971	103.801665263329	0.0901847078
0	10976	103.891849971129	0.12414092181
0	10982	104.015990892939	0.040435850629
0	10987	104.056426743568	0.027712234814
0	10992	104.084138978382	0.037460864735
0	10997	104.121599843117	0.016126184801
0	11002	104.137726027918	0.022891993901
0	11007	104.160618021819	0.074652268849
0	11013	104.235270290668	0.064151926677
0	11020	104.299422217345	0.007436644319
0	11022	104.306858861664	0.05833178564
0	11030	104.365190647304	0.137159985623
0	11036	104.502350632927	0.056305633791
0	11042	104.558656266718	0.034355653985
0	11048	104.593011920703	0.091891800565
0	11056	104.684903721268	0.010120189504
0	11062	104.695023910772	0.022793874122
0	11067	104.717817784894	0.072182415342
0	11072	104.790000200236	0.057821362305
0	11077	104.847821562541	0.03302689586
0	11082	104.880848458401	0.053716280186
0	11087	104.934564738587	0.029392209373
0	11093	104.96395694796	0.039857776945
0	11098	105.003814724905	0.075661867601
0	11104	105.079476592506	0.060024710046
0	11109	105.139501302552	0.09222741554
0	11116	105.231728718092	0.031081445843
0	11122	105.262810163935	0.039990149134
0	11127	105.302800313069	0.395721373421
0	11135	105.69852168649	0.026996785108
0	11140	105.725518471598	0.119671265871
0	11146	105.845189737469	0.255908006463
0	11152	106.101097743932	0.157361106768
0	11157	106.2584588507	0.003593805748
0	11159	106.262052656448	0.012144735225
0	11167	106.274197391673	0.007765812697
0	11172	106.28196320437	0.020864846533
0	11177	106.302828050903	0.024936812527
0	11182	106.32776486343	0.043577335969
0	11187	106.371342199399	0.098876832088
0	11193	106.470219031487	0.148803180545
0	11199	106.619022212032	0.051198024613
0	11205	106.670220236645	0.066275159619
0	11210	106.736495396264	0.039315675631
0	11216	106.775811071895	0.055483688107
0	11222	106.831294760002	0.092161524342
0	11227	106.923456284344	0.048033832932
0	11234	106.971490117276	0.071484730052
0	11241	107.042974847328	0.076084362778
0	11246	107.119059210106	0.065263667526
0	11251	107.184322877632	0.043818321834
0	11257	107.228141199466	0.021511721908
0	11263	107.249652921374	0.031382058148
0	11268	107.281034979522	0.004288930283
0	11270	107.285323909805	0.092574457058
0	11278	107.377898366863	0.005162170538
0	11280	107.383060537401	0.01475927851
0	11288	107.397819815911	0.038248955258
0	11293	107.436068771169	0.068406003169
0	11299	107.504474774338	0.020363768949
0	11304	107.524838543287	0.05033210461
0	11312	107.575170647897	0.05588473708
0	11317	107.631055384977	0.033274986995
0	11322	107.664330371972	0.039115212622
0	11328	107.703445584594	0.214078340593
0	11334	107.917523925187	0.010870633917
0	11339	107.928394559104	0.024331450409
0	11344	107.952726009513	0.176098535151
0	11350	108.128824544664	0.047653444937
0	11355	108.176477989601	0.04172960665
0	11360	108.218207596251	0.12236596333
0	11365	108.340573559581	0.00136019516
0	11367	108.341933754741	0.016922531691
0	11376	108.358856286432	0.07785221668
0	11381	108.436708503112	0.018288636783
0	11387	108.454997139895	0.021088725551
0	11392	108.476085865446	0.210990359303
0	11399	108.687076224749	0.002811204769
0	11401	108.689887429518	0.030769464331
0	11409	108.720656893849	0.056709810663
0	11415	108.777366704512	0.040623014513
0	11420	108.817989719025	0.092246506981
0	11425	108.910236226006	0.061882675615
0	11431	108.972118901621	0.045944539488
0	11437	109.018063441109	0.049877353702
0	11443	109.067940794811	0.036922424256
0	11448	109.104863219067	0.080862355662
0	11453	109.185725574729	0.100041042284
0	11459	109.285766617013	0.049565023252
0	11464	109.335331640265	0.100671041773
0	11469	109.436002682038	0.030299739954
0	11474	109.466302421992	0.034253254169
0	11479	109.500555676161	0.016903524668
0	11484	109.517459200829	0.009323385335
0	11489	109.526782586164	0.013068887399
0	11495	109.539851473563	0.054285568941
0	11501	109.594137042504	0.026172360007
0	11506	109.620309402511	0.120179897227
0	11513	109.740489299738	0.02334357753
0	11518	109.763832877268	0.001988066196
0	11520	109.765820943464	0.057243422134
0	11529	109.823064365598	0.080727814912
0	11535	109.90379218051	0.017779883414
0	11540	109.921572063924	0.01439184612
0	11545	109.935963910044	0.064735304547
0	11551	110.000699214591	0.024330947607
0	11556	110.025030162198	0.018021338775
0	11561	110.043051500973	0.061485995086
0	11566	110.104537496059	0.005544258249
0	11568	110.110081754308	0.020907228359
0	11576	110.130988982667	0.076344351225
0	11583	110.207333333892	0.034203148427
0	11588	110.241536482319	0.021651654977
0	11593	110.263188137296	0.040027391373
0	11598	110.303215528669	0.01361742911
0	11604	110.316832957779	0.07269487834
0	11611	110.389527836119	0.058759953819
0	11616	110.448287789938	0.018886898569
0	11622	110.467174688507	0.00455339559
0	11624	110.471728084097	0.018130030462
0	11632	110.489858114559	0.021438569382
0	11637	110.511296683941	0.086680576348
0	11645	110.597977260289	0.095958627462
0	11650	110.693935887751	0.091272018661
0	11656	110.785207906412	0.044759321673
0	11662	110.829967228085	0.118675884694
0	11667	110.948643112779	0.022141539315
0	11672	110.970784652094	0.005836979695
0	11674	110.976621631789	0.031897282455
0	11682	111.008518914244	0.01549843573
0	11687	111.024017349974	0.112418123065
0	11693	111.136435473039	0.012745268323
0	11698	111.149180741362	0.027235001662
0	11704	111.176415743024	0.019461762551
0	11710	111.195877505575	0.085855656845
0	11716	111.28173316242	0.047901179316
0	11722	111.329634341736	0.017531078655
0	11727	111.347165420391	0.004011912763
0	11729	111.351177333154	0.08491466826
0	11737	111.436092001414	0.056761902718
0	11742	111.492853904132	0.047396411649
0	11747	111.540250315781	0.032915076819
0	11752	111.5731653926	0.050603164821
0	11758	111.623768557421	0.148239706926
0	11764	111.772008264347	0.079679924267
0	11771	111.851688188614	0.147116115511
0	11776	111.998804304125	0.038627767065
0	11782	112.03743207119	0.018862863085
0	11787	112.056294934275	0.01315605848
0	11793	112.069450992755	0.00269156001
0	11795	112.072142552765	0.003519442626
0	11797	112.075661995391	0.073451866619
0	11809	112.14911386201	0.003309588083
0	11811	112.152423450093	0.135882464394
0	11820	112.288305914487	0.040079265921
0	11826	112.328385180408	0.017796141801
0	11831	112.346181322209	0.00482541519
0	11833	112.351006737399	0.055081738125
0	11842	112.406088475524	0.043398418959
0	11847	112.449486894483	0.142281833142
0	11855	112.591768727625	0.028347636285
0	11860	112.62011636391	0.011742981894
0	11865	112.631859345804	0.002234870906
0	11867	112.63409421671	0.032167228791
0	11875	112.666261445501	0.038052002388
0	11880	112.704313447889	0.061261674327
0	11885	112.765575122216	0.047893022755
0	11890	112.813468144971	0.068718060589
0	11895	112.88218620556	0.040001733686
0	11900	112.922187939246	0.011548191573
0	11905	112.933736130819	0.133596181827
0	11911	113.067332312646	0.050968836415
0	11916	113.118301149061	0.03446431709
0	11921	113.152765466151	0.188819405345
0	11930	113.341584871496	0.029049254572
0	11935	113.370634126068	0.099449091947
0	11941	113.470083218015	0.00761287248
0	11946	113.477696090495	0.057551616501
0	11951	113.535247706996	0.082838131707
0	11957	113.618085838703	0.009658056258
0	11962	113.627743894961	0.118006460788
0	11969	113.745750355749	0.084047659395
0	11976	113.829798015144	0.026127323535
[...]
19	21375	201.175681156622	1.174266838736
19	21535	202.349947995358	3.9859495344816
19	21999	206.33589752984	2.8240168480226
19	22334	209.159914377863	1.6851065210255
19	22556	210.845020898889	0.041908048843799
19	22561	210.886928947733	4.7616334882326
19	23072	215.648562435966	0.36912180402656
19	23106	216.017684239993	0.12985752961416
19	23116	216.147541769607	0.093032694146606
19	23123	216.240574463754	0.63219245751386
19	23188	216.872766921268	0.38483531167585
19	23258	217.257602232944	2.0741965800496
19	23455	219.331798812994	0.78843666419703
19	23528	220.120235477191	1.5353573191835
19	23670	221.655592796375	0.50616052489435
19	23717	222.161753321269	2.0094657995413
19	23919	224.17121912081	0.3748296087458
19	23977	224.546048729556	1.4264614341378
19	24159	225.972510163694	5.3673755952998
19	24723	231.339885758994	0.024964014674515
19	24724	231.364849773669	1.6479089967474
19	24905	233.012758770416	1.8095108522848
19	25106	234.822269622701	2.1169283506174
19	25292	236.939197973318	0.81839725206841
19	25387	237.757595225386	0.30627860061733
19	25440	238.063873826003	8.1704444536488
19	26383	246.234318279652	4.2553093137924
19	26851	250.489627593444	0.57254072958625
19	26921	251.06216832303	2.0164509270078
19	27167	253.078619250038	1.9348883842427
19	27362	255.013507634281	2.1311745015726
19	27689	257.144682135854	2.3587047762711
19	27960	259.503386912125	0.02778342238781
19	27967	259.531170334513	5.6082357684313
19	28587	265.139406102944	1.2351313450442
19	28738	266.374537447988	1.0884459576463
19	28850	267.462983405634	1.651592606783
19	28992	269.114576012417	10.525699321617
19	29979	279.640275334034	0.76963155180437
19	30066	280.409906885838	0.16855749584741
19	30090	280.578464381685	6.2459667248744
19	30795	286.824431106559	1.3462614569319
19	30914	288.170692563491	2.2326963984841
19	31079	290.403388961975	0.50305076590595
19	31138	290.906439727881	3.6358885304281
19	31559	294.542328258309	0.70809415664242
19	31631	295.250422414951	1.4493429514866
19	31766	296.699765366438	0.07753099204688
19	31772	296.777296358485	0.42695580565789
19	31804	297.204252164143	1.1157785736377
19	31896	298.320030737781	0.18420523515305
19	31910	298.504235972934	1.7517133442432
19	32141	300.255949317177	0.68193248013369
19	32186	300.937881797311	2.1736098180436
19	32415	303.111491615355	1.7034613922429
19	32647	304.814953007598	1.0893855383121
19	32765	305.90433854591	1.2085586411644
19	32909	307.112897187074	0.43462908835403
19	32967	307.547526275428	4.1057946713678
19	33498	311.653320946796	3.2376186579913
19	33787	314.890939604787	2.9722541542417
19	34156	317.863193759029	0.73289975351774
19	34290	318.596093512547	1.8851254656341
19	34543	320.481218978181	0.33148756495823
19	34583	320.812706543139	0.92741753482205
19	34645	321.740124077961	3.8619429646178
19	35033	325.602067042579	0.31958540009414
19	35072	325.921652442673	0.041938099664169
19	35085	325.963590542337	1.4623813232833
19	35221	327.42597186562	5.6163302354124
19	35768	333.042302101032	2.5269665262745
19	36080	335.569268627306	0.091560581298178
19	36091	335.660829208604	0.74549913136669
19	36174	336.406328339971	2.4649344538552
19	36493	338.871262793826	0.5770242170493
19	36544	339.448287010875	2.1050515314751
19	36742	341.55333854235	0.86697705446173
19	36828	342.420315596812	0.110253414852
19	36842	342.530569011664	1.4529821997932
19	37000	343.983551211457	2.3109963778819
19	37314	346.294547589339	0.91917465823441
19	37417	347.213722247573	1.4620780686615
19	37552	348.675800316235	0.5171627093938
19	37597	349.192963025629	0.97621355710352
19	37706	350.169176582733	3.1247433516967
19	38056	353.29391993443	1.7760571188551
19	38271	355.069977053285	3.0751372103408
19	38586	358.145114263626	0.11157899201194
19	38619	358.256693255638	1.4272484475592
19	38803	359.683941703197	1.440524066098
19	38941	361.124465769295	0.035291749022329
19	38947	361.159757518317	1.6369313181467
19	39112	362.796688836464	3.9438893125765
19	39569	366.74057814904	0.63639948033597
19	39646	367.376977629376	0.060456568844383
19	39652	367.43743419822	0.23957697049813
19	39685	367.677011168718	0.14103449063515
19	39719	367.818045659353	6.1658364833848
19	40352	373.983882142738	1.5010917543054
19	40479	375.484973897043	0.3070627416816
19	40501	375.792036638725	0.74378829823754
19	40587	376.535824936963	1.1826613590231
19	40684	377.718486295986	0.21739810888539
19	40700	377.935884404871	2.0310342676608
19	40946	379.966918672532	0.15445929159855
19	40973	380.121377964131	1.5051290599328
19	41119	381.626507024064	0.45906210910045
19	41191	382.085569133164	1.2110253434144
19	41349	383.296594476578	0.3247223137809
19	41396	383.621316790359	1.3522584866863
19	41499	384.973575277045	0.524304570831
19	41561	385.497879847876	0.8119720575074
19	41666	386.309851905383	0.84478473156879
19	41770	387.154636636952	0.95289381557199
19	41906	388.107530452524	6.3464346995171
19	42533	394.453965152041	7.8732955415862
20	1425	13.742974636238	0.98875675211755
20	1539	14.731731388356	0.90751049261728
20	1681	15.639241880973	0.57369456088289
20	1741	16.212936441856	6.1024925374677
20	2423	22.315428979324	0.061698511876291
20	2434	22.3771274912	0.2991544890696
20	2451	22.67628198027	0.36794503774034
20	2496	23.04422701801	0.9301557675915
20	2592	23.974382785601	0.27986991359191
20	2636	24.254252699193	1.3444111356208
20	2743	25.598663834814	1.3137910539715
20	2872	26.912454888785	3.2429097447257
20	3218	30.155364633511	2.1200735474203
20	3410	32.275438180931	1.6463213256597
20	3583	33.921759506591	0.4185115183193
20	3624	34.34027102491	0.91529936318201
20	3726	35.255570388092	2.8704515316296
20	4018	38.126021919722	2.67333244815
20	4275	40.799354367872	2.6046785920566
20	4579	43.404032959929	1.9528202198711
20	4762	45.3568531798	0.51228172960167
20	4806	45.869134909402	2.8557077036822
20	5125	48.724842613084	0.67997919464112
20	5189	49.404821807725	0.95150363243207
20	5284	50.356325440157	2.5210952937639
20	5558	52.877420733921	5.295266622867
20	6118	58.172687356788	0.46633998608279
20	6152	58.639027342871	2.9968565369181
20	6549	61.635883879789	0.35013973682535
20	6585	61.986023616614	0.80883220184861
20	6676	62.794855818463	2.6807204186541
20	6952	65.475576237117	4.1194655711729
20	7437	69.59504180829	3.5938560898305
20	7831	73.18889789812	0.30291707897645
20	7858	73.491814977096	5.1276035017862
20	8438	78.619418478882	3.0792363538104
20	8745	81.698654832692	0.87945335274698
20	8837	82.578108185439	1.9702783689528
20	9098	84.548386554392	1.2999415612082
20	9251	85.8483281156	0.074660231840747
20	9252	85.922988347441	1.3572121609009
20	9433	87.280200508342	7.6017953716492
20	10097	94.881995879991	2.7145901023491
20	10309	97.59658598234	3.2327414739441
20	10682	100.829327456284	0.0062540335239378
20	10683	100.835581489808	0.88876114677064
20	10780	101.724342636579	3.3189480911352
20	11103	105.043290727714	0.19128355031691
20	11118	105.234574278031	0.78996611013268
20	11151	106.024540388164	3.0150062911652
20	11442	109.039546679329	2.7538594102012
20	11769	111.79340608953	3.3563957768299
20	12136	115.14980186636	2.1182904645451
20	12322	117.268092330905	1.4248874632098
20	12506	118.692979794115	0.27753101202675
20	12538	118.970510806142	2.7218752082428
20	12783	121.692386014385	1.0792993990697
20	12924	122.771685413455	0.49782508289508
20	12967	123.26951049635	0.33020358946629
20	13008	123.599714085816	0.36587800398514
20	13055	123.965592089801	2.7579250864017
20	13374	126.723517176203	3.4978894629101
20	13806	130.221406639113	1.6030976704118
20	14013	131.824504309525	2.4395586994701
20	14287	134.264063008995	1.655891851354
20	14463	135.919954860349	1.5297656462262
20	14611	137.449720506575	0.49567431868678
20	14673	137.945394825262	1.3260723046014
20	14821	139.271467129863	1.8570350980308
20	15011	141.128502227894	1.4141713240863
20	15156	142.54267355198	2.0201769944461
20	15344	144.562850546426	0.98991736842195
20	15440	145.552767914848	4.2083540702871
20	15905	149.761121985135	9.154531025848
20	16936	158.915653010983	0.53929414907509
20	16995	159.454947160058	2.3057220888884
20	17233	161.760669248946	0.05860556891906
20	17235	161.819274817865	11.980006177878
20	18464	173.799280995743	1.1561715910294
20	18617	174.955452586772	0.14609361991069
20	18639	175.101546206683	0.12324390041107
20	18657	175.224790107094	13.89010813356
20	20216	189.114898240654	3.6282563470503
20	20524	192.743154587704	8.2901118159903
20	21363	201.033266403694	0.35981935341985
20	21402	201.393085757114	0.46489276642979
20	21476	201.857978523544	1.6799841423655
20	21662	203.53796266591	0.93790792205583
20	21754	204.475870587966	2.3820996085618
20	22036	206.857970196528	0.1707463089898
20	22059	207.028716505518	3.1921141022151
20	22478	210.220830607733	1.605087361151
20	22658	211.825917968884	1.9359748342958
20	22875	213.76189280318	0.3248855396479
20	22908	214.086778342828	2.7510011865496
20	23182	216.837779529378	1.2642526738467
20	23327	218.102032203225	1.5360583494245
20	23485	219.638090552649	4.7394711398564
20	23945	224.377561692505	1.4964068138301
20	24142	225.873968506335	0.19236392791625
20	24160	226.066332434251	2.1270343039661
20	24401	228.193366738217	0.20894805995864
20	24424	228.402314798176	1.0101854484194
20	24510	229.412500246595	0.13622883175153
20	24544	229.548729078347	1.0081912599733
20	24639	230.55692033832	3.685499770701
20	25058	234.242420109021	3.9009176601479
20	25451	238.143337769169	0.50191506738875
20	25499	238.645252836558	2.1547904866317
20	25744	240.80004332319	1.0993918359034
20	25870	241.899435159093	0.94889763829646
20	25993	242.848332797389	0.53955145870225
20	26060	243.387884256091	0.87090384069921
20	26179	244.25878809679	2.9123777857486
20	26482	247.171165882539	0.30224357677121
20	26526	247.47340945931	1.8082757458919
20	26753	249.281685205202	1.075042829707
20	26841	250.356728034909	3.6716911238363
20	27243	254.028419158745	5.4793041800279
20	27961	259.507723338773	0.37056607428214
20	28013	259.878289413055	1.1207739540181
20	28168	260.999063367073	1.5013235396541
20	28292	262.500386906727	4.458716132341
20	28812	266.959103039068	1.037408039958
20	28870	267.996511079026	0.61739800791057
20	28948	268.613909086937	2.8636712613749
20	29227	271.477580348312	5.3827093594684
20	29675	276.86028970778	0.46668516435128
20	29726	277.326974872131	1.5932971391871
20	29876	278.920272011318	4.2590366299608
20	30362	283.179308641279	1.4333948185293
20	30532	284.612703459808	0.5852785447148
20	30575	285.197982004523	4.4403977154472
20	31005	289.63837971997	1.7008071369311
20	31179	291.339186856901	4.7498955667342
20	31704	296.089082423635	2.7377344621771
20	31970	298.826816885812	2.0962937152027
20	32185	300.923110601015	0.58895249148622
20	32265	301.512063092501	3.1678733571571
20	32617	304.679936449658	4.9509210925405
20	33214	309.630857542199	0.32895985912782
20	33257	309.959817401327	9.2308099487244
20	34361	319.190627350051	2.7410143556982
20	34656	321.931641705749	2.445732612497
20	34897	324.377374318246	0.67093328898632
20	34996	325.048307607232	1.6817097084044
20	35150	326.730017315636	0.85393738595103
20	35223	327.583954701587	2.5661239035922
20	35477	330.150078605179	0.29603727119772
20	35527	330.446115876377	6.5163098635783
20	36261	336.962425739955	4.2393387843736
20	36693	341.201764524329	0.57312225683017
20	36759	341.774886781159	0.50536967811778
20	36813	342.280256459277	0.9094282551424
20	36916	343.189684714419	3.4716590638539
20	37350	346.661343778273	1.7043627647743
20	37521	348.365706543047	5.4575628217776
20	38089	353.823269364825	1.0016900510633
20	38231	354.824959415888	4.1571749478334
20	38694	358.982134363721	5.6372057526761
20	39356	364.619340116397	3.1760096461549
20	39713	367.795349762552	0.23311537196526
20	39725	368.028465134517	2.3286118838846
20	39967	370.357077018402	0.16306866747628
20	39992	370.520145685878	0.39520820255263
20	40015	370.915353888431	2.3904864982248
20	40271	373.305840386656	2.4221189272407
20	40500	375.727959313897	3.3611269701484
20	40854	379.089086284045	0.58405216136127
20	40922	379.673138445406	0.016008827966268
20	40924	379.689147273372	2.4949884033308
20	41204	382.184135676703	3.0314559495804
20	41526	385.215591626283	0.052443539002291
20	41538	385.268035165285	0.73583143083699
20	41629	386.003866596122	1.2866328741742
20	41791	387.290499470296	0.4425682206784
20	41870	387.733067690974	8.0904144075997
20	42691	395.823482098574	0.37570804717058
20	42707	396.199190145745	1.6195446172904
20	42858	397.818734763035	1.051814968831
20	43018	398.870549731866	0.24377886009914
20	43078	399.114328591965	0.65931685330531
20	43152	399.77364544527	0.19512316993918
20	43168	399.968768615209	0.98890500121382
21	1814	16.928558995309	2.9010667262277
21	2122	19.829625721537	0.93886494212823
21	2250	20.768490663665	2.3009164078407
21	2497	23.069407071506	0.67451486230953
21	2576	23.743921933816	5.4651146500626
21	3095	29.209036583879	0.94721417989142
21	3219	30.15625076377	0.58400805570189
21	3275	30.740258819472	0.51154049595608
21	3325	31.251799315428	2.8699872692369
21	3607	34.121786584665	3.0987869236434
21	3934	37.220573508308	2.411483463331
21	4183	39.632056971639	0.48816576349527
21	4223	40.120222735134	3.0915584984892
21	4551	43.211781233623	1.272922792048
21	4676	44.484704025671	2.6948114964478
21	4943	47.179515522119	1.5438413585324
21	5124	48.723356880651	3.778722292562
21	5521	52.502079173213	0.51402580941646
21	5592	53.016104982629	3.1748368583467
21	5917	56.190941840976	1.3051638801551
21	6031	57.496105721131	0.67750880256438
21	6119	58.173614523695	0.78302370509321
21	6206	58.956638228788	1.0092364848234
21	6324	59.965874713611	2.299679931969
21	6632	62.26555464558	0.27075590884654
21	6650	62.536310554427	1.1965516936493
21	6765	63.732862248076	1.2518402342412
21	6903	64.984702482317	15.527870894587
21	8634	80.512573376904	0.32238274109362
21	8676	80.834956117998	0.031941898062803
21	8677	80.866898016061	6.3262828174492
21	9427	87.19318083351	5.6397339030455
21	9908	92.832914736556	6.4177407279908
21	10494	99.250655464547	1.4272076657669
21	10650	100.677863130314	1.2130609227838
21	10794	101.890924053098	2.3239887906967
21	11012	104.214912843795	0.4553622801204
21	11055	104.670275123915	2.1168563303409
21	11221	106.787131454256	0.14621414498233
21	11232	106.933345599238	0.066183124638504
21	11239	106.999528723877	3.3142425164395
21	11603	110.313771240317	0.037539397152611
21	11610	110.35131063747	2.0241490171079
21	11841	112.375459654578	1.3606134915383
21	11968	113.736073146116	8.7967571769743
21	12896	122.53283032309	0.15695937060678
21	12917	122.689789693697	0.079579349199568
21	12923	122.769369042897	0.45986499916093
21	12963	123.229234042058	1.0975465911049
21	13102	124.326780633163	2.3098643790725
21	13367	126.636645012236	0.0030146379278863
21	13368	126.639659650164	5.1075497378467
21	14010	131.747209388011	1.4696700063406
21	14154	133.216879394352	0.28413951193862
21	14205	133.501018906291	0.17220949089561
21	14223	133.673228397187	0.84655449240723
21	14333	134.519782889594	5.3420443198828
21	14871	139.861827209477	1.5250456066093
21	15025	141.386872816086	1.7942406220885
21	15230	143.181113438175	2.7162336415904
21	15495	145.897347079765	4.5512941028666
21	15961	150.448641182632	3.2818963224732
21	16340	153.730537505105	1.7105791923453
21	16513	155.44111669745	2.2456610431915
21	16765	157.686777740642	0.81822670231639
21	16885	158.505004442958	0.7792268339181
21	16984	159.284231276876	6.5839456368999
21	17666	165.868176913776	1.2923338489065
21	17812	167.160510762682	2.3333476553598
21	18058	169.493858418042	4.6809507527441
21	18492	174.174809170786	0.6431000962717
21	18596	174.817909267058	2.407892121649
21	18818	177.225801388707	3.2506339776058
21	19208	180.476435366313	4.1549275392008
21	19675	184.631362905514	2.2151200938042
21	19934	186.846482999318	0.64237481224355
21	20025	187.488857811562	0.98855133727391
21	20152	188.477409148836	0.37724755322045
21	20189	188.854656702056	2.8537110466702
21	20417	191.708367748726	0.021339946040532
21	20418	191.729707694767	1.0556726316736
21	20525	192.785380326441	0.34513549800423
21	20559	193.130515824445	0.8264600526499
21	20652	193.956975877095	4.8760942257503
21	21141	198.833070102845	2.8315583703893
21	21440	201.664628473234	3.0216268625371
21	21798	204.686255335771	3.5525091935608
21	22240	208.238764529332	0.69064924794294
21	22320	208.929413777275	8.0692303605722
21	23196	216.998644137847	1.9297912536854
21	23411	218.928435391532	3.9576253840535
21	23780	222.886060775586	4.0691625888283
21	24272	226.955223364414	0.040769895788516
21	24273	226.995993260203	2.6427762495249
21	24560	229.638769509728	2.9686537267307
21	24863	232.607423236459	0.27498258752974
21	24886	232.882405823989	0.1977399280401
21	24912	233.080145752029	0.77693771847102
21	25004	233.8570834705	1.1130356597468
21	25113	234.970119130247	0.66141912638762
21	25171	235.631538256635	2.1617330396403
21	25393	237.793271296275	0.94224621639838
21	25517	238.735517512673	0.49035608481897
21	25557	239.225873597492	0.77181826477915
21	25658	239.997691862271	3.4940219937784
21	26081	243.491713856049	1.8875203846776
21	26308	245.379234240727	3.7963751770816
21	26746	249.175609417809	2.1155877697742
21	26955	251.291197187583	12.545878621415
21	28439	263.837075808998	2.7732395879212
21	28760	266.610315396919	5.9968310903915
21	29339	272.607146487311	0.58462768874448
21	29389	273.191774176055	1.8659272501754
21	29523	275.05770142623	0.95447641736753
21	29610	276.012177843598	0.15020962044656
21	29617	276.162387464045	0.39611393486644
21	29650	276.558501398911	0.57662393122953
21	29707	277.135125330141	0.72172514044421
21	29797	277.856850470585	0.49624043397119
21	29852	278.353090904556	2.1296637813107
21	30084	280.482754685867	0.4334910941831
21	30140	280.91624578005	2.2211040097691
21	30350	283.137349789819	4.1419341845221
21	30843	287.279283974341	3.5410198509462
21	31126	290.820303825287	1.0112320297098
21	31238	291.831535854997	9.526979201676
21	32234	301.358515056673	1.5662251435023
21	32397	302.924740200175	0.074104257598272
21	32409	302.998844457773	3.6112508958193
21	32852	306.610095353592	0.75276594714428
21	32930	307.362861300736	1.3540638363446
21	33095	308.716925137081	1.2380823714116
21	33256	309.955007508493	4.408638287562
21	33741	314.363645796055	2.2542592509776
21	33999	316.617905047033	0.46097368597425
21	34057	317.078878733007	0.024124940450754
21	34063	317.103003673458	0.51370297339366
21	34144	317.616706646852	0.124224570488
21	34150	317.74093121734	1.9415988020887
21	34443	319.682530019429	3.4781374451476
21	34752	323.160667464577	0.12951746776223
21	34755	323.290184932339	10.111910669466
21	35821	333.402095601805	0.36042926211681
21	35860	333.762524863922	0.2710219037627
21	35891	334.033546767685	1.3038169172896
21	36052	335.337363684975	3.9941804987104
21	36527	339.331544183685	0.017367747273335
21	36528	339.348911930958	1.1836949372533
21	36654	340.532606868211	1.3961338681752
21	36765	341.928740736386	3.4940328889926
21	37195	345.422773625379	4.7628832656268
21	37710	350.185656891006	0.19422633312571
21	37728	350.379883224132	4.9463860809944
21	38292	355.326269305126	0.93160898745425
21	38369	356.25787829258	1.7259054051845
21	38549	357.983783697764	0.69957246812167
21	38658	358.683356165886	1.607614017753
21	38854	360.290970183639	0.019743615710255
21	38860	360.310713799349	0.25824256311226
21	38904	360.568956362461	0.32486453017328
21	38924	360.893820892634	0.7796782256016
21	39006	361.673499118236	3.3865928874481
21	39397	365.060092005684	0.3965614465316
21	39445	365.456653452216	1.4282871825404
21	39593	366.884940634756	0.66792736481284
21	39663	367.552867999569	4.6167396239423
21	40145	372.169607623511	0.4226292042808
21	40187	372.592236827792	6.3450444386586
21	40819	378.937281266451	0.78338280196517
21	40925	379.720664068416	0.51957924540564
21	40980	380.240243313822	9.44310879682
21	42053	389.683352110642	0.81486085507838
21	42126	390.49821296572	1.1040459559369
21	42209	391.602258921657	4.0101828319915
21	42658	395.612441753648	1.5820355695032
21	42821	397.194477323151	1.7130989684041
21	43031	398.907576291555	1.7901213754358

