file 6591486 1614185350                                         
version 2
run Nonmonitoring-exponential-271-20210224-17:49:09-26817
attr configname Nonmonitoring-exponential
attr datetime 20210224-17:49:09
attr experiment Nonmonitoring-exponential
attr inifile aerocom.ini
attr iterationvars $0=13
attr iterationvarsf 13-
attr measurement $0=13
attr network Aerocom
attr processid 26817
attr repetition 71
attr replication #71
attr resultdir results
attr runnumber 271
attr seedset 71
param **.t 2s
param **.k 13ms
param **.X 0.05s
param **.m 1s
param **.tDistribution "\"exponential\""
param **.operationMode 1
param **.s "70 byte"
param **.dimPoolMax 10000
param **.dimPoolMin 8000
param **.nDL 16
param **.nA 1
param **.DLMaxCapacity 0
param **.trasmitting false

vector 0 Aerocom.aircraft[0].linkSelector responseTime:vector ETV
attr "" ""
attr source computeResponseTime
vector 1 Aerocom.aircraft[0].linkSelector waitingTime:vector ETV
attr "" ""
attr source computeWaitingTime
vector 2 Aerocom.aircraft[0].linkSelector queueLength:vector ETV
attr "" ""
attr source computeQueueLength
vector 3 Aerocom.aircraft[0].dataLink[6] actualCapacity:vector ETV
attr "" ""
attr source computeActualCapacity
vector 4 Aerocom.aircraft[0].linkSelector serviceTime:vector ETV
attr "" ""
attr source computeServiceTime
vector 5 Aerocom.aircraft[0].packetGenerator arrivalTime:vector ETV
attr "" ""
attr source computeArrivalTime
vector 6 Aerocom.aircraft[0].dataLink[4] tDistribution:vector ETV
attr "" ""
attr source computeTDistribution
vector 7 Aerocom.aircraft[0].dataLink[15] tDistribution:vector ETV
attr "" ""
attr source computeTDistribution
vector 8 Aerocom.aircraft[0].dataLink[9] tDistribution:vector ETV
attr "" ""
attr source computeTDistribution
vector 9 Aerocom.aircraft[0].dataLink[10] tDistribution:vector ETV
attr "" ""
attr source computeTDistribution
vector 10 Aerocom.aircraft[0].dataLink[3] tDistribution:vector ETV
attr "" ""
attr source computeTDistribution
vector 11 Aerocom.aircraft[0].dataLink[14] tDistribution:vector ETV
attr "" ""
attr source computeTDistribution
vector 12 Aerocom.aircraft[0].dataLink[7] tDistribution:vector ETV
attr "" ""
attr source computeTDistribution
vector 13 Aerocom.aircraft[0].dataLink[11] tDistribution:vector ETV
attr "" ""
attr source computeTDistribution
vector 14 Aerocom.aircraft[0].dataLink[6] tDistribution:vector ETV
attr "" ""
attr source computeTDistribution
vector 15 Aerocom.aircraft[0].dataLink[5] tDistribution:vector ETV
attr "" ""
attr source computeTDistribution
vector 16 Aerocom.aircraft[0].dataLink[1] tDistribution:vector ETV
attr "" ""
attr source computeTDistribution
vector 17 Aerocom.aircraft[0].dataLink[8] tDistribution:vector ETV
attr "" ""
attr source computeTDistribution
vector 18 Aerocom.aircraft[0].dataLink[12] tDistribution:vector ETV
attr "" ""
attr source computeTDistribution
vector 19 Aerocom.aircraft[0].dataLink[0] tDistribution:vector ETV
attr "" ""
attr source computeTDistribution
vector 20 Aerocom.aircraft[0].dataLink[13] tDistribution:vector ETV
attr "" ""
attr source computeTDistribution
vector 21 Aerocom.aircraft[0].dataLink[2] tDistribution:vector ETV
attr "" ""
attr source computeTDistribution
0	3133 1196802 4087 157216 10.003976107551 399.971446927422 30010 0.007006305675 0.079425701797 399.83120649801 7.175406851878
1	1199935 1039206 4087 157214 10.003976107551 399.962956933486 30009 0 0.071535710814 168.45716854716 2.7697120285808
2	2239141 809942 4087 157214 10.003976107551 399.962956933486 30009 0 9 12866 28568
3	3049083 899969 4087 157214 10.003976107551 399.962956933486 30009 8008 9992 273093918 2490895578614
4	3949052 1316159 4087 157214 10.003976107551 399.962956933486 30009 0.0070056044835869 0.0087412587412587 231.35996656908 1.7878821119059
5	5265211 1196435 4093 157213 10.012689876005 399.962956933486 30008 2.46729e-07 0.147907341346 389.99257557563 10.116803489347
6	6461646 7690 4145 156667 10.127086173094 398.60666377043 186 0.012039758553263 12.972103555981 392.38455041722 1739.7363473776
7	6469336 7855 4146 156771 10.13084169384 398.846167261348 190 0.01605351334026 13.137252375728 391.2151881137 1505.1452384773
8	6477191 8595 4155 157198 10.166496235236 399.93677101672 208 0.0053778790164015 8.8099683822234 391.12031661185 1470.9892507899
9	6485786 7345 4158 155340 10.194951830599 395.248807768629 178 0.071194913488136 8.7038207371954 393.00502468547 1546.9691069028
10	6493131 8453 4243 155867 10.401020474773 396.716501843093 200 0.015381666516041 9.8198512130716 396.13533258139 1411.0616599499
11	6501584 8091 4396 155509 10.807214585612 395.729121086444 191 0.0070439665242145 10.757277962408 391.46237613671 1438.195510664
12	6509675 8574 4431 156915 10.933908924369 399.168816005111 202 0.016214208684316 13.732404524674 390.17062853365 1528.5378708555
13	6518249 7314 4546 156181 11.255959786761 397.552596945095 173 0.011889821436708 11.8430775732 388.95356853444 1678.42015711
14	6525563 8018 4618 157215 11.470966988431 399.963312079268 190 0.002973314798584 9.7258549099799 394.92610485073 1460.7202308357
15	6533581 7978 4804 156893 11.900480964681 399.116678048621 189 0.0007003295625462 15.029001154718 388.65787060715 1501.5121784158
16	6541559 8982 5408 156006 13.523039914617 397.04638814602 212 0.0088010421953795 9.6786814662048 389.61508174253 1304.7075586622
17	6550541 7247 5575 157204 13.986982369277 399.946239998513 171 0.0015425598952693 11.009087865679 390.05228188098 1677.9552311742
18	6557788 8928 6182 156511 15.60575640987 398.252440464918 210 0.00030115791114386 11.666183050241 388.02910912935 1489.0931090818
19	6566716 9110 6218 157091 15.738560088432 399.613919213888 215 0.0037332581507912 8.810399047987 385.18308823126 1323.1257650194
20	6575826 7903 6556 156982 16.62548346222 399.298279353259 187 0.0036381897256987 9.8255028029786 385.5528097454 1541.8532020295
21	6583729 7756 7671 154004 19.578674119948 391.404847267106 184 0.066663275725255 10.385870738469 382.21204388563 1527.300965406

