version 2
run Nonmonitoring-exponential-537-20210224-17:49:31-27070
attr configname Nonmonitoring-exponential
attr datetime 20210224-17:49:31
attr experiment Nonmonitoring-exponential
attr inifile aerocom.ini
attr iterationvars $0=50
attr iterationvarsf 50-
attr measurement $0=50
attr network Aerocom
attr processid 27070
attr repetition 37
attr replication #37
attr resultdir results
attr runnumber 537
attr seedset 37
param **.t 2s
param **.k 50ms
param **.X 0.05s
param **.m 1s
param **.tDistribution "\"exponential\""
param **.operationMode 1
param **.s "70 byte"
param **.dimPoolMax 10000
param **.dimPoolMin 8000
param **.nDL 16
param **.nA 1
param **.DLMaxCapacity 0
param **.trasmitting false

vector 0 Aerocom.aircraft[0].dataLink[7] tDistribution:vector ETV
attr "" ""
attr source computeTDistribution
vector 1 Aerocom.aircraft[0].packetGenerator arrivalTime:vector ETV
attr "" ""
attr source computeArrivalTime
vector 2 Aerocom.aircraft[0].linkSelector waitingTime:vector ETV
attr "" ""
attr source computeWaitingTime
vector 3 Aerocom.aircraft[0].linkSelector queueLength:vector ETV
attr "" ""
attr source computeQueueLength
vector 4 Aerocom.aircraft[0].dataLink[11] actualCapacity:vector ETV
attr "" ""
attr source computeActualCapacity
vector 5 Aerocom.aircraft[0].linkSelector serviceTime:vector ETV
attr "" ""
attr source computeServiceTime
vector 6 Aerocom.aircraft[0].linkSelector responseTime:vector ETV
attr "" ""
attr source computeResponseTime
vector 7 Aerocom.aircraft[0].dataLink[11] tDistribution:vector ETV
attr "" ""
attr source computeTDistribution
vector 8 Aerocom.aircraft[0].dataLink[5] tDistribution:vector ETV
attr "" ""
attr source computeTDistribution
vector 9 Aerocom.aircraft[0].dataLink[3] tDistribution:vector ETV
attr "" ""
attr source computeTDistribution
vector 10 Aerocom.aircraft[0].dataLink[15] tDistribution:vector ETV
attr "" ""
attr source computeTDistribution
vector 11 Aerocom.aircraft[0].dataLink[4] tDistribution:vector ETV
attr "" ""
attr source computeTDistribution
vector 12 Aerocom.aircraft[0].dataLink[2] tDistribution:vector ETV
attr "" ""
attr source computeTDistribution
vector 13 Aerocom.aircraft[0].dataLink[6] tDistribution:vector ETV
attr "" ""
attr source computeTDistribution
vector 14 Aerocom.aircraft[0].dataLink[1] tDistribution:vector ETV
attr "" ""
attr source computeTDistribution
vector 15 Aerocom.aircraft[0].dataLink[12] tDistribution:vector ETV
attr "" ""
attr source computeTDistribution
vector 16 Aerocom.aircraft[0].dataLink[9] tDistribution:vector ETV
attr "" ""
attr source computeTDistribution
vector 17 Aerocom.aircraft[0].dataLink[10] tDistribution:vector ETV
attr "" ""
attr source computeTDistribution
vector 18 Aerocom.aircraft[0].dataLink[13] tDistribution:vector ETV
attr "" ""
attr source computeTDistribution
vector 19 Aerocom.aircraft[0].dataLink[14] tDistribution:vector ETV
attr "" ""
attr source computeTDistribution
vector 20 Aerocom.aircraft[0].dataLink[8] tDistribution:vector ETV
attr "" ""
attr source computeTDistribution
vector 21 Aerocom.aircraft[0].dataLink[0] tDistribution:vector ETV
attr "" ""
attr source computeTDistribution
0	1120	10.02891772704	4.5885287640973
0	1544	14.617446491137	3.3361574088075
0	1899	17.953603899944	0.17952215915463
0	1914	18.133126059099	1.3290516392241
0	2042	19.462177698323	1.9738245448268
0	2300	21.43600224315	3.2328455140267
0	2652	24.668847757177	0.061051748379259
0	2661	24.729899505556	2.0750078512772
0	2879	26.804907356833	0.76818810928691
0	2949	27.57309546612	3.9171211266646
0	3368	31.490216592785	2.9154172740015
0	3763	34.405633866786	4.2702767098048
0	4182	38.675910576591	4.9992707978285
0	4702	43.675181374419	0.38686872329629
0	4768	44.062050097715	1.0386903064679
0	4859	45.100740404183	1.3527013573731
0	5032	46.453441761556	0.54704511346889
0	5089	47.000486875025	2.3538254753006
0	5362	49.354312350326	4.9916794198187
0	5996	54.345991770145	5.6157504389527
0	6549	59.961742209098	0.31204508975015
0	6579	60.273787298848	2.7576310757575
0	6835	63.031418374606	2.8332368689155
0	7152	65.864655243522	1.3315983470365
0	7292	67.196253590558	1.6144548073067
0	7439	68.810708397865	2.4300046765318
0	7717	71.240713074397	2.8653153543142
0	8088	74.106028428711	0.095199619627038
0	8109	74.201228048338	0.023120050595126
0	8110	74.224348098933	0.1059655113677
0	8129	74.330313610301	1.5146757444748
0	8299	75.844989354776	0.07301447059549
0	8312	75.918003825371	0.49996660722655
0	8358	76.417970432598	1.4880847997368
0	8535	77.906055232335	0.00084988993306676
0	8536	77.906905122268	1.7912399115135
0	8722	79.698145033781	4.8564120923828
0	9256	84.554557126164	0.33930680953258
0	9273	84.893863935697	1.6384446755399
0	9458	86.532308611237	2.0397506897388
0	9724	88.572059300976	1.1896238862871
0	9833	89.761683187263	0.23088312199066
0	9862	89.992566309254	1.0434160089858
0	10011	91.03598231824	2.2835374403173
0	10223	93.319519758557	2.8728431588453
0	10577	96.192362917402	0.23692151784346
0	10621	96.429284435245	0.84254763532938
0	10719	97.271832070574	0.81889691603498
0	10814	98.090728986609	3.7469239011848
0	11125	101.837652887794	0.85474150994722
0	11179	102.692394397741	1.0711219066975
0	11286	103.763516304438	1.157713006148
0	11416	104.921229310586	4.1750282195078
0	11891	109.096257530094	5.2577223514328
0	12480	114.353979881527	2.3830950637564
0	12786	116.737074945283	1.0364341597599
0	12915	117.773509105043	2.2158440164573
0	13111	119.9893531215	0.39711771385518
0	13144	120.386470835355	1.6002784841206
0	13307	121.986749319476	0.23265112848894
0	13315	122.219400447965	0.57619529387428
0	13352	122.795595741839	2.125976168444
0	13598	124.921571910283	0.5135425564556
0	13658	125.435114466739	1.9516021202611
0	13819	127.386716587	4.6471879516373
0	14280	132.033904538637	0.50830006628798
0	14328	132.542204604925	0.65883274143354
0	14398	133.201037346359	0.94536614405179
0	14527	134.146403490411	1.170349368002
0	14631	135.316752858413	0.21318495309683
0	14659	135.52993781151	0.47877872986021
0	14697	136.00871654137	1.1122910518851
0	14802	137.121007593255	5.427000507153
0	15423	142.548008100408	0.28047351103508
0	15460	142.828481611443	4.4826188041225
0	15889	147.311100415565	1.2349624585477
0	16006	148.546062874113	0.53598218550054
0	16060	149.082045059614	0.2779787529492
0	16094	149.360023812563	3.1427416602542
0	16362	152.502765472817	1.0193396029141
0	16498	153.522105075731	8.3678906357846
0	17354	161.889995711516	3.4038637352804
0	17696	165.293859446796	0.54447649658305
0	17778	165.838335943379	1.3498542606598
0	17903	167.188190204039	0.40598280520768
0	17947	167.594173009247	8.2784656576617
0	18849	175.872638666909	1.5408174640301
0	19029	177.413456130939	0.010746133341958
0	19030	177.424202264281	1.6692741503716
0	19185	179.093476414653	0.31372833788734
0	19228	179.40720475254	0.35610275145538
0	19247	179.763307503995	1.1689848123981
0	19358	180.932292316393	2.9741152779803
0	19631	183.906407594373	0.85261925080065
0	19771	184.759026845174	6.2685195449759
0	20435	191.02754639015	0.94941146235615
0	20508	191.976957852506	2.7347744054446
0	20919	194.711732257951	2.5505145282142
0	21173	197.262246786165	0.23937149931136
0	21184	197.501618285476	0.25918305596296
0	21226	197.760801341439	0.35897421315965
0	21276	198.119775554599	2.2433761975139
0	21517	200.363151752113	1.6965996552671
0	21737	202.05975140738	1.1275376167287
0	21823	203.187289024109	1.428199513563
0	21968	204.615488537672	8.8802550799713
0	22992	213.495743617643	0.51405386279533
0	23077	214.009797480438	0.96415754307483
0	23183	214.973955023513	4.014974842457
0	23674	218.98892986597	0.40595332384969
0	23702	219.39488318982	2.0121385632303
0	23913	221.40702175305	0.15041881462055
0	23932	221.557440567671	0.082773172645883
0	23959	221.640213740317	1.8738888419857
0	24157	223.514102582303	1.449498750282
0	24292	224.963601332585	1.5858916638479
0	24518	226.549492996433	8.7952422729062
0	25525	235.344735269339	1.1075500895766
0	25659	236.452285358916	0.80280252032753
0	25722	237.255087879244	1.5015180094842
0	25901	238.756605888728	5.0731726153681
0	26433	243.829778504096	5.4539154628043
0	26972	249.2836939669	0.31033485185908
0	26992	249.594028818759	2.0180197831278
0	27253	251.612048601887	1.2154372650157
0	27402	252.827485866903	2.5226794688625
0	27692	255.350165335766	1.4062386374453
0	27832	256.756403973211	0.21128375110298
0	27860	256.967687724314	0.11255496897936
0	27874	257.080242693293	1.4575143661661
0	28038	258.537757059459	0.9527562663828
0	28118	259.490513325842	0.17641283784447
0	28135	259.666926163686	0.8836292575015
0	28221	260.550555421187	1.9700253728387
0	28409	262.520580794026	0.95210024096665
0	28473	263.472681034993	0.26333669194884
0	28502	263.736017726942	0.15263724070586
0	28503	263.888654967648	1.3478974698772
0	28644	265.236552437525	8.3924622608087
0	29653	273.629014698334	1.128416863985
0	29780	274.757431562319	1.6600027821152
0	29961	276.417434344434	0.77736065254138
0	30068	277.194794996975	5.6352870942179
0	30666	282.830082091193	0.60105787063463
0	30698	283.431139961828	0.65524061957367
0	30737	284.086380581402	1.2987199224482
0	30884	285.38510050385	4.7707210893185
0	31366	290.155821593168	3.9663857306664
0	31785	294.122207323834	2.0206605808566
0	31977	296.142867904691	1.2435445261203
0	32105	297.386412430811	3.4394348331215
0	32432	300.825847263933	0.6345654358166
0	32488	301.46041269975	0.74116458085594
0	32596	302.201577280606	1.1347777259884
0	32760	303.336355006594	2.3777085445994
0	33006	305.714063551193	0.58733461469448
0	33077	306.301398165887	1.3287668600327
0	33249	307.63016502592	1.2849007090968
0	33368	308.915065735017	3.2177945425055
0	33723	312.132860277523	1.2896471060239
0	33891	313.422507383547	1.6945388103242
0	34077	315.117046193871	1.346358273293
0	34215	316.463404467164	2.6151180549189
0	34476	319.078522522083	0.13651244978657
0	34482	319.21503497187	1.262266914673
0	34617	320.477301886543	6.7278904929892
0	35303	327.205192379532	2.6393505869096
0	35603	329.844542966442	0.083797817631624
0	35612	329.928340784074	1.0592789038474
0	35715	330.987619687921	0.79955484230075
0	35783	331.787174530222	0.37408788322749
0	35813	332.161262413449	4.0872673325221
0	36268	336.248529745971	2.7816660075454
0	36542	339.030195753516	1.047172085009
0	36665	340.077367838525	1.7894451059594
0	36854	341.866812944484	3.2357046361531
0	37211	345.102517580637	1.750774665287
0	37446	346.853292245924	0.76767560985195
0	37530	347.620967855776	1.0364610363754
0	37617	348.657428892151	2.9502997723259
0	37898	351.607728664477	0.29698371269809
0	37934	351.904712377175	0.91370173165722
0	38080	352.818414108832	1.7512229756285
0	38247	354.56963708446	0.87648006185741
0	38347	355.446117146317	0.073119436465165
0	38367	355.519236582782	0.23097914858814
0	38396	355.75021573137	0.42298512784829
0	38432	356.173200859218	0.99454115150903
0	38548	357.167742010727	3.4801455199509
0	38889	360.647887530678	1.4848602537954
0	39053	362.132747784473	0.65296299159446
0	39118	362.785710776067	1.2535310832858
0	39243	364.039241859353	5.4337453055079
0	39790	369.472987164861	2.5635872516837
0	40091	372.036574416545	1.9041681541881
0	40274	373.940742570733	3.0182324438051
0	40632	376.958975014538	0.34351399877871
0	40697	377.302489013317	4.5937129925083
0	41209	381.896202005825	0.67882750520098
0	41309	382.575029511026	0.78620143956186
0	41440	383.361230950588	0.38691279617621
0	41520	383.748143746764	0.41924530153277
0	41582	384.167389048297	1.4601350516269
0	41709	385.627524099924	1.9696252043616
0	41904	387.597149304286	2.0932152552951
0	42101	389.690364559581	4.3904973665556
0	42527	394.080861926137	1.1288430784201
0	42663	395.209705004557	3.2325466199649
0	43048	398.442251624522	0.26324715380697
0	43082	398.705498778329	1.1143277075363
0	43229	399.819826485865	0.29440077209524
1	1121	10.152570699124	0.012676298777
1	1126	10.165246997901	0.120075307765
1	1131	10.285322305666	0.073231357427
1	1137	10.358553663093	0.056420728804
1	1143	10.414974391897	0.094833309335
1	1148	10.509807701232	0.006118897133
1	1150	10.515926598365	0.008886793253
1	1155	10.524813391618	0.158481286716
1	1166	10.683294678334	0.015854944257
1	1171	10.699149622591	0.004809761321
1	1173	10.703959383912	0.154578120403
1	1182	10.858537504315	0.049685116836
1	1187	10.908222621151	0.097444549406
1	1194	11.005667170557	0.116600974347
1	1200	11.122268144904	0.051376222221
1	1206	11.173644367125	0.020760416789
1	1211	11.194404783914	0.044398997112
1	1217	11.238803781026	0.052893331968
1	1222	11.291697112994	0.107776911918
1	1227	11.399474024912	0.129619142333
1	1232	11.529093167245	0.155216902492
1	1238	11.684310069737	0.023418928064
1	1243	11.707728997801	0.000252273026
1	1245	11.707981270827	0.073781242685
1	1254	11.781762513512	0.00927363899
1	1259	11.791036152502	0.113247476409
1	1265	11.904283628911	0.025891590292
1	1270	11.930175219203	0.048402640459
1	1278	11.978577859662	0.000715954793
1	1280	11.979293814455	0.008188342678
1	1285	11.987482157133	0.136815126583
1	1294	12.124297283716	0.023493761448
1	1299	12.147791045164	0.035320035925
1	1304	12.183111081089	0.050508173379
1	1310	12.233619254468	0.052974203206
1	1316	12.286593457674	0.030723337749
1	1322	12.317316795423	0.040721193542
1	1328	12.358037988965	0.037989800774
1	1334	12.396027789739	0.080410431446
1	1339	12.476438221185	0.021715779513
1	1344	12.498154000698	0.014676440198
1	1349	12.512830440896	0.053920187597
1	1354	12.566750628493	0.016146074479
1	1359	12.582896702972	0.032363150225
1	1364	12.615259853197	0.012763118452
1	1369	12.628022971649	0.030311326888
1	1374	12.658334298537	0.035423062795
1	1379	12.693757361332	0.00666500087
1	1381	12.700422362202	0.110665826874
1	1393	12.811088189076	0.026591589065
1	1398	12.837679778141	0.029628364613
1	1403	12.867308142754	0.015948024092
1	1408	12.883256166846	0.023750984694
1	1413	12.90700715154	0.021289070191
1	1418	12.928296221731	0.225896340574
1	1426	13.154192562305	0.183207959177
1	1431	13.337400521482	0.124863789034
1	1437	13.462264310516	0.012140571571
1	1442	13.474404882087	0.096156268619
1	1447	13.570561150706	0.057417903542
1	1453	13.627979054248	0.133467253579
1	1460	13.761446307827	0.001616346454
1	1462	13.763062654281	0.004529069615
1	1464	13.767591723896	0.090206665499
1	1475	13.857798389395	0.238091877031
1	1482	14.095890266426	0.060474791703
1	1487	14.156365058129	0.029811755919
1	1492	14.186176814048	0.168987126835
1	1497	14.355163940883	0.007474581645
1	1499	14.362638522528	0.044801886982
1	1507	14.40744040951	0.009222265407
1	1512	14.416662674917	0.01225319155
1	1517	14.428915866467	0.04886966382
1	1524	14.477785530287	0.063510301879
1	1529	14.541295832166	0.012737816638
1	1534	14.554033648804	0.001567825361
1	1536	14.555601474165	0.090048058005
1	1545	14.64564953217	0.027125099294
1	1550	14.672774631464	0.004292570847
1	1552	14.677067202311	0.01651035362
1	1562	14.693577555931	0.039898178999
1	1568	14.73347573493	0.005616143731
1	1570	14.739091878661	0.035057269992
1	1578	14.774149148653	0.027786461309
1	1583	14.801935609962	0.057213574053
1	1589	14.859149184015	0.091809868979
1	1594	14.950959052994	0.187386841678
1	1599	15.138345894672	0.005849805374
1	1601	15.144195700046	0.033584218523
1	1610	15.177779918569	0.215821137044
1	1618	15.393601055613	0.000183076841
1	1620	15.393784132454	0.013282549507
1	1625	15.407066681961	0.000228097128
1	1627	15.407294779089	0.063900988795
1	1639	15.471195767884	0.047790170344
1	1644	15.518985938228	0.05407183613
1	1649	15.573057774358	0.023648412864
1	1655	15.596706187222	0.00404731074
1	1657	15.600753497962	0.047503792249
1	1665	15.648257290211	0.059748058061
1	1670	15.708005348272	0.110061727041
1	1677	15.818067075313	0.015415076296
1	1682	15.833482151609	0.013170900135
1	1687	15.846653051744	0.11605698839
1	1692	15.962710040134	0.114922367436
1	1697	16.07763240757	0.085259975291
1	1703	16.162892382861	0.001114064056
1	1705	16.164006446917	0.025477421395
1	1713	16.189483868312	0.026567076056
1	1718	16.216050944368	0.085819268746
1	1723	16.301870213114	0.126758349793
1	1732	16.428628562907	0.011020806682
1	1737	16.439649369589	0.000364782013
1	1739	16.440014151602	0.036962180665
1	1747	16.476976332267	0.06600380184
1	1752	16.542980134107	0.026591809303
1	1757	16.56957194341	0.084982649212
1	1762	16.654554592622	0.130072381149
1	1767	16.784626973771	0.033514132575
1	1772	16.818141106346	0.087257284881
1	1778	16.905398391227	0.003725220989
1	1780	16.909123612216	0.034760432756
1	1788	16.943884044972	0.010694134291
1	1793	16.954578179263	0.006209552847
1	1795	16.96078773211	0.027001406412
1	1803	16.987789138522	0.00058300157
1	1805	16.988372140092	0.104240188432
1	1814	17.092612328524	0.122178893145
1	1821	17.214791221669	0.00913920245
1	1826	17.223930424119	0.035912735848
1	1831	17.259843159967	0.016680775246
1	1836	17.276523935213	0.092601629514
1	1842	17.369125564727	0.020293362267
1	1847	17.389418926994	0.004982547577
1	1849	17.394401474571	0.106670297899
1	1859	17.50107177247	0.081335973187
1	1864	17.582407745657	0.012655625453
1	1869	17.59506337111	0.003212429887
1	1871	17.598275800997	0.012479937506
1	1876	17.610755738503	0.050460678785
1	1885	17.661216417288	0.116744813657
1	1891	17.777961230945	0.173336652825
1	1897	17.95129788377	0.118561215447
1	1904	18.069859099217	0.025327756617
1	1909	18.095186855834	0.130681064419
1	1916	18.225867920253	0.053879751396
1	1922	18.279747671649	0.051512046716
1	1927	18.331259718365	0.012095090581
1	1932	18.343354808946	0.007242006978
1	1934	18.350596815924	0.110302701783
1	1942	18.460899517707	0.094331924651
1	1947	18.555231442358	0.215743144305
1	1954	18.770974586663	0.01633276777
1	1959	18.787307354433	0.067099441174
1	1965	18.854406795607	0.049700051594
1	1970	18.904106847201	0.05128947011
1	1976	18.955396317311	0.037894579792
1	1982	18.993290897103	0.014528070059
1	1987	19.007818967162	0.020339036225
1	1992	19.028158003387	0.03229495213
1	1997	19.060452955517	0.083629361185
1	2002	19.144082316702	0.01560261008
1	2007	19.159684926782	0.007258088743
1	2009	19.166943015525	0.101346459359
1	2017	19.268289474884	0.029627883799
1	2023	19.297917358683	0.015522907064
1	2028	19.313440265747	7.7650565e-05
1	2030	19.313517916312	0.180624998005
1	2043	19.494142914317	0.027652264683
1	2049	19.521795179	0.012011684832
1	2054	19.533806863832	0.018861248347
1	2059	19.552668112179	0.017675049545
1	2064	19.570343161724	0.002438684036
1	2066	19.57278184576	0.066736208177
1	2074	19.639518053937	0.006473471944
1	2076	19.645991525881	0.000648756781
1	2078	19.646640282662	0.047330464442
1	2091	19.693970747104	0.001535046143
1	2093	19.695505793247	0.042391841731
1	2101	19.737897634978	0.066179752969
1	2107	19.804077387947	0.064440073469
1	2113	19.868517461416	0.034483350713
1	2118	19.903000812129	0.010323310038
1	2123	19.913324122167	0.01229932272
1	2128	19.925623444887	0.00286579289
1	2130	19.928489237777	0.000448503833
1	2132	19.92893774161	0.023858137056
1	2143	19.952795878666	0.095090892262
1	2148	20.047886770928	0.049234478393
1	2153	20.097121249321	0.038437456677
1	2158	20.135558705998	0.024885213242
1	2163	20.16044391924	0.064278496848
1	2168	20.224722416088	0.233815537044
1	2176	20.458537953132	0.054168959997
1	2182	20.512706913129	0.078829025274
1	2187	20.591535938403	0.091249518872
1	2192	20.682785457275	0.033485830737
1	2197	20.716271288012	0.024567112002
1	2202	20.740838400014	0.048429831928
1	2208	20.789268231942	0.027772077307
1	2213	20.817040309249	0.108702417484
1	2219	20.925742726733	0.088050827021
1	2228	21.013793553754	0.056645292188
1	2234	21.070438845942	0.031650495278
1	2239	21.10208934122	0.041457949924
1	2244	21.143547291144	0.085748982978
1	2250	21.229296274122	0.05714583557
1	2255	21.286442109692	0.000713919621
1	2257	21.287156029313	0.010015849142
1	2262	21.297171878455	0.025272339519
1	2270	21.322444217974	0.034236078485
1	2275	21.356680296459	0.006868127131
1	2277	21.36354842359	0.045302684107
1	2285	21.408851107697	0.006283101561
1	2287	21.415134209258	0.009538677612
1	2295	21.42467288687	0.01153257046
1	2301	21.43620545733	0.068256584524
1	2306	21.504462041854	0.068842613816
1	2311	21.57330465567	0.002239796085
1	2313	21.575544451755	0.133024626126
1	2323	21.708569077881	0.039961745743
1	2329	21.748530823624	0.023954515251
1	2334	21.772485338875	0.05488246757
1	2341	21.827367806445	0.030864207605
1	2346	21.85823201405	0.023747480542
1	2351	21.881979494592	0.103321346864
1	2356	21.985300841456	0.166916683923
1	2362	22.152217525379	0.084240709046
1	2367	22.236458234425	0.020477457712
1	2372	22.256935692137	0.001264487102
1	2374	22.258200179239	0.165540557913
1	2383	22.423740737152	0.10318162138
1	2388	22.526922358532	0.066078703885
1	2393	22.593001062417	0.046386734044
1	2398	22.639387796461	0.054876217659
1	2403	22.69426401412	0.036328816178
1	2408	22.730592830298	0.022144781874
1	2414	22.752737612172	0.044492777515
1	2420	22.797230389687	0.037210092983
1	2427	22.83444048267	0.080424680554
1	2435	22.914865163224	0.022427921013
1	2440	22.937293084237	0.009514518681
1	2445	22.946807602918	0.084180386117
1	2450	23.030987989035	0.01034288293
1	2455	23.041330871965	0.051624708165
1	2460	23.09295558013	0.014931857608
1	2465	23.107887437738	0.073102718534
1	2471	23.180990156272	0.002620820537
1	2473	23.183610976809	0.002601583795
1	2475	23.186212560604	0.040219840441
1	2486	23.226432401045	0.068863392802
1	2491	23.295295793847	0.021681516226
1	2496	23.316977310073	0.073082394309
1	2501	23.390059704382	0.124438228359
1	2506	23.514497932741	0.125880266453
1	2512	23.640378199194	0.0323702597
1	2517	23.672748458894	0.048991471623
1	2523	23.721739930517	0.005520770268
1	2525	23.727260700785	0.03764600726
1	2534	23.764906708045	0.008274717446
1	2539	23.773181425491	0.029119021244
1	2544	23.802300446735	0.01597784703
1	2549	23.818278293765	0.136522158903
1	2556	23.954800452668	0.076060235459
1	2562	24.030860688127	0.030181218278
1	2567	24.061041906405	0.024970383972
1	2573	24.086012290377	0.010686570305
1	2578	24.096698860682	0.080192431199
1	2583	24.176891291881	0.038950631583
1	2588	24.215841923464	0.028375790422
1	2593	24.244217713886	0.120946931981
1	2600	24.365164645867	0.004253580647
1	2602	24.369418226514	0.003671475308
1	2607	24.373089701822	0.000535014941
1	2609	24.373624716763	0.083979076235
1	2620	24.457603792998	0.028183599455
1	2625	24.485787392453	0.001533298009
1	2627	24.487320690462	0.054359414077
1	2635	24.541680104539	0.031426977532
1	2640	24.573107082071	0.036201097771
1	2645	24.609308179842	0.073362536233
1	2653	24.682670716075	0.043390019696
1	2659	24.726060735771	0.020090951754
1	2665	24.746151687525	0.033972359007
1	2670	24.780124046532	0.052908500603
1	2677	24.833032547135	0.067447720938
1	2682	24.900480268073	0.003863943884
1	2684	24.904344211957	0.077893674968
1	2692	24.982237886925	0.074431301153
1	2697	25.056669188078	0.075950331222
1	2703	25.1326195193	0.011702615988
1	2708	25.144322135288	0.006821919679
1	2710	25.151144054967	0.127884113546
1	2718	25.279028168513	0.140787606304
1	2724	25.419815774817	0.038181068777
1	2729	25.457996843594	0.105070770252
1	2735	25.563067613846	0.025155376089
1	2740	25.588222989935	0.0601169017
1	2745	25.648339891635	0.060199964761
1	2750	25.708539856396	0.138147875313
1	2756	25.846687731709	0.030673639103
1	2761	25.877361370812	0.056010243886
1	2767	25.933371614698	0.098008518514
1	2774	26.031380133212	0.045122515711
1	2779	26.076502648923	0.012067477155
1	2784	26.088570126078	0.021156658521
1	2789	26.109726784599	0.033478197499
1	2795	26.143204982098	0.004363257761
1	2797	26.147568239859	0.01525506174
1	2805	26.162823301599	0.043296522771
1	2810	26.20611982437	0.030094303841
1	2815	26.236214128211	0.000888602225
1	2817	26.237102730436	0.065316742562
1	2827	26.302419472998	0.04019396934
1	2832	26.342613442338	0.100521269122
1	2837	26.44313471146	0.050064931432
1	2842	26.493199642892	0.002974270922
1	2844	26.496173913814	0.05672928174
1	2853	26.552903195554	0.06213795915
1	2858	26.615041154704	0.009348011577
1	2863	26.624389166281	0.086014116856
1	2869	26.710403283137	0.043026864163
1	2874	26.7534301473	0.072812048092
1	2880	26.826242195392	0.011531956745
1	2885	26.837774152137	0.017443840528
1	2890	26.855217992665	0.014482649664
1	2895	26.869700642329	0.028755005069
1	2900	26.898455647398	0.174116214244
1	2906	27.072571861642	0.054468199469
1	2911	27.127040061111	0.11345027975
1	2916	27.240490340861	0.101909745775
1	2923	27.342400086636	0.006553370416
1	2925	27.348953457052	0.010985587495
1	2933	27.359939044547	0.106531697172
1	2938	27.466470741719	0.025312576632
1	2943	27.491783318351	0.147807391969
1	2950	27.63959071032	0.022617965218
1	2956	27.662208675538	0.030801398207
1	2961	27.693010073745	0.047707865396
1	2967	27.740717939141	0.026632302966
1	2973	27.767350242107	0.012762148461
1	2978	27.780112390568	0.043035894585
1	2983	27.823148285153	0.054243569722
1	2988	27.877391854875	0.024183311443
1	2993	27.901575166318	0.14467040386
1	2998	28.046245570178	0.008969972074
1	3003	28.055215542252	0.092517636457
1	3009	28.147733178709	0.052308151043
1	3017	28.200041329752	0.088157433646
1	3022	28.288198763398	0.014320649621
1	3027	28.302519413019	0.104171113014
1	3032	28.406690526033	0.053780410566
1	3038	28.460470936599	0.083780835357
1	3043	28.544251771956	0.115339429564
1	3048	28.65959120152	0.054630044521
1	3054	28.714221246041	0.119059804128
1	3059	28.833281050169	0.011594129547
1	3064	28.844875179716	0.065338294788
1	3070	28.910213474504	0.175903843147
1	3075	29.086117317651	0.009618288245
1	3080	29.095735605896	0.021048919216
1	3085	29.116784525112	0.027017263558
1	3090	29.14380178867	0.004413290047
1	3092	29.148215078717	0.014666926441
1	3100	29.162882005158	0.02824528189
1	3105	29.191127287048	0.066808648119
1	3111	29.257935935167	0.147098332942
1	3117	29.405034268109	0.023226929046
1	3122	29.428261197155	0.045600713406
1	3128	29.473861910561	0.029812491232
1	3133	29.503674401793	0.026754268109
1	3138	29.530428669902	0.138215574433
1	3144	29.668644244335	0.029897585828
1	3151	29.698541830163	0.083846644674
1	3157	29.782388474837	0.125796453199
1	3162	29.908184928036	0.001536066006
1	3164	29.909720994042	0.015705141083
1	3172	29.925426135125	0.014813192635
1	3177	29.94023932776	0.003067131875
1	3179	29.943306459635	0.043290193804
1	3187	29.986596653439	0.015860172599
1	3192	30.002456826038	0.024186828618
1	3197	30.026643654656	0.011963504965
1	3202	30.038607159621	0.075236314918
1	3207	30.113843474539	0.089295282386
1	3212	30.203138756925	0.037712076654
1	3217	30.240850833579	0.005362961064
1	3219	30.246213794643	0.006165765683
1	3224	30.252379560326	0.000542939182
1	3226	30.252922499508	0.072285470484
1	3237	30.325207969992	0.037290181934
1	3242	30.362498151926	0.010679191882
1	3248	30.373177343808	0.073237180593
1	3253	30.446414524401	0.023565399664
1	3259	30.469979924065	0.084899994539
1	3266	30.554879918604	2.049755e-06
1	3268	30.554881968359	0.007035033909
1	3270	30.561917002268	0.146798566739
1	3282	30.708715569007	0.040142096402
1	3288	30.748857665409	0.059967625179
1	3293	30.808825290588	0.060731685208
1	3298	30.869556975796	0.004907608763
1	3300	30.874464584559	0.041347056097
1	3308	30.915811640656	0.140226729646
1	3313	31.056038370302	0.043762032596
1	3318	31.099800402898	0.018904700791
1	3323	31.118705103689	0.024865530915
1	3328	31.143570634604	0.015011014748
1	3333	31.158581649352	0.014952034117
1	3338	31.173533683469	0.015349764942
1	3343	31.188883448411	0.075179443181
1	3348	31.264062891592	0.06647642161
1	3353	31.330539313202	0.029534756218
1	3358	31.36007406942	0.099290676113
1	3363	31.459364745533	0.07403173914
1	3370	31.533396484673	0.002854352887
1	3372	31.53625083756	0.018332866812
1	3380	31.554583704372	0.000585571434
1	3382	31.555169275806	0.004888962346
1	3384	31.560058238152	0.314223643949
1	3397	31.874281882101	0.057432699782
1	3402	31.931714581883	0.025986028099
1	3407	31.957700609982	0.015205888056
1	3412	31.972906498038	0.091846355743
1	3418	32.064752853781	0.061130401544
1	3423	32.125883255325	0.00408310629
1	3425	32.129966361615	0.010327463547
1	3430	32.140293825162	0.092188386579
1	3438	32.232482211741	0.027853182457
1	3443	32.260335394198	0.001123802481
1	3445	32.261459196679	0.116970193953
1	3454	32.378429390632	0.027221553009
1	3459	32.405650943641	0.030913796313
1	3464	32.436564739954	0.031611190308
1	3469	32.468175930262	0.006718271472
1	3471	32.474894201734	0.012860216462
1	3479	32.487754418196	0.082508498331
1	3484	32.570262916527	0.024107163403
1	3489	32.59437007993	0.012801319426
1	3494	32.607171399356	0.024487111922
1	3499	32.631658511278	0.000936343319
1	3501	32.632594854597	0.096030224837
1	3513	32.728625079434	0.013198583722
1	3518	32.741823663156	0.007476195677
1	3520	32.749299858833	0.001559152365
1	3525	32.750859011198	0.055318490849
1	3533	32.806177502047	0.081210529079
1	3540	32.887388031126	0.042878561319
1	3545	32.930266592445	0.040209161769
1	3550	32.970475754214	0.007079204142
1	3552	32.977554958356	0.007518767898
1	3557	32.985073726254	0.008968977075
1	3565	32.994042703329	0.080816847369
1	3570	33.074859550698	0.02717240193
1	3575	33.102031952628	0.039518146058
1	3580	33.141550098686	0.000565150173
1	3582	33.142115248859	0.000776153307
1	3584	33.142891402166	0.012160303232
1	3589	33.155051705398	0.043631827569
1	3600	33.198683532967	0.019377006413
1	3605	33.21806053938	0.054107069682
1	3611	33.272167609062	0.085106162358
1	3616	33.35727377142	0.006981685855
1	3618	33.364255457275	0.09170545523
1	3627	33.455960912505	0.022167817056
1	3632	33.478128729561	0.037476869907
1	3637	33.515605599468	0.008952137485
1	3642	33.524557736953	0.014807735877
1	3649	33.53936547283	0.136688335132
1	3655	33.676053807962	0.003611292591
1	3657	33.679665100553	0.078323403697
1	3666	33.75798850425	0.103993659554
1	3673	33.861982163804	0.031381433737
1	3678	33.893363597541	0.030695434724
1	3683	33.924059032265	0.00133431749
1	3685	33.925393349755	0.024929968101
1	3693	33.950323317856	0.005947896462
1	3695	33.956271214318	0.027712928866
1	3704	33.983984143184	0.084509890314
1	3711	34.068494033498	0.051492760483
1	3716	34.119986793981	0.036292899568
1	3722	34.156279693549	0.038988617526
1	3727	34.195268311075	0.010115931066
1	3733	34.205384242141	0.061749995393
1	3738	34.267134237534	0.01450727636
1	3743	34.281641513894	0.002284237433
1	3745	34.283925751327	0.052807405713
1	3753	34.33673315704	0.049305591228
1	3758	34.386038748268	0.081031852296
1	3764	34.467070600564	0.174439831169
1	3769	34.641510431733	0.105811741893
1	3774	34.747322173626	0.084995140196
1	3780	34.832317313822	0.035115208018
1	3785	34.86743252184	0.071669794511
1	3790	34.939102316351	0.001224054778
1	3792	34.940326371129	0.033509331269
1	3801	34.973835702398	0.027272646563
1	3806	35.001108348961	0.006707959305
1	3808	35.007816308266	0.073227675358
1	3816	35.081043983624	0.017487307884
1	3821	35.098531291508	0.00025602019
1	3823	35.098787311698	0.00131515215
1	3825	35.100102463848	0.016674009718
1	3833	35.116776473566	0.004206944354
1	3835	35.12098341792	0.035903562656
1	3846	35.156886980576	0.002155279446
1	3848	35.159042260022	0.003724919631
1	3850	35.162767179653	0.030372138021
1	3861	35.193139317674	0.086850175456
1	3868	35.27998949313	0.001580391813
1	3870	35.281569884943	0.08455904657
1	3878	35.366128931513	0.162228468797
1	3885	35.52835740031	0.075273959586
1	3890	35.603631359896	0.027152074218
1	3895	35.630783434114	0.095607442377
1	3900	35.726390876491	0.023411677129
1	3905	35.74980255362	0.056695931549
1	3912	35.806498485169	0.035208692751
1	3917	35.84170717792	0.145333674423
1	3924	35.987040852343	0.002414498101
1	3926	35.989455350444	0.024704012324
1	3934	36.014159362768	0.065310275782
1	3941	36.07946963855	0.140998978662
1	3947	36.220468617212	0.004860195963
1	3949	36.225328813175	0.000409481106
1	3951	36.225738294281	0.185767579582
1	3963	36.411505873863	0.138246086029
1	3969	36.549751959892	0.026546345816
1	3974	36.576298305708	0.015725026124
1	3979	36.592023331832	0.077511818623
1	3984	36.669535150455	0.022443700358
1	3989	36.691978850813	0.171206061402
1	3996	36.863184912215	0.01623017641
1	4001	36.879415088625	0.132134566926
1	4007	37.011549655551	0.010145649043
1	4012	37.021695304594	0.084560569832
1	4017	37.106255874426	0.113513233529
1	4022	37.219769107955	0.127120852282
1	4029	37.346889960237	0.024174549154
1	4034	37.371064509391	0.062169547191
1	4041	37.433234056582	0.021104571969
1	4046	37.454338628551	0.041989329602
1	4051	37.496327958153	0.011030777728
1	4056	37.507358735881	0.091245234442
1	4061	37.598603970323	0.025475818141
1	4068	37.624079788464	0.049183362217
1	4074	37.673263150681	0.011568201644
1	4079	37.684831352325	0.00423963976
1	4081	37.689070992085	0.02101501738
1	4089	37.710086009465	0.075901285101
1	4095	37.785987294566	0.02102625113
1	4100	37.807013545696	0.022119881104
1	4105	37.8291334268	0.000695975816
1	4107	37.829829402616	0.077969488056
1	4117	37.907798890672	0.025664671868
1	4122	37.93346356254	0.043162227084
1	4127	37.976625789624	0.037264163249
1	4132	38.013889952873	0.076415783946
1	4138	38.090305736819	0.096986428254
1	4144	38.187292165073	0.082590062223
1	4150	38.269882227296	0.033042702113
1	4155	38.302924929409	0.020111901987
1	4160	38.323036831396	0.100171907317
1	4165	38.423208738713	0.172492725326
1	4172	38.595701464039	0.012166290359
1	4177	38.607867754398	0.115512083497
1	4183	38.723379837895	0.018747539011
1	4188	38.742127376906	0.087272975451
1	4193	38.829400352357	0.079590887331
1	4198	38.908991239688	0.02727817784
1	4203	38.936269417528	0.02041508929
1	4208	38.956684506818	0.004661113664
1	4210	38.961345620482	0.020973446566
1	4218	38.982319067048	0.052825715932
1	4224	39.03514478298	0.019003896064
1	4230	39.054148679044	0.01877676446
1	4235	39.072925443504	0.037857163314
1	4240	39.110782606818	0.033577132638
1	4246	39.144359739456	0.079701877785
1	4252	39.224061617241	0.077505795995
1	4258	39.301567413236	0.026268032314
1	4263	39.32783544555	0.022982800816
1	4268	39.350818246366	0.025485159332
1	4273	39.376303405698	0.149640675298
1	4278	39.525944080996	0.005951831171
1	4280	39.531895912167	0.01571547484
1	4288	39.547611387007	0.146403563606
1	4294	39.694014950613	0.006708866153
1	4296	39.700723816766	0.045210986759
1	4304	39.745934803525	0.065677545253
1	4310	39.811612348778	0.051075434275
1	4315	39.862687783053	0.006164362465
1	4317	39.868852145518	0.006012363515
1	4322	39.874864509033	0.134727412263
1	4330	40.009591921296	0.034874395071
1	4335	40.044466316367	0.001360696573
1	4337	40.04582701294	0.062357046402
1	4345	40.108184059342	0.029414516124
1	4351	40.137598575466	0.028084018391
1	4356	40.165682593857	0.053865645211
1	4362	40.219548239068	0.106112664772
1	4368	40.32566090384	0.004702532487
1	4370	40.330363436327	0.08947608346
1	4379	40.419839519787	0.003117162805
1	4381	40.422956682592	0.036697680647
1	4389	40.459654363239	0.140336022982
1	4394	40.599990386221	0.039724365406
1	4399	40.639714751627	0.138072923763
1	4405	40.77778767539	0.08991239068
1	4413	40.86770006607	0.141227543984
1	4420	41.008927610054	0.00955442609
1	4425	41.018482036144	0.007720999817
1	4430	41.026203035961	0.045493369217
1	4435	41.071696405178	0.040513399659
1	4440	41.112209804837	0.025079469664
1	4446	41.137289274501	0.008437138141
1	4451	41.145726412642	0.016417033118
1	4456	41.16214344576	0.02759599753
1	4461	41.18973944329	0.111828304516
1	4466	41.301567747806	0.079897422554
1	4472	41.38146517036	0.017602892784
1	4477	41.399068063144	0.010925474779
1	4482	41.409993537923	0.083033247837
1	4488	41.49302678576	0.036569254485
1	4493	41.529596040245	0.135015622177
1	4500	41.664611662422	0.008807838133
1	4505	41.673419500555	0.037576646069
1	4510	41.710996146624	0.000204644808
1	4512	41.711200791432	0.010680506263
1	4517	41.721881297695	0.046654866881
1	4525	41.768536164576	0.016098046819
1	4530	41.784634211395	0.166588871397
1	4538	41.951223082792	0.171486039216
1	4546	42.122709122008	0.093618242403
1	4552	42.216327364411	0.026549360857
1	4557	42.242876725268	0.054850904265
1	4563	42.297727629533	0.149119258739
1	4569	42.446846888272	0.070425112747
1	4575	42.517272001019	0.00616637186
1	4577	42.523438372879	0.003265084706
1	4582	42.526703457585	0.051488357282
1	4590	42.578191814867	0.031758061598
1	4595	42.609949876465	0.018399172746
1	4600	42.628349049211	0.019020397952
1	4605	42.647369447163	0.031487045661
1	4610	42.678856492824	0.009959484489
1	4615	42.688815977313	0.275002725247
1	4621	42.96381870256	0.036031070661
1	4626	42.999849773221	0.000326948679
1	4628	43.0001767219	0.018687180294
1	4636	43.018863902194	0.133206086524
1	4641	43.152069988718	0.075281984412
1	4647	43.22735197313	0.00191288837
1	4649	43.2292648615	0.015354769623
1	4657	43.244619631123	0.028482183688
1	4663	43.273101814811	0.126862517447
1	4671	43.399964332258	0.030765216131
1	4676	43.430729548389	0.066790160988
1	4681	43.497519709377	0.028668332542
1	4686	43.526188041919	0.000147560512
1	4688	43.526335602431	0.019910525335
1	4696	43.546246127766	0.164889077487
1	4703	43.711135205253	0.004609837807
1	4705	43.71574504306	0.055060878666
1	4713	43.770805921726	0.031487674342
1	4718	43.802293596068	0.005444380173
1	4720	43.807737976241	0.001714494497
1	4725	43.809452470738	0.089950990801
1	4733	43.899403461539	0.003012648803
1	4735	43.902416110342	0.0197877585
1	4743	43.922203868842	0.010130507121
1	4748	43.932334375963	0.061951693546
1	4753	43.994286069509	0.013376921043
1	4758	44.007662990552	0.037082825453
1	4763	44.044745816005	0.062626279452
1	4769	44.107372095457	0.001187923123
1	4771	44.10856001858	0.010640141093
1	4776	44.119200159673	0.00179700588
1	4778	44.120997165553	0.179821450153
1	4789	44.300818615706	0.059801819046
1	4794	44.360620434752	0.100512753373
1	4799	44.461133188125	0.017661749643
1	4804	44.478794937768	0.012202181513
1	4809	44.490997119281	0.018611476773
1	4814	44.509608596054	0.052663486152
1	4819	44.562272082206	0.008780293542
1	4824	44.571052375748	0.013170027884
1	4830	44.584222403632	0.29416579011
1	4838	44.878388193742	0.045664258175
1	4844	44.924052451917	0.014062391738
1	4849	44.938114843655	0.007308430535
1	4854	44.94542327419	0.214758122302
1	4860	45.160181396492	0.095687515809
1	4867	45.255868912301	0.018151544623
1	4872	45.274020456924	0.008047221123
1	4877	45.282067678047	0.015052417364
1	4883	45.297120095411	0.03868054097
1	4888	45.335800636381	0.027469536485
1	4893	45.363270172866	0.320743037378
1	4900	45.684013210244	0.036990179581
1	4905	45.721003389825	0.066965168329
1	4910	45.787968558154	0.023087102209
1	4915	45.811055660363	0.135322347848
1	4920	45.946378008211	0.011963329958
1	4925	45.958341338169	0.012531691142
1	4930	45.970873029311	0.006808188705
1	4932	45.977681218016	0.026135568932
1	4940	46.003816786948	0.014280143555
1	4945	46.018096930503	0.006821176274
1	4948	46.024918106777	0.035207801912
1	4959	46.060125908689	0.031533868595
1	4965	46.091659777284	0.003185614683
1	4967	46.094845391967	0.022857066791
1	4976	46.117702458758	0.017879966646
1	4981	46.135582425404	0.017566699607
1	4986	46.153149125011	0.051046783599
1	4992	46.20419590861	0.041230829531
1	4997	46.245426738141	0.039015486877
1	5002	46.284442225018	0.064925210549
1	5007	46.349367435567	0.031725567558
1	5012	46.381093003125	0.017645440169
1	5017	46.398738443294	0.037545849973
1	5022	46.436284293267	0.004578224196
1	5024	46.440862517463	0.068196417205
1	5033	46.509058934668	0.062540282965
1	5038	46.571599217633	0.024516883745
1	5043	46.596116101378	0.004087969632
1	5045	46.60020407101	0.056374655198
1	5054	46.656578726208	0.061093765562
1	5061	46.71767249177	0.100238152076
1	5066	46.817910643846	0.020586702838
1	5071	46.838497346684	0.046644479911
1	5076	46.885141826595	0.062284429487
1	5082	46.947426256082	0.064504106345
1	5090	47.011930362427	0.001670294543
1	5092	47.01360065697	0.001700259777
1	5094	47.015300916747	8.027518e-05
1	5096	47.015381191927	0.029882400077
1	5110	47.045263592004	0.012449200105
1	5115	47.057712792109	0.023238699619
1	5120	47.080951491728	0.159301199768
1	5125	47.240252691496	0.00799606549
1	5130	47.248248756986	0.033950284185
1	5135	47.282199041171	0.035788050382
1	5140	47.317987091553	0.004944242518
1	5142	47.322931334071	0.000502807644
1	5144	47.323434141715	0.064609163387
1	5156	47.388043305102	0.095235759745
1	5162	47.483279064847	0.086829563972
1	5167	47.570108628819	0.040708041752
1	5173	47.610816670571	0.033997424189
1	5179	47.64481409476	0.024440445997
1	5184	47.669254540757	0.018872593461
1	5189	47.688127134218	0.051869534589
1	5194	47.739996668807	0.066703286754
1	5199	47.806699955561	0.071932044821
1	5205	47.878632000382	0.00464836191
1	5207	47.883280362292	0.014280867368
1	5215	47.89756122966	0.049490155265
1	5220	47.947051384925	0.025894222221
1	5225	47.972945607146	0.020574806316
1	5230	47.993520413462	0.009863692142
1	5235	48.003384105604	0.01179028568
1	5240	48.015174391284	0.054003327813
1	5246	48.069177719097	0.038084686213
1	5251	48.10726240531	0.376477995716
1	5259	48.483740401026	0.022260304609
1	5264	48.506000705635	0.001661430851
1	5266	48.507662136486	0.057856488709
1	5274	48.565518625195	0.007424675037
1	5276	48.572943300232	0.074248781068
1	5284	48.6471920813	0.011806918199
1	5289	48.658998999499	0.027129642845
1	5294	48.686128642344	0.002242854862
1	5296	48.688371497206	0.005302941476
1	5298	48.693674438682	0.018662196248
1	5310	48.71233663493	0.164137113624
1	5317	48.876473748554	0.008008434632
1	5322	48.884482183186	0.037061268992
1	5327	48.921543452178	0.033528174027
1	5332	48.955071626205	0.255790336083
1	5340	49.210861962288	0.024076478424
1	5345	49.234938440712	0.047038110427
1	5350	49.281976551139	0.037381799945
1	5357	49.319358351084	0.065797585256
1	5363	49.38515593634	0.003515455395
1	5365	49.388671391735	0.072796899824
1	5375	49.461468291559	0.020887820001
1	5380	49.48235611156	0.028692214753
1	5386	49.511048326313	0.05273291818
1	5392	49.563781244493	0.022443116157
1	5397	49.58622436065	0.047642724358
1	5402	49.633867085008	0.012722561439
1	5407	49.646589646447	0.012405953214
1	5413	49.658995599661	0.023516447757
1	5418	49.682512047418	0.020882092609
1	5423	49.703394140027	0.062267390981
1	5429	49.765661531008	0.015283040691
1	5435	49.780944571699	0.01549106254
1	5440	49.796435634239	0.001059737173
1	5442	49.797495371412	0.01733295994
1	5450	49.814828331352	0.006579811778
1	5452	49.82140814313	0.016896912819
1	5460	49.838305055949	0.032375135638
1	5467	49.870680191587	0.031715829766
1	5472	49.902396021353	0.033089953163
1	5477	49.935485974516	0.027041104356
1	5482	49.962527078872	0.0337531975
1	5488	49.996280276372	0.009534861841
1	5493	50.005815138213	0.244772889375
1	5500	50.250588027588	0.07817759068
1	5506	50.328765618268	0.04562043614
1	5512	50.374386054408	0.130612878175
1	5518	50.504998932583	0.018228846895
1	5524	50.523227779478	0.010073444808
1	5529	50.533301224286	0.09606068526
1	5536	50.629361909546	0.038575357294
1	5541	50.66793726684	0.068587970977
1	5546	50.736525237817	0.002037554328
1	5548	50.738562792145	0.017451160553
1	5557	50.756013952698	0.11130675247
1	5563	50.867320705168	0.091841339515
1	5568	50.959162044683	0.01498860212
1	5574	50.974150646803	0.015379031767
1	5579	50.98952967857	0.015017717037
1	5584	51.004547395607	0.033082098692
1	5590	51.037629494299	0.007660919691
1	5592	51.04529041399	0.039804931794
1	5600	51.085095345784	0.009465917016
1	5605	51.0945612628	0.021222437443
1	5610	51.115783700243	0.101268120183
1	5615	51.217051820426	0.044009500021
1	5621	51.261061320447	0.086663797447
1	5627	51.347725117894	0.041650273703
1	5632	51.389375391597	0.013743371239
1	5638	51.403118762836	0.023109554776
1	5643	51.426228317612	0.008302875605
1	5648	51.434531193217	0.050454694145
1	5654	51.484985887362	0.046513818942
1	5659	51.531499706304	0.092495283483
1	5664	51.623994989787	0.04580727564
1	5669	51.669802265427	0.051014439503
1	5674	51.72081670493	0.155979827876
1	5679	51.876796532806	0.028287204191
1	5685	51.905083736997	0.117956602846
1	5691	52.023040339843	0.078096500676
1	5696	52.101136840519	0.005399249926
1	5698	52.106536090445	0.005971373101
1	5703	52.112507463546	0.024433687092
1	5712	52.136941150638	0.01708298496
1	5717	52.154024135598	0.089754297996
1	5722	52.243778433594	0.217709255428
1	5728	52.461487689022	0.007221572163
1	5730	52.468709261185	0.017217613287
1	5738	52.485926874472	0.025765783
1	5743	52.511692657472	0.038794968885
1	5749	52.550487626357	0.0478963126
1	5754	52.598383938957	0.030159118381
1	5760	52.628543057338	0.046332281395
1	5765	52.674875338733	0.004193048682
1	5767	52.679068387415	0.026455445744
1	5775	52.705523833159	0.039544294656
1	5781	52.745068127815	0.152265806955
1	5786	52.89733393477	0.070574709777
1	5791	52.967908644547	0.05398728868
1	5797	53.021895933227	0.069905385509
1	5803	53.091801318736	0.015153348842
1	5808	53.106954667578	0.063924828266
1	5813	53.170879495844	0.036088061693
1	5818	53.206967557537	0.022914407146
1	5823	53.229881964683	0.098403389088
1	5830	53.328285353771	0.012163002128
1	5835	53.340448355899	0.009350305981
1	5840	53.34979866188	0.029145415629
1	5845	53.378944077509	0.009325807826
1	5850	53.388269885335	0.048218835959
1	5856	53.436488721294	0.057137694107
1	5862	53.493626415401	0.046838631185
1	5869	53.540465046586	0.023368823717
1	5874	53.563833870303	0.028669320738
1	5879	53.592503191041	0.012356916379
1	5884	53.60486010742	0.076504498875
1	5891	53.681364606295	0.010664848851
1	5896	53.692029455146	0.081918910005
1	5903	53.773948365151	0.026275153613
1	5908	53.800223518764	0.045718487703
1	5915	53.845942006467	0.028077746688
1	5920	53.874019753155	0.012312357668
1	5925	53.886332110823	0.055739711075
1	5930	53.942071821898	0.00941751886
1	5935	53.951489340758	0.028971951268
1	5940	53.980461292026	0.050636881252
1	5945	54.031098173278	0.037192268137
1	5951	54.068290441415	0.025612254032
1	5956	54.093902695447	0.018185871398
1	5961	54.112088566845	0.084355591352
1	5966	54.196444158197	0.014571433118
1	5971	54.211015591315	0.010458250682
1	5976	54.221473841997	0.018744129254
1	5981	54.240217971251	0.055052766431
1	5986	54.295270737682	0.031579519529
1	5991	54.326850257211	0.032219184478
1	5997	54.359069441689	0.085808046263
1	6002	54.444877487952	0.075376653033
1	6007	54.520254140985	0.003783422831
1	6009	54.524037563816	0.039305125836
1	6017	54.563342689652	0.001410045164
1	6019	54.564752734816	0.026584438348
1	6027	54.591337173164	0.013492539751
1	6032	54.604829712915	0.097614128113
1	6040	54.702443841028	0.00810792512
1	6045	54.710551766148	0.001107428289
1	6047	54.711659194437	0.004763212672
1	6049	54.716422407109	0.162452872243
1	6060	54.878875279352	0.041984405248
1	6065	54.9208596846	0.18036052119
1	6072	55.10122020579	0.054433201074
1	6078	55.155653406864	0.013177473857
1	6083	55.168830880721	0.015634450391
1	6088	55.184465331112	0.026441412816
1	6093	55.210906743928	0.082187108754
1	6098	55.293093852682	0.029201830697
1	6103	55.322295683379	0.001046024797
1	6105	55.323341708176	0.027033185326
1	6113	55.350374893502	0.0828559123
1	6121	55.433230805802	0.010395515043
1	6126	55.443626320845	0.094819995746
1	6132	55.538446316591	0.052452296169
1	6138	55.59089861276	0.492518204567
1	6148	56.083416817327	0.019822036159
1	6153	56.103238853486	0.16127697794
1	6161	56.264515831426	0.065581703041
1	6167	56.330097534467	0.073502224981
1	6172	56.403599759448	0.066348241993
1	6177	56.469948001441	0.077796654267
1	6184	56.547744655708	0.17771419282
1	6190	56.725458848528	0.069922978358
1	6195	56.795381826886	0.127611173104
1	6200	56.92299299999	0.031282093747
1	6205	56.954275093737	0.008441444416
1	6210	56.962716538153	0.027035518478
1	6215	56.989752056631	0.050885469616
1	6220	57.040637526247	0.079493363843
1	6226	57.12013089009	0.091647111601
1	6231	57.211778001691	0.020183447682
1	6236	57.231961449373	0.00244007415
1	6238	57.234401523523	0.020223274758
1	6246	57.254624798281	0.002328617733
1	6248	57.256953416014	0.003661313735
1	6250	57.260614729749	0.005690555073
1	6255	57.266305284822	0.092098341142
1	6266	57.358403625964	0.088408070396
1	6273	57.44681169636	0.125586973813
1	6278	57.572398670173	0.024549903494
1	6284	57.596948573667	0.003147415147
1	6286	57.600095988814	0.027635026112
1	6294	57.627731014926	0.004174363392
1	6296	57.631905378318	0.019319806835
1	6304	57.651225185153	0.083524794029
1	6309	57.734749979182	0.108071396612
1	6315	57.842821375794	0.012203027859
1	6320	57.855024403653	0.008104708088
1	6325	57.863129111741	0.010367498325
1	6330	57.873496610066	0.134320543788
1	6337	58.007817153854	0.165650621235
1	6342	58.173467775089	0.026219428808
1	6348	58.199687203897	0.031843397844
1	6354	58.231530601741	0.053694774864
1	6360	58.285225376605	0.092383166126
1	6366	58.377608542731	0.045307854613
1	6371	58.422916397344	0.009035689224
1	6376	58.431952086568	0.014329169714
1	6381	58.446281256282	0.135319433262
1	6386	58.581600689544	0.078033626207
1	6391	58.659634315751	0.015606710325
1	6396	58.675241026076	0.07949646022
1	6402	58.754737486296	0.022335607362
1	6407	58.777073093658	0.012116244648
1	6412	58.789189338306	0.000293389996
1	6414	58.789482728302	0.055989430974
1	6422	58.845472159276	0.110451087203
1	6429	58.955923246479	0.015780858631
1	6434	58.97170410511	0.036394133554
1	6439	59.008098238664	0.022732400086
1	6444	59.03083063875	0.06443948709
1	6449	59.09527012584	0.004256404073
1	6451	59.099526529913	0.00099081918
1	6453	59.100517349093	0.00089058248
1	6455	59.101407931573	0.033556091819
1	6469	59.134964023392	0.119920145746
1	6474	59.254884169138	0.012568656156
1	6479	59.267452825294	0.072730654481
1	6484	59.340183479775	0.049471562304
1	6489	59.389655042079	0.069336589175
1	6495	59.458991631254	0.12820623018
1	6501	59.587197861434	0.003660393346
1	6503	59.59085825478	0.007318299915
1	6508	59.598176554695	0.014594558254
1	6516	59.612771112949	0.161921213917
1	6524	59.774692326866	0.012530365222
1	6529	59.787222692088	0.112519642905
1	6534	59.899742334993	0.007473062996
1	6536	59.907215397989	0.034909286495
1	6544	59.942124684484	0.035380120223
1	6550	59.977504804707	0.011528386279
1	6555	59.989033190986	0.045394205917
1	6560	60.034427396903	0.178860071512
1	6569	60.213287468415	0.050529028141
1	6574	60.263816496556	0.067750386632
1	6580	60.331566883188	0.007199597038
1	6582	60.338766480226	0.031872935736
1	6590	60.370639415962	0.178587123082
1	6597	60.549226539044	0.046827477827
1	6602	60.596054016871	0.103648386656
1	6608	60.699702403527	0.158161834884
1	6614	60.857864238411	0.027590651563
1	6619	60.885454889974	0.18196937062
1	6627	61.067424260594	0.041947842371
1	6632	61.109372102965	0.090763014446
1	6637	61.200135117411	0.029730184564
1	6642	61.229865301975	0.02611564441
1	6648	61.255980946385	0.061716129735
1	6653	61.31769707612	0.105225294716
1	6659	61.422922370836	0.032047841248
1	6664	61.454970212084	0.01337393472
1	6669	61.468344146804	0.049166123242
1	6674	61.517510270046	0.042994923123
1	6680	61.560505193169	0.007516141054
1	6682	61.568021334223	0.214936710286
1	6690	61.782958044509	0.057548991769
1	6696	61.840507036278	0.0630965123
1	6701	61.903603548578	0.144182662905
1	6707	62.047786211483	0.020226771596
1	6712	62.068012983079	0.019929412742
1	6718	62.087942395821	0.071303236581
1	6723	62.159245632402	0.010170293445
1	6728	62.169415925847	0.060610217594
1	6735	62.230026143441	0.065348180532
1	6740	62.295374323973	0.009062190329
1	6745	62.304436514302	0.030825870545
1	6750	62.335262384847	0.085177165496
1	6755	62.420439550343	0.04251060979
1	6760	62.462950160133	0.0739437421
1	6765	62.536893902233	0.032022725966
1	6770	62.568916628199	0.002355621028
1	6772	62.571272249227	0.008951236311
1	6777	62.580223485538	0.029555167727
1	6785	62.609778653265	0.071628023622
1	6791	62.681406676887	0.064601219036
1	6796	62.746007895923	0.020808764924
1	6801	62.766816660847	0.009537069333
1	6806	62.77635373018	0.107119486752
1	6814	62.883473216932	0.074926944418
1	6819	62.95840016135	0.01195887199
1	6824	62.97035903334	0.000360445463
1	6826	62.970719478803	0.14634982941
1	6836	63.117069308213	0.088055553148
1	6842	63.205124861361	0.017595886896
1	6847	63.222720748257	0.053598843329
1	6853	63.276319591586	0.005148821145
1	6855	63.281468412731	0.04133162643
1	6863	63.322800039161	0.015937849809
1	6870	63.33873788897	0.044673928709
1	6875	63.383411817679	0.078851829512
1	6881	63.462263647191	0.02507033692
1	6886	63.487333984111	0.045117290802
1	6893	63.532451274913	0.157843221456
1	6898	63.690294496369	0.076379750163
1	6903	63.766674246532	0.009664481657
1	6908	63.776338728189	0.096979866912
1	6914	63.873318595101	0.109053803375
1	6919	63.982372398476	0.053414168044
1	6924	64.03578656652	0.076684895545
1	6929	64.112471462065	0.003042078594
1	6931	64.115513540659	0.033111282907
1	6939	64.148624823566	0.017897615635
1	6944	64.166522439201	0.028481875863
1	6950	64.195004315064	0.000243493862
1	6952	64.195247808926	0.051774718465
1	6961	64.247022527391	0.057421008589
1	6966	64.30444353598	0.044949544237
1	6971	64.349393080217	0.161181178103
1	6977	64.51057425832	0.063273455986
1	6982	64.573847714306	0.095730125281
1	6987	64.669577839587	0.000983467453
1	6989	64.67056130704	0.010443618549
1	6994	64.681004925589	0.113710720667
1	7003	64.794715646256	0.020123230458
1	7008	64.814838876714	0.005681574817
1	7010	64.820520451531	0.097269297256
1	7018	64.917789748787	0.024747137007
1	7023	64.942536885794	0.093807553116
1	7031	65.03634443891	0.034112803701
1	7036	65.070457242611	0.072151060568
1	7042	65.142608303179	0.007434430759
1	7044	65.150042733938	0.003502471961
1	7049	65.153545205899	0.028561427276
1	7057	65.182106633175	0.003316545105
1	7059	65.18542317828	0.07315739981
1	7067	65.25858057809	0.060481878007
1	7073	65.319062456097	0.012914176618
1	7078	65.331976632715	0.024452108011
1	7083	65.356428740726	0.01698834494
1	7088	65.373417085666	0.006145618906
1	7090	65.379562704572	0.011730876035
1	7098	65.391293580607	0.124877428822
1	7103	65.516171009429	0.016009362407
1	7108	65.532180371836	0.035350018516
1	7114	65.567530390352	0.007661710859
1	7116	65.575192101211	0.034675693425
1	7124	65.609867794636	0.050157205929
1	7131	65.660025000565	0.038258668977
1	7136	65.698283669542	0.024069115533
1	7141	65.722352785075	0.109676855799
1	7146	65.832029640874	0.11020384003
1	7153	65.942233480904	0.008674072367
1	7158	65.950907553271	0.105397749398
1	7164	66.056305302669	0.023713804138
1	7169	66.080019106807	0.036591065592
1	7174	66.116610172399	0.004295776393
1	7176	66.120905948792	0.00203639563
1	7178	66.122942344422	0.090369801558
1	7190	66.21331214598	0.015359425247
1	7195	66.228671571227	0.07134990763
1	7200	66.300021478857	0.013561052064
1	7205	66.313582530921	0.000374822559
1	7207	66.31395735348	0.00372456738
1	7209	66.31768192086	0.024961619015
1	7220	66.342643539875	0.061282717927
1	7225	66.403926257802	0.14080636259
1	7230	66.544732620392	0.03409486323
1	7235	66.578827483622	0.01032261798
1	7240	66.589150101602	0.020111405239
1	7245	66.609261506841	0.040642840256
1	7250	66.649904347097	0.051136992761
1	7255	66.701041339858	0.041277222713
1	7260	66.742318562571	0.034827299571
1	7265	66.777145862142	0.005681589555
1	7267	66.782827451697	0.004238287986
1	7272	66.787065739683	0.096392585874
1	7280	66.883458325557	0.225271365742
1	7286	67.108729691299	0.105213207522
1	7294	67.213942898821	0.152406291867
1	7299	67.366349190688	0.051816062718
1	7304	67.418165253406	0.040139755543
1	7309	67.458305008949	0.163366996657
1	7316	67.621672005606	0.142468079559
1	7321	67.764140085165	0.006162225839
1	7323	67.770302311004	0.106803746062
1	7332	67.877106057066	0.179765745359
1	7337	68.056871802425	0.044770015418
1	7342	68.101641817843	0.048574721445
1	7347	68.150216539288	3.0073497e-05
1	7349	68.150246612785	0.089937512486
1	7357	68.240184125271	0.001334294139
1	7359	68.24151841941	0.013463490752
1	7367	68.254981910162	0.010398968683
1	7372	68.265380878845	0.028756022643
1	7377	68.294136901488	0.026852697627
1	7382	68.320989599115	0.009735373353
1	7387	68.330724972468	0.107703886635
1	7392	68.438428859103	0.009022828282
1	7397	68.447451687385	0.006778877595
1	7399	68.45423056498	0.009650944484
1	7407	68.463881509464	0.033193081011
1	7412	68.497074590475	0.115675067908
1	7419	68.612749658383	0.016607694977
1	7424	68.62935735336	0.016509794849
1	7429	68.645867148209	0.108589752413
1	7434	68.754456900622	0.147905112923
1	7440	68.902362013545	0.254223021252
1	7447	69.156585034797	0.006812465482
1	7449	69.163397500279	0.067993738594
1	7457	69.231391238873	0.067849008371
1	7463	69.299240247244	0.008936682372
1	7468	69.308176929616	0.060362418124
1	7474	69.36853934774	0.055306561336
1	7479	69.423845909076	0.050960768681
1	7484	69.474806677757	0.023797474088
1	7489	69.498604151845	0.004179054063
1	7491	69.502783205908	0.006282584124
1	7496	69.509065790032	0.019257311503
1	7504	69.528323101535	0.060259815879
1	7510	69.588582917414	0.00667374489
1	7512	69.595256662304	0.058025052033
1	7520	69.653281714337	0.086408830806
1	7526	69.739690545143	0.057093918356
1	7533	69.796784463499	0.071637914518
1	7538	69.868422378017	0.004235655617
1	7540	69.872658033634	0.001583473226
1	7542	69.87424150686	0.025379482413
1	7553	69.899620989273	0.010330931684
1	7558	69.909951920957	0.021738367081
1	7563	69.931690288038	0.121479480682
1	7569	70.05316976872	0.001000672077
1	7571	70.054170440797	0.047264003103
1	7579	70.1014344439	0.065321478912
1	7585	70.166755922812	0.051884521435
1	7592	70.218640444247	0.002217134063
1	7594	70.22085757831	0.013192657678
1	7599	70.234050235988	0.164473900853
1	7608	70.398524136841	0.043297588331
1	7613	70.441821725172	0.029036546153
1	7618	70.470858271325	0.020372380662
1	7623	70.491230651987	0.096687132899
1	7628	70.587917784886	0.020470760597
1	7633	70.608388545483	0.050048215253
1	7638	70.658436760736	0.124444017454
1	7644	70.78288077819	0.008585306693
1	7649	70.791466084883	0.014127788912
1	7654	70.805593873795	0.044568299635
1	7659	70.85016217343	0.004491063333
1	7661	70.854653236763	0.037366006885
1	7669	70.892019243648	0.013923756601
1	7674	70.905943000249	0.057014589664
1	7680	70.962957589913	0.077281029049
1	7685	71.040238618962	0.015047083707
1	7692	71.055285702669	0.047467683704
1	7697	71.102753386373	0.043490591373
1	7702	71.146243977746	0.019165830787
1	7707	71.165409808533	0.041154405703
1	7712	71.206564214236	0.09271312133
1	7720	71.299277335566	0.08308151663
1	7726	71.382358852196	0.020075233901
1	7731	71.402434086097	0.073064102906
1	7738	71.475498189003	0.017518394841
1	7743	71.493016583844	0.012393901479
1	7749	71.505410485323	0.004537987423
1	7752	71.509948472746	0.028988338346
1	7760	71.538936811092	0.069195899512
1	7766	71.608132710604	0.026056414443
1	7771	71.634189125047	0.149296849947
1	7777	71.783485974994	0.001116480533
1	7779	71.784602455527	0.00701615695
1	7784	71.791618612477	0.034550520217
1	7792	71.826169132694	0.010743973498
1	7797	71.836913106192	0.005372780831
1	7799	71.842285887023	0.007474443944
1	7804	71.849760330967	0.004105857633
1	7809	71.8538661886	0.103746938206
1	7817	71.957613126806	0.026742163674
1	7822	71.98435529048	0.037576840793
1	7827	72.021932131273	0.016870569564
1	7832	72.038802700837	0.01956961894
1	7837	72.058372319777	0.10708467515
1	7842	72.165456994927	0.013667668011
1	7848	72.179124662938	0.028401826
1	7853	72.207526488938	0.062163118586
1	7859	72.269689607524	0.086007358659
1	7864	72.355696966183	0.002606625367
1	7866	72.35830359155	0.050394312125
1	7874	72.408697903675	0.002323620028
1	7876	72.411021523703	0.000725269449
1	7878	72.411746793152	0.022749913748
1	7889	72.4344967069	0.009155061665
1	7894	72.443651768565	0.045266945817
1	7899	72.488918714382	0.01259048513
1	7904	72.501509199512	0.00102235889
1	7906	72.502531558402	0.004260070247
1	7908	72.506791628649	0.030490956987
1	7919	72.537282585636	0.061959392453
1	7924	72.599241978089	0.034276462203
1	7931	72.633518440292	0.085721530473
1	7936	72.719239970765	0.015957813248
1	7941	72.735197784013	0.01594240377
1	7946	72.751140187783	0.13013978301
1	7952	72.881279970793	0.070674876682
1	7957	72.951954847475	0.018017619151
1	7962	72.969972466626	0.011576018648
1	7967	72.981548485274	0.032616306226
1	7972	73.0141647915	0.119083246091
1	7979	73.133248037591	0.029367507976
1	7984	73.162615545567	0.061613278465
1	7989	73.224228824032	0.021971447342
1	7994	73.246200271374	0.00566295929
1	7996	73.251863230664	0.13060574116
1	8005	73.382468971824	0.008400409082
1	8010	73.390869380906	0.048651319165
1	8015	73.439520700071	0.108261972112
1	8020	73.547782672183	0.005297571308
1	8022	73.553080243491	0.026251328676
1	8030	73.579331572167	0.008552107669
1	8035	73.587883679836	0.004058586525
1	8037	73.591942266361	0.010437655706
1	8042	73.602379922067	0.002344270268
1	8047	73.604724192335	0.253570251569
1	8056	73.858294443904	0.040484257341
1	8061	73.898778701245	0.033068556076
1	8066	73.931847257321	0.063815185959
1	8072	73.99566244328	0.040309565584
1	8077	74.035972008864	0.01761964465
1	8082	74.053591653514	0.072831140859
1	8089	74.126422794373	0.032423697905
1	8094	74.158846492278	0.001843142756
1	8096	74.160689635034	0.028432173537
1	8104	74.189121808571	0.074486361069
1	8111	74.26360816964	0.019463172476
1	8116	74.283071342116	0.013318091139
1	8121	74.296389433255	0.030398696015
1	8127	74.32678812927	0.009443113454
1	8133	74.336231242724	0.002582968425
1	8135	74.338814211149	0.065486827416
1	8145	74.404301038565	0.004048293367
1	8147	74.408349331932	0.021405191193
1	8155	74.429754523125	0.000117836522
1	8157	74.429872359647	0.003537939424
1	8159	74.433410299071	0.011253935655
1	8167	74.444664234726	0.044443178052
1	8175	74.489107412778	0.011559673269
1	8180	74.500667086047	0.179217196238
1	8187	74.679884282285	0.080365972411
1	8192	74.760250254696	0.030134015397
1	8197	74.790384270093	0.018199332106
1	8202	74.808583602199	0.016747857315
1	8207	74.825331459514	0.079321678864
1	8214	74.904653138378	0.072531812946
1	8220	74.977184951324	0.076197667138
1	8225	75.053382618462	0.048517941996
1	8230	75.101900560458	0.112892629476
1	8235	75.214793189934	0.029200842986
1	8240	75.24399403292	0.057308811762
1	8245	75.301302844682	0.014941951327
1	8251	75.316244796009	0.106939919398
1	8256	75.423184715407	0.009642706209
1	8261	75.432827421616	0.03412269685
1	8266	75.466950118466	0.011060157887
1	8271	75.478010276353	0.013580384446
1	8276	75.491590660799	0.04828045708
1	8281	75.539871117879	0.018467732619
1	8286	75.558338850498	0.032079386449
1	8291	75.590418236947	0.27811334047
1	8300	75.868531577417	0.030346049489
1	8305	75.898877626906	0.015995551324
1	8310	75.91487317823	0.091645192058
1	8317	76.006518370288	0.012746724246
1	8322	76.019265094534	0.103778353127
1	8327	76.123043447661	0.098231809921
1	8332	76.221275257582	0.044156947085
1	8337	76.265432204667	0.002760369995
1	8339	76.268192574662	0.036605121662
1	8347	76.304797696324	0.044340984852
1	8352	76.349138681176	0.068969970277
1	8359	76.418108651453	0.065183422347
1	8365	76.4832920738	0.023714588345
1	8370	76.507006662145	0.071406482654
1	8375	76.578413144799	0.067159551198
1	8381	76.645572695997	0.148698412838
1	8387	76.794271108835	0.09298757958
1	8392	76.887258688415	0.065700672624
1	8397	76.952959361039	0.060355939059
1	8402	77.013315300098	0.063085599713
1	8408	77.076400899811	0.035623320543
1	8413	77.112024220354	0.04357897022
1	8418	77.155603190574	0.057489349421
1	8423	77.213092539995	0.011053048733
1	8428	77.224145588728	0.038936344487
1	8433	77.263081933215	0.070326827414
1	8438	77.333408760629	0.004893813736
1	8440	77.338302574365	0.064544443605
1	8449	77.40284701797	0.035305829415
1	8454	77.438152847385	0.020927787275
1	8459	77.45908063466	0.068682023553
1	8465	77.527762658213	0.007592547169
1	8470	77.535355205382	0.005186886656
1	8472	77.540542092038	0.005427245664
1	8477	77.545969337702	0.15658729791
1	8486	77.702556635612	0.009162210987
1	8491	77.711718846599	0.041286303076
1	8496	77.753005149675	0.022797013326
1	8502	77.775802163001	0.029465982386
1	8507	77.805268145387	0.021255087641
1	8512	77.826523233028	0.019157354056
1	8517	77.845680587084	0.007532951517
1	8522	77.853213538601	0.029392131668
1	8528	77.882605670269	0.018575958679
1	8533	77.901181628948	0.06227220142
1	8541	77.963453830368	0.006479636525
1	8543	77.969933466893	0.004167339933
1	8548	77.974100806826	0.016784681691
1	8557	77.990885488517	0.103154689224
1	8562	78.094040177741	0.144271756458
1	8568	78.238311934199	0.016627043613
1	8573	78.254938977812	0.019880112688
1	8578	78.2748190905	0.068815157313
1	8583	78.343634247813	0.070850134994
1	8588	78.414484382807	0.046743897876
1	8593	78.461228280683	0.032090124979
1	8598	78.493318405662	0.030303759297
1	8603	78.523622164959	0.176001188191
1	8610	78.69962335315	0.001245163737
1	8612	78.700868516887	0.033941893898
1	8620	78.734810410785	0.027354912273
1	8625	78.762165323058	0.159445246643
1	8631	78.921610569701	0.034939419658
1	8637	78.956549989359	0.086697873917
1	8644	79.043247863276	0.02080544972
1	8649	79.064053312996	0.017480672605
1	8654	79.081533985601	0.012691162286
1	8659	79.094225147887	0.007557646436
1	8664	79.101782794323	0.039751712857
1	8669	79.14153450718	0.049684735645
1	8675	79.191219242825	0.004253542405
1	8677	79.19547278523	0.069895230876
1	8685	79.265368016106	0.015597275076
1	8690	79.280965291182	0.052092493984
1	8696	79.333057785166	0.086393179702
1	8701	79.419450964868	0.103505434389
1	8706	79.522956399257	0.115490177705
1	8711	79.638446576962	0.014666120655
1	8717	79.653112697617	0.233708369194
1	8725	79.886821066811	0.054429207303
1	8731	79.941250274114	0.04258316485
1	8736	79.983833438964	0.023735878756
1	8741	80.00756931772	0.115780699988
1	8747	80.123350017708	0.080662759222
1	8753	80.20401277693	0.06213850257
1	8759	80.2661512795	0.034498403743
1	8764	80.300649683243	0.00943012194
1	8769	80.310079805183	0.02802620757
1	8774	80.338106012753	0.039280300695
1	8779	80.377386313448	0.012686559493
1	8784	80.390072872941	0.070989709692
1	8789	80.461062582633	0.053130732054
1	8794	80.514193314687	0.027036168215
1	8799	80.541229482902	0.001095560652
1	8801	80.542325043554	0.014154265965
1	8809	80.556479309519	0.078391742951
1	8815	80.63487105247	0.00497833035
1	8817	80.63984938282	0.045295795231
1	8825	80.685145178051	0.036621601938
1	8830	80.721766779989	0.005457908777
1	8832	80.727224688766	0.029246987323
1	8840	80.756471676089	0.156357826682
1	8847	80.912829502771	0.031501673419
1	8852	80.94433117619	0.010428994727
1	8857	80.954760170917	0.088116438873
1	8862	81.04287660979	0.107840638596
1	8869	81.150717248386	0.001516645723
1	8871	81.152233894109	0.032009722011
1	8880	81.18424361612	0.115701523253
1	8886	81.299945139373	0.038614172564
1	8891	81.338559311937	0.080513770991
1	8897	81.419073082928	0.015383075602
1	8902	81.43445615853	0.061630091931
1	8909	81.496086250461	0.026606692821
1	8914	81.522692943282	0.022292066337
1	8919	81.544985009619	0.036255272457
1	8924	81.581240282076	0.001858965323
1	8926	81.583099247399	0.028185896843
1	8934	81.611285144242	0.076864140771
1	8939	81.688149285013	0.0913627479
1	8944	81.779512032913	0.071114079757
1	8950	81.85062611267	0.112051026157
1	8955	81.962677138827	0.050590222928
1	8961	82.013267361755	0.015927318281
1	8966	82.029194680036	0.042666090629
1	8971	82.071860770665	0.011472584456
1	8976	82.083333355121	0.158563714668
1	8982	82.241897069789	0.000484578952
1	8984	82.242381648741	0.027817411059
1	8992	82.2701990598	0.001790810681
1	8994	82.271989870481	0.106175267084
1	9003	82.378165137565	0.006658314518
1	9005	82.384823452083	0.005267385935
1	9010	82.390090838018	0.198299609603
1	9020	82.588390447621	0.076413950699
1	9026	82.66480439832	0.022230042401
1	9031	82.687034440721	0.063022018346
1	9036	82.750056459067	0.037724111592
1	9041	82.787780570659	0.048081656269
1	9046	82.835862226928	0.03335125487
1	9051	82.869213481798	0.052306063828
1	9056	82.921519545626	0.04300418604
1	9061	82.964523731666	0.102683206201
1	9067	83.067206937867	0.089780945621
1	9072	83.156987883488	0.102679827601
1	9077	83.259667711089	0.082170971623
1	9082	83.341838682712	0.001301131186
1	9084	83.343139813898	0.037392470066
1	9092	83.380532283964	0.011523531577
1	9097	83.392055815541	0.067339254128
1	9102	83.459395069669	0.033840614909
1	9107	83.493235684578	0.078879500025
1	9112	83.572115184603	0.004589827468
1	9114	83.576705012071	0.013531930482
1	9122	83.590236942553	0.015347158723
1	9127	83.605584101276	0.015185918728
1	9132	83.620770020004	0.113118235631
1	9139	83.733888255635	0.010429938638
1	9144	83.744318194273	0.031968496107
1	9149	83.77628669038	0.005540338823
1	9151	83.781827029203	0.003088828305
1	9156	83.784915857508	0.021967883114
1	9164	83.806883740622	0.067855410702
1	9169	83.874739151324	0.032134076185
1	9174	83.906873227509	0.0271106272
1	9179	83.933983854709	0.018032205875
1	9184	83.952016060584	0.099306653058
1	9191	84.051322713642	0.026955772457
1	9197	84.078278486099	0.000776315434
1	9199	84.079054801533	0.023712702261
1	9208	84.102767503794	0.023844652654
1	9213	84.126612156448	0.063309792475
1	9219	84.189921948923	0.021947021304
1	9224	84.211868970227	0.058897664767
1	9229	84.270766634994	0.056211563549
1	9234	84.326978198543	0.078174124044
1	9240	84.405152322587	0.021285493099
1	9245	84.426437815686	0.077341311007
1	9251	84.503779126693	0.241250460313
1	9257	84.745029587006	0.069697455965
1	9262	84.814727042971	0.004171644172
1	9264	84.818898687143	0.075638253653
1	9274	84.894536940796	0.016833759057
1	9279	84.911370699853	0.062921977979
1	9284	84.974292677832	0.001878584015
1	9286	84.976171261847	0.115587196524
1	9294	85.091758458371	0.021722430934
1	9300	85.113480889305	0.00318502015
1	9302	85.116665909455	0.020689061594
1	9310	85.137354971049	0.019227374599
1	9315	85.156582345648	0.042635489117
1	9320	85.199217834765	0.030224131832
1	9325	85.229441966597	0.013547264854
1	9330	85.242989231451	0.116860222179
1	9336	85.35984945363	0.04349972045
1	9342	85.40334917408	0.034626852504
1	9349	85.437976026584	0.004658112765
1	9351	85.442634139349	0.001462629192
1	9353	85.444096768541	0.031309736877
1	9365	85.475406505418	0.158033197366
1	9371	85.633439702784	0.016413494553
1	9376	85.649853197337	0.031388211261
1	9381	85.681241408598	0.023626928251
1	9386	85.704868336849	0.01717445335
1	9391	85.722042790199	0.15462883688
1	9397	85.876671627079	0.139650326536
1	9403	86.016321953615	0.026920334651
1	9408	86.043242288266	0.04197421837
1	9413	86.085216506636	0.131064010723
1	9421	86.216280517359	0.016079365185
1	9426	86.232359882544	0.045858195982
1	9431	86.278218078526	0.076479923171
1	9437	86.354698001697	0.022823808262
1	9442	86.377521809959	0.000698535285
1	9444	86.378220345244	0.072571237883
1	9452	86.450791583127	0.092829762283
1	9459	86.54362134541	0.049624913144
1	9464	86.593246258554	0.007366301696
1	9466	86.60061256025	0.004832377614
1	9471	86.605444937864	0.030597328117
1	9479	86.636042265981	0.002082758123
1	9481	86.638125024104	0.011489140717
1	9487	86.649614164821	0.108700507232
1	9496	86.758314672053	0.013967422702
1	9501	86.772282094755	0.02574122188
1	9506	86.798023316635	0.0788977787
1	9511	86.876921095335	0.200086223105
1	9518	87.07700731844	0.134643889217
1	9524	87.211651207657	0.003795374627
1	9526	87.215446582284	0.008777143865
1	9531	87.224223726149	0.03133761241
1	9541	87.255561338559	0.008622279148
1	9546	87.264183617707	0.001593043222
1	9548	87.265776660929	0.078857165982
1	9557	87.344633826911	0.075369568125
1	9562	87.420003395036	0.018849337326
1	9568	87.438852732362	0.002048739594
1	9570	87.440901471956	0.031957847394
1	9579	87.47285931935	0.116880540745
1	9586	87.589739860095	0.086238939141
1	9591	87.675978799236	0.019023875976
1	9596	87.695002675212	0.015637586654
1	9601	87.710640261866	0.019131347132
1	9606	87.729771608998	0.074972113282
1	9611	87.80474372228	0.088479126749
1	9617	87.893222849029	0.009944336337
1	9622	87.903167185366	0.065174688119
1	9628	87.968341873485	0.019689538029
1	9633	87.988031411514	0.042903288534
1	9638	88.030934700048	0.006483315594
1	9640	88.037418015642	0.014521486452
1	9648	88.051939502094	0.015887736706
1	9653	88.0678272388	0.034138369749
1	9659	88.101965608549	0.004927026471
1	9661	88.10689263502	0.003286241821
1	9666	88.110178876841	0.025488192691
1	9675	88.135667069532	0.029162737302
1	9682	88.164829806834	0.049635314761
1	9687	88.214465121595	0.03613391515
1	9692	88.250599036745	0.021411333804
1	9697	88.272010370549	0.046138515792
1	9702	88.318148886341	0.061652171518
1	9707	88.379801057859	0.102430999307
1	9713	88.482232057166	0.024124901195
1	9718	88.506356958361	0.089424181482
1	9725	88.595781139843	0.10002790349
1	9730	88.695809043333	0.058219346334
1	9735	88.754028389667	0.184661432077
1	9744	88.938689821744	0.028114474685
1	9749	88.966804296429	0.008938842967
1	9754	88.975743139396	0.027426218474
1	9759	89.00316935787	0.014352050605
1	9764	89.017521408475	0.01184155372
1	9769	89.029362962195	0.052650460376
1	9775	89.082013422571	0.191021863491
1	9780	89.273035286062	0.042595070895
1	9785	89.315630356957	0.032433403139
1	9790	89.348063760096	0.045351120866
1	9795	89.393414880962	0.077143748405
1	9802	89.470558629367	0.016565468562
1	9807	89.487124097929	0.030965487517
1	9812	89.518089585446	0.180578410536
1	9818	89.698667995982	0.002455801839
1	9820	89.701123797821	0.009307453605
1	9825	89.710431251426	0.060000784391
1	9834	89.770432035817	0.05443826807
1	9839	89.824870303887	0.038495550417
1	9844	89.863365854304	0.026644772065
1	9849	89.890010626369	0.027602559892
1	9854	89.917613186261	0.073667678481
1	9860	89.991280864742	0.006863840529
1	9863	89.998144705271	0.022888609951
1	9871	90.021033315222	0.009324766596
1	9876	90.030358081818	0.008999604489
1	9881	90.039357686307	0.051507668298
1	9886	90.090865354605	0.056336656872
1	9891	90.147202011477	0.036432122635
1	9896	90.183634134112	0.012548430384
1	9901	90.196182564496	0.029097775128
1	9906	90.225280339624	0.197250535086
1	9912	90.42253087471	0.108875918891
1	9917	90.531406793601	0.042329840006
1	9922	90.573736633607	0.006120708298
1	9924	90.579857341905	0.053961423983
1	9933	90.633818765888	0.016038576211
1	9938	90.649857342099	0.02996788594
1	9943	90.679825228039	0.013715608311
1	9949	90.69354083635	0.072008671771
1	9954	90.765549508121	0.039908095344
1	9960	90.805457603465	0.008227509969
1	9965	90.813685113434	0.017400203651
1	9970	90.831085317085	0.002868457901
1	9972	90.833953774986	0.095035343707
1	9980	90.928989118693	0.005781451852
1	9982	90.934770570545	0.007521886206
1	9988	90.942292456751	0.042653314539
1	9996	90.98494577129	0.035798250493
1	10001	91.020744021783	0.007535556086
1	10006	91.028279577869	0.014655365118
1	10012	91.042934942987	0.057619301786
1	10019	91.100554244773	0.344661593855
1	10026	91.445215838628	0.00202705972
1	10028	91.447242898348	0.160526006014
1	10037	91.607768904362	0.077258731084
1	10042	91.685027635446	0.041886685664
1	10047	91.72691432111	0.052478525427
1	10053	91.779392846537	0.003587169031
1	10055	91.782980015568	0.073664787126
1	10065	91.856644802694	0.072860254725
1	10070	91.929505057419	0.01139364716
1	10075	91.940898704579	0.112379211533
1	10080	92.053277916112	0.066027499934
1	10085	92.119305416046	0.031816654586
1	10090	92.151122070632	0.057444094545
1	10096	92.208566165177	0.030271079494
1	10101	92.238837244671	0.011512287141
1	10107	92.250349531812	0.015458009385
1	10112	92.265807541197	0.05001039869
1	10117	92.315817939887	0.037192291283
1	10123	92.35301023117	0.032460533267
1	10128	92.385470764437	0.020461517716
1	10133	92.405932282153	0.009305465938
1	10138	92.415237748091	0.099225731882
1	10143	92.514463479973	0.008077257096
1	10148	92.522540737069	0.01865805709
1	10153	92.541198794159	0.029701887453
1	10159	92.570900681612	0.004438019048
1	10161	92.57533870066	0.068882386138
1	10169	92.644221086798	0.055757765975
1	10174	92.699978852773	0.092341277267
1	10180	92.79232013004	0.039292394869
1	10187	92.831612524909	0.07447547308
1	10192	92.906087997989	0.09811421014
1	10197	93.004202208129	0.003198970491
1	10199	93.00740117862	0.06776749446
1	10207	93.07516867308	0.177345070551
1	10213	93.252513743631	0.033533395139
1	10218	93.28604713877	0.088580160936
1	10224	93.374627299706	0.011227399081
1	10229	93.385854698787	0.10419042835
1	10236	93.490045127137	0.039334060233
1	10241	93.52937918737	0.059693959407
1	10247	93.589073146777	0.001086415934
1	10249	93.590159562711	0.007170235022
1	10254	93.597329797733	0.053424176795
1	10263	93.650753974528	0.011990695997
1	10268	93.662744670525	0.23408936679
1	10275	93.896834037315	0.009478997101
1	10280	93.906313034416	0.033654250065
1	10285	93.939967284481	0.01608193722
1	10290	93.956049221701	0.032207117933
1	10296	93.988256339634	0.012257384437
1	10301	94.000513724071	0.026089108197
1	10306	94.026602832268	0.004381802102
1	10308	94.03098463437	0.059062304929
1	10316	94.090046939299	0.11645098266
1	10323	94.206497921959	0.194273534985
1	10329	94.400771456944	0.111063572692
1	10335	94.511835029636	0.008306103928
1	10341	94.520141133564	0.057048393516
1	10346	94.57718952708	0.047750936111
1	10352	94.624940463191	0.012911494338
1	10357	94.637851957529	0.005109152197
1	10359	94.642961109726	0.029441456598
1	10368	94.672402566324	0.109902653299
1	10376	94.782305219623	0.056979330765
1	10381	94.839284550388	0.117604952135
1	10388	94.956889502523	0.143364038807
1	10393	95.10025354133	0.086251468527
1	10398	95.186505009857	0.018791519737
1	10403	95.205296529594	0.018318380153
1	10408	95.223614909747	0.039398933437
1	10413	95.263013843184	0.004945381371
1	10415	95.267959224555	0.017121574623
1	10423	95.285080799178	0.060502286096
1	10428	95.345583085274	0.013200542702
1	10434	95.358783627976	0.012760299968
1	10439	95.371543927944	0.018342833725
1	10444	95.389886761669	0.026412358612
1	10450	95.416299120281	0.099509643695
1	10456	95.515808763976	0.01331398036
1	10461	95.529122744336	0.010644321511
1	10466	95.539767065847	0.008967138423
1	10472	95.54873420427	0.066148748694
1	10477	95.614882952964	0.001426265804
1	10479	95.616309218768	0.027474336895
1	10487	95.643783555663	0.027414203589
1	10492	95.671197759252	0.000763188471
1	10494	95.671960947723	0.027147243939
1	10502	95.699108191662	0.001443192208
1	10504	95.70055138387	0.00462120982
1	10506	95.70517259369	0.043529431677
1	10518	95.748702025367	0.022105749264
1	10523	95.770807774631	0.02467068265
1	10528	95.795478457281	0.000877892026
1	10530	95.796356349307	0.089779738672
1	10538	95.886136087979	0.062476187847
1	10544	95.948612275826	0.015133994644
1	10549	95.96374627047	0.045570866743
1	10554	96.009317137213	0.030820205039
1	10560	96.040137342252	0.02689298597
1	10565	96.067030328222	0.024753036
1	10570	96.091783364222	0.093272302452
1	10575	96.185055666674	0.152383710105
1	10585	96.337439376779	0.013847417762
1	10590	96.351286794541	0.009040220673
1	10595	96.360327015214	0.021268473388
1	10601	96.381595488602	0.006293636764
1	10603	96.387889125366	0.014914425243
1	10611	96.402803550609	0.004034035859
1	10613	96.406837586468	0.074609817761
1	10622	96.481447404229	0.019210879216
1	10629	96.500658283445	0.026827972071
1	10634	96.527486255516	0.018899526064
1	10639	96.54638578158	0.0066453831
1	10641	96.55303116468	0.028877660752
1	10649	96.581908825432	0.04916683425
1	10654	96.631075659682	0.020712872599
1	10659	96.651788532281	0.017002197745
1	10664	96.668790730026	0.020010387203
1	10669	96.688801117229	0.019728121299
1	10674	96.708529238528	0.025983838582
1	10679	96.73451307711	0.159186192037
1	10686	96.893699269147	0.166405474204
1	10692	97.060104743351	0.033571508027
1	10698	97.093676251378	0.093003391434
1	10703	97.186679642812	0.018962898789
1	10708	97.205642541601	0.006499887556
1	10710	97.212142429157	0.136410375909
1	10721	97.348552805066	0.012371807031
1	10726	97.360924612097	0.03176831871
1	10731	97.392692930807	0.043296096697
1	10736	97.435989027504	0.114550951225
1	10741	97.550539978729	0.006032491727
1	10743	97.556572470456	0.012435105921
1	10751	97.569007576377	0.036437761464
1	10757	97.605445337841	0.01206591508
1	10762	97.617511252921	0.129216997426
1	10767	97.746728250347	0.091249892557
1	10773	97.837978142904	0.003513517175
1	10775	97.841491660079	0.00541705319
1	10780	97.846908713269	0.016877542324
1	10788	97.863786255593	0.036754275734
1	10793	97.900540531327	0.038393707382
1	10798	97.938934238709	0.076328712292
1	10804	98.015262951001	0.01981198099
1	10809	98.035074931991	0.082656189307
1	10815	98.117731121298	0.000680852304
1	10817	98.118411973602	0.014362396428
1	10823	98.13277437003	0.092448816389
1	10831	98.225223186419	0.160591760017
[...]
19	25224	231.924987660815	0.24478137436043
19	25252	232.169769035175	0.49186731112613
19	25299	232.661636346301	3.0448930328653
19	25564	235.706529379166	0.43341044578977
19	25609	236.139939824956	2.0463541008453
19	25858	238.186293925801	0.84858232551024
19	25940	239.034876251311	0.18210670656645
19	25965	239.216982957877	4.2886775286341
19	26387	243.505660486511	1.9510462338274
19	26614	245.456706720338	3.1818473098635
19	26903	248.638554030201	5.2508842309796
19	27520	253.889438261181	0.77512005385817
19	27608	254.664558315039	0.0034330887694191
19	27609	254.667991403808	0.63798522288835
19	27683	255.305976626696	0.22427372450048
19	27719	255.530250351196	0.23910301391529
19	27738	255.769353365111	0.065052634504191
19	27744	255.834405999615	0.3165871305401
19	27765	256.150993130155	2.1346130792171
19	28018	258.285606209372	1.2208492936183
19	28119	259.50645550299	1.7599607022668
19	28301	261.266416205257	0.37802566220103
19	28334	261.644441867458	1.3919423033905
19	28455	263.036384170848	1.2083972271911
19	28524	264.244781398039	0.48514435335145
19	28581	264.72992575139	0.55788020133815
19	28647	265.287805952728	1.3013437700899
19	28748	266.589149722818	4.4250380830449
19	29320	271.014187805863	2.8589772044637
19	29679	273.873165010327	0.7751650520149
19	29764	274.648330062342	0.32001525668969
19	29813	274.968345319032	6.7696851446499
19	30530	281.738030463682	2.3340092200068
19	30736	284.072039683689	0.19032116671866
19	30749	284.262360850408	0.6753324205414
19	30822	284.937693270949	3.7611758348591
19	31198	288.698869105808	2.3159400206196
19	31449	291.014809126428	2.9092127014834
19	31769	293.924021827911	2.4579013729427
19	32005	296.381923200854	3.5616462751088
19	32365	299.943569475963	0.06437039332754
19	32372	300.007939869291	2.4365841385908
19	32639	302.444524007882	0.60017528141417
19	32719	303.044699289296	1.2161394750694
19	32849	304.260838764365	2.3924293468934
19	33127	306.653268111258	9.0947009714374
19	34146	315.747969082695	3.0137780634177
19	34442	318.761747146113	2.9303645717615
19	34763	321.692111717874	0.45520364323417
19	34815	322.147315361108	2.012233041664
19	35009	324.159548402772	2.0326251354889
19	35200	326.192173538261	2.7467055979418
19	35495	328.938879136203	1.8672531013325
19	35698	330.806132237536	0.076170032289317
19	35699	330.882302269825	8.8194778074571
19	36615	339.701780077282	2.8071708831754
19	36900	342.508950960457	1.9516391014094
19	37142	344.460590061866	1.7078054948038
19	37344	346.16839555667	2.6536062791673
19	37655	348.822001835837	0.91888185046952
19	37762	349.740883686307	0.79562953761066
19	37815	350.536513223918	5.3673840754245
19	38417	355.903897299342	4.5131042082009
19	38865	360.417001507543	0.47250412593957
19	38922	360.889505633483	0.82529832636033
19	39011	361.714803959843	5.0696082419933
19	39519	366.784412201836	5.4778804555488
19	40112	372.262292657385	0.62501339583864
19	40143	372.887306053224	0.49283769221482
19	40193	373.380143745439	1.5244446600623
19	40401	374.904588405501	0.19267154581624
19	40418	375.097259951317	1.8762985852966
19	40636	376.973558536614	4.6652893244905
19	41153	381.638847861105	0.65212641941859
19	41262	382.290974280524	0.13935665634734
19	41292	382.430330936871	1.1540340215925
19	41488	383.584364958464	3.0747417288639
19	41844	386.659106687328	0.33645679835497
19	41871	386.995563485683	3.1458842368119
19	42149	390.141447722495	1.3110317621454
19	42278	391.45247948464	6.0272485943888
19	42934	397.479728079029	0.26860959052974
19	42962	397.748337669559	1.5105092718254
19	43145	399.258846941384	0.99153074514423
20	1519	14.435734288197	0.26730595558321
20	1567	14.70304024378	0.56074640149524
20	1616	15.263786645275	0.1016596176933
20	1617	15.365446262968	5.5786492770475
20	2224	20.944095540015	0.071351064925272
20	2230	21.01544660494	0.16740141095846
20	2249	21.182848015898	3.8979075366858
20	2702	25.080755552584	0.87519500978535
20	2772	25.955950562369	10.189056529278
20	3946	36.145007091647	1.2425376933944
20	4039	37.387544785041	3.3058927688834
20	4404	40.693437553924	1.1958421290663
20	4536	41.88927968299	0.056415395763407
20	4537	41.945695078753	1.2158151811763
20	4646	43.161510259929	2.1297149568434
20	4882	45.291225216772	4.9292792344274
20	5499	50.220504451199	3.4300084455285
20	5890	53.650512896727	1.8680431506955
20	6131	55.518556047423	2.0678312938612
20	6283	57.586387341284	3.8082650733756
20	6658	61.39465241466	3.6039448088367
20	7029	64.998597223497	0.85873102457905
20	7151	65.857328248076	1.2048637928367
20	7285	67.062192040913	1.5110512500631
20	7418	68.573243290976	0.96722160509586
20	7509	69.540464896072	6.1259480777379
20	8296	75.66641297381	5.5213689343694
20	8882	81.187781908179	0.29911447568773
20	8908	81.486896383867	1.1221482861116
20	9025	82.609044669979	4.3557233805951
20	9516	86.964768050574	0.92375385004185
20	9616	87.888521900616	0.89555817758619
20	9741	88.784080078202	0.12095413006885
20	9743	88.905034208271	0.62466215353377
20	9817	89.529696361805	6.2134853075427
20	10517	95.743181669348	0.52301375117487
20	10582	96.266195420523	6.038742615198
20	11157	102.304938035721	0.63925134774878
20	11226	102.94418938347	0.44782375793514
20	11249	103.392013141405	5.2278918736194
20	11851	108.619905015024	2.5058460616707
20	12146	111.125751076695	1.6503869130369
20	12327	112.776137989732	0.87442335111793
20	12413	113.65056134085	1.7630644207914
20	12631	115.413625761641	6.0116574233052
20	13261	121.425283184946	1.1269200242927
20	13343	122.552203209239	5.0082518645638
20	13852	127.560455073803	1.0025060944132
20	13935	128.562961168216	0.50927029588855
20	13987	129.072231464105	0.059991222802273
20	13999	129.132222686907	1.7179628624755
20	14166	130.850185549383	4.5882451588238
20	14656	135.438430708207	0.40682022358137
20	14690	135.845250931788	0.060068326528317
20	14693	135.905319258316	1.5049318165075
20	14830	137.410251074823	0.30330988060722
20	14862	137.71356095543	2.9429140950656
20	15216	140.656475050496	1.4547095244634
20	15377	142.111184574959	2.6118995009801
20	15662	144.723084075939	2.579802895353
20	15888	147.302886971292	0.69508969784273
20	15963	147.997976669135	1.2421900643871
20	16077	149.240166733522	2.3678891450492
20	16299	151.608055878571	0.91397046969779
20	16366	152.522026348269	3.3817467471099
20	16707	155.903773095379	0.73865716360945
20	16785	156.642430258988	0.073301515755375
20	16792	156.715731774743	3.3507298324175
20	17153	160.06646160716	5.2265921500613
20	17695	165.293053757221	0.33987845262134
20	17751	165.632932209842	1.5753233458974
20	17907	167.208255555739	0.57080549165918
20	17976	167.779061047398	1.3839162872893
20	18161	169.162977334687	1.9985145304217
20	18341	171.161491865109	0.96143862383019
20	18446	172.122930488939	6.298471459547
20	19115	178.421401948486	1.1451959864751
20	19241	179.566597934961	1.2185608199141
20	19335	180.785158754875	3.0259490547665
20	19616	183.811107809641	0.76702894301745
20	19755	184.578136752658	4.2299322651221
20	20179	188.80806901778	2.5736449936634
20	20458	191.381714011443	1.1349262213703
20	20599	192.516640232813	0.41379426812757
20	20670	192.930434500941	0.57755755390553
20	20793	193.507992054847	0.25207892263425
20	20813	193.760070977481	2.6061667714828
20	21071	196.366237748964	0.76671872311614
20	21156	197.13295647208	3.1576632882858
20	21501	200.290619760366	2.0989030477357
20	21755	202.389522808102	2.7679626800506
20	22024	205.157485488153	2.3561593485056
20	22246	207.513644836659	3.8272066731844
20	22752	211.340851509843	0.06934676030759
20	22774	211.410198270151	1.3121760677208
20	22916	212.722374337872	0.16455175990698
20	22933	212.886926097779	1.2704208963204
20	23105	214.157346994099	2.382858459615
20	23378	216.540205453714	0.014316804615362
20	23379	216.554522258329	0.45586317108187
20	23424	217.010385429411	1.2937260079372
20	23549	218.304111437348	5.7397979354897
20	24216	224.043909372838	1.6533670067045
20	24378	225.697276379542	0.61881226003404
20	24474	226.316088639576	0.32285021587306
20	24539	226.638938855449	2.1723804940491
20	24844	228.811319349498	0.08486722364321
20	24859	228.896186573141	2.4253177506551
20	25161	231.321504323796	0.42361901816829
20	25214	231.745123341964	0.32124112912368
20	25239	232.066364471088	0.22253785038843
20	25265	232.288902321476	2.5332575312605
20	25476	234.822159852737	0.21471534565173
20	25488	235.036875198389	0.46259021091052
20	25538	235.4994654093	3.5948379303938
20	25946	239.094303339694	0.069460856068801
20	25957	239.163764195763	3.7115265898054
20	26327	242.875290785568	1.6517127864923
20	26518	244.52700357206	0.43772254852298
20	26563	244.964726120583	2.2648989062686
20	26761	247.229625026852	0.11778224341172
20	26765	247.347407270264	0.25761732059725
20	26797	247.605024590861	2.9148128473512
20	27118	250.519837438212	1.3897347761439
20	27277	251.909572214356	0.61274469217786
20	27373	252.522316906534	3.799481147876
20	27798	256.32179805441	1.5937206537989
20	27992	257.915518708209	3.4314774006383
20	28308	261.346996108847	2.159207602988
20	28475	263.506203711835	0.063605427197223
20	28476	263.569809139032	1.7815877524911
20	28651	265.351396891523	3.9023881256013
20	29108	269.253785017124	1.1780857374861
20	29246	270.43187075461	3.5696310599894
20	29686	274.001501814599	1.4544497028017
20	29890	275.455951517401	1.732599677152
20	30066	277.188551194553	1.1222654899865
20	30167	278.31081668454	2.3396849595381
20	30411	280.650501644078	1.2715948835481
20	30555	281.922096527626	1.9351509462596
20	30727	283.857247473886	2.1268012005644
20	30931	285.98404867445	0.53274491205368
20	31010	286.516793586504	1.4388567718804
20	31137	287.955650358384	2.3855665167379
20	31378	290.341216875122	0.39843906096166
20	31423	290.739655936084	1.5087646108996
20	31613	292.248420546984	4.1346517504052
20	32006	296.383072297389	0.2576320096507
20	32046	296.64070430704	1.1526202013175
20	32159	297.793324508357	0.56433737166871
20	32229	298.357661880026	1.3807344257069
20	32359	299.738396305733	0.44805872289186
20	32378	300.186455028625	1.5537381607223
20	32522	301.740193189347	0.75771787042618
20	32641	302.497911059773	0.063142502166893
20	32649	302.56105356194	0.9606989376596
20	32797	303.5217524996	2.8138503281911
20	33083	306.335602827791	0.66344761827757
20	33171	306.999050446069	8.639648711033
20	34144	315.638699157102	7.083337183001
20	34871	322.722036340103	1.1476446038843
20	34965	323.869680943987	2.0105713177158
20	35155	325.880252261703	11.549035730593
20	36401	337.429287992296	0.48820839503351
20	36446	337.91749638733	1.4875219646572
20	36586	339.405018351987	2.8086179572925
20	36872	342.213636309279	3.9244522894204
20	37343	346.138088598699	0.16398047454143
20	37346	346.30206907324	2.155963621816
20	37596	348.458032695056	3.6785284133451
20	37970	352.136561108401	1.3282116771157
20	38152	353.464772785517	7.4487414133158
20	38923	360.913514198833	2.2818983420035
20	39175	363.195412540836	2.5406298753116
20	39416	365.736042416148	1.1769135012367
20	39525	366.912955917385	0.33408600096628
20	39559	367.247041918351	1.4173163132412
20	39720	368.664358231592	0.67573635235506
20	39789	369.340094583947	1.0757653869382
20	39892	370.415859970885	5.4583078467099
20	40500	375.874167817595	0.87190741248345
20	40618	376.746075230078	1.2921277479071
20	40822	378.038202977985	1.013720019372
20	40901	379.051922997357	3.6718594747406
20	41345	382.723782472098	3.0486691167741
20	41727	385.772451588872	1.2122161893258
20	41870	386.984667778198	1.4446154536534
20	41985	388.429283231851	5.3086680673769
20	42515	393.737951299228	3.5861862248083
20	42907	397.324137524036	3.9884631774634
21	1638	15.459209947451	0.887191161398
21	1728	16.346401108849	2.614639322737
21	1978	18.961040431586	0.38768682539296
21	2039	19.348727256979	0.040400935301583
21	2040	19.389128192281	0.11470727993923
21	2048	19.50383547222	2.2887592066139
21	2340	21.792594678834	1.9624581305347
21	2533	23.755052809369	2.2254552804483
21	2773	25.980508089817	1.6769681368099
21	2955	27.657476226627	0.082951098595969
21	2966	27.740427325223	2.9966674547465
21	3287	30.737094779969	1.527429198801
21	3447	32.26452397877	0.42431440047381
21	3510	32.688838379244	0.004157109904775
21	3512	32.692995489149	1.1205277963807
21	3672	33.81352328553	0.23372325367716
21	3709	34.047246539207	0.0042057613607983
21	3710	34.051452300568	2.9317931621878
21	4006	36.983245462756	0.34260111195533
21	4028	37.325846574711	9.6484857048855
21	5088	46.974332279597	0.37587569909169
21	5155	47.350207978689	0.95166034254764
21	5258	48.301868321237	0.699481539757
21	5339	49.001349860994	1.6272657552732
21	5535	50.628615616267	0.40543598077418
21	5589	51.034051597041	1.3674115338413
21	5727	52.401463130882	2.6902604983359
21	6071	55.091723629218	1.9955771200133
21	6225	57.087300749231	1.1659717883873
21	6359	58.253272537618	0.44770702702596
21	6401	58.700979564644	1.9754014800192
21	6607	60.676381044663	4.8753080567457
21	7113	65.551689101409	3.6924099877489
21	7462	69.244099089158	1.1241497389878
21	7607	70.368248828146	0.54847828722625
21	7679	70.916727115372	0.35172120739495
21	7719	71.268448322767	0.14482300097796
21	7736	71.413271323745	0.17493274933547
21	7765	71.58820407308	1.6923970275811
21	8004	73.280601100661	4.6317958529734
21	8540	77.912396953634	0.063905125304981
21	8550	77.976302078939	8.1869805124879
21	9418	86.163282591427	0.92924450901918
21	9523	87.092527100446	1.0562782299556
21	9681	88.148805330402	3.6251351262368
21	10052	91.773940456639	0.42706652296802
21	10095	92.201006979607	2.3965903938144
21	10351	94.597597373421	0.10653986137159
21	10373	94.704137234793	1.5804449103464
21	10584	96.284582145139	0.79474399797089
21	10697	97.07932614311	0.15808860767665
21	10718	97.237414750787	1.6812886047543
21	10886	98.918703355541	2.4918471640073
21	11086	101.410550519548	0.090930511023469
21	11087	101.501481030571	3.0560050393635
21	11366	104.557486069934	4.0336380362609
21	11850	108.591124106195	4.3214929055922
21	12355	112.912617011787	12.607015821349
21	13667	125.519632833136	0.21056878004676
21	13701	125.730201613183	2.278411920797
21	13888	128.00861353398	1.7495157898309
21	14061	129.758129323811	4.2305131456406
21	14496	133.988642469452	3.6395316319994
21	14859	137.628174101451	0.015003802981501
21	14860	137.643177904433	0.028624853721481
21	14861	137.671802758154	4.9933060867093
21	15436	142.665108844863	0.40814020047954
21	15482	143.073249045343	1.2176983418713
21	15624	144.290947387214	10.717268366445
21	16619	155.008215753659	1.3521211337994
21	16751	156.360336887458	0.079063669707133
21	16758	156.439400557165	1.6723717238539
21	16917	158.111772281019	0.018713706012998
21	16918	158.130485987032	1.5055094365812
21	17116	159.635995423613	0.17093020192538
21	17134	159.806925625538	1.3720974225039
21	17263	161.179023048042	0.47369833928794
21	17314	161.65272138733	1.2220493740354
21	17441	162.874770761365	0.63252865599598
21	17495	163.507299417361	4.0027561274431
21	17946	167.510055544804	0.11537120570375
21	17950	167.625426750508	1.6380178386084
21	18162	169.263444589116	3.6469077902818
21	18526	172.910352379398	0.00084934580958376
21	18527	172.911201725208	1.1757540662383
21	18685	174.086955791446	1.3653357953108
21	18795	175.452291586757	3.2561364748904
21	19142	178.708428061647	0.24982873066552
21	19179	178.958256792313	1.0961941512665
21	19272	180.05445094358	0.067369908224425
21	19276	180.121820851804	0.30145124352845
21	19304	180.423272095332	1.5113150942273
21	19445	181.934587189559	0.74301965358322
21	19504	182.677606843142	0.70050554866715
21	19578	183.378112391809	0.53747743555339
21	19632	183.915589827362	0.62549968387894
21	19753	184.541089511241	0.13764878190014
21	19763	184.678738293141	2.7519988940583
21	20031	187.430737187199	4.5616542222184
21	20509	191.992391409417	0.45379128591988
21	20585	192.446182695337	0.37776814281073
21	20643	192.823950838148	0.94317771152852
21	20817	193.767128549677	1.3596550087509
21	20967	195.126783558428	0.49286125082517
21	20996	195.619644809253	2.1956736582841
21	21227	197.815318467537	1.3729195884277
21	21346	199.188238055965	1.2752411803224
21	21526	200.463479236287	1.5032039110219
21	21726	201.966683147309	1.3449334348937
21	21832	203.311616582203	0.73587993604898
21	21911	204.047496518252	4.69080368535
21	22373	208.738300203602	3.3400540887487
21	22863	212.078354292351	0.69052829642863
21	22922	212.76888258878	3.4574988679071
21	23339	216.226381456687	0.051953512659592
21	23345	216.278334969347	0.53677554508461
21	23406	216.815110514432	0.3577145309185
21	23438	217.172825045351	3.7190460173811
21	23874	220.891871062732	0.1639861072821
21	23895	221.055857170014	0.67603647270672
21	23979	221.731893642721	0.452542470597
21	24037	222.184436113318	0.40545818697879
21	24082	222.589894300297	1.0514187027445
21	24158	223.641313003041	0.11979500861886
21	24169	223.76110801166	2.5145603332177
21	24465	226.275668344878	0.71619563924961
21	24582	226.991863984128	0.93351191220797
21	24723	227.925375896336	1.121472155885
21	24876	229.046848052221	1.4982015184126
21	25058	230.545049570634	2.0417110926566
21	25287	232.586760663291	0.16345816036646
21	25306	232.750218823657	0.17088924773466
21	25309	232.921108071392	7.8210310303518
21	26082	240.742139101744	1.5566725556678
21	26253	242.298811657412	5.1404229826123
21	26785	247.439234640024	0.48784412207466
21	26848	247.927078762099	2.1346406562067
21	27047	250.061719418306	0.25143212265817
21	27086	250.313151540964	0.72165864597291
21	27174	251.034810186937	2.1226090323795
21	27433	253.157419219316	0.4594213807752
21	27482	253.616840600091	2.216623020612
21	27743	255.833463620703	0.45084129568447
21	27792	256.284304916387	1.0824873631804
21	27921	257.366792279567	4.0404358490221
21	28310	261.407228128589	5.4945989225662
21	28787	266.901827051155	1.3975890819365
21	28971	268.299416133091	0.53842309700549
21	29042	268.837839230096	8.6924574775112
21	30110	277.530296707607	2.4660819964481
21	30342	279.996378704055	1.0853046556297
21	30460	281.081683359685	0.039095483812714
21	30461	281.120778843498	0.77558808280991
21	30551	281.896366926308	1.3290176053077
21	30687	283.225384531616	7.237190666472
21	31400	290.462575198088	1.8068437075869
21	31619	292.269418905675	3.1605097986979
21	31900	295.429928704373	0.61354285836243
21	31974	296.043471562735	0.087153574028827
21	31976	296.130625136764	0.15636953118
21	31993	296.286994667944	2.4433282144479
21	32272	298.730322882392	5.9936481422756
21	32889	304.723971024668	1.6364495251916
21	33094	306.36042054986	3.7565264600629
21	33529	310.116947009923	7.248456584027
21	34301	317.36540359395	1.5179617108102
21	34444	318.88336530476	3.3515908800621
21	34821	322.234956184822	2.9320666506859
21	35094	325.167022835508	0.72759627245296
21	35159	325.894619107961	5.126311120718
21	35716	331.020930228679	7.6185407017788
21	36491	338.639470930458	1.0174741547577
21	36614	339.656945085216	1.9862576802859
21	36832	341.643202765502	1.2773375768976
21	36938	342.9205403424	0.13073481276667
21	36967	343.051275155167	1.0925475955262
21	37095	344.143822750693	3.8358452228129
21	37567	347.979667973506	3.1312084290377
21	37860	351.110876402544	0.5659704914444
21	37916	351.676846893988	0.24016406013712
21	37945	351.917010954125	0.95585078661841
21	38097	352.872861740743	2.2677887427144
21	38317	355.140650483457	0.8814558341734
21	38426	356.02210631763	7.8971595276728
21	39231	363.919265845303	2.341187824645
21	39459	366.260453669948	0.71338080682852
21	39529	366.973834476777	1.4983440008674
21	39719	368.472178477644	1.3295800686948
21	39828	369.801758546339	3.2456433860229
21	40150	373.047401932362	0.10858332625999
21	40161	373.155985258622	0.29378667565588
21	40210	373.449771934278	1.1768607091947
21	40340	374.626632643473	1.1329287952334
21	40487	375.759561438706	1.6968893148798
21	40726	377.456450753586	7.0913781455668
21	41605	384.547828899153	0.024633554417279
21	41606	384.57246245357	2.3926128419108
21	41869	386.965075295481	3.0392877776761
21	42138	390.004363073157	1.9405230341049
21	42323	391.944886107262	2.7570058762122
21	42602	394.701891983474	0.57859109483397
21	42678	395.280483078308	3.5759133061764
21	43104	398.856396384484	2.6350635188967

