file 6595543 1614185340                                         
version 2
run Nonmonitoring-exponential-213-20210224-17:48:59-26779
attr configname Nonmonitoring-exponential
attr datetime 20210224-17:48:59
attr experiment Nonmonitoring-exponential
attr inifile aerocom.ini
attr iterationvars $0=13
attr iterationvarsf 13-
attr measurement $0=13
attr network Aerocom
attr processid 26779
attr repetition 13
attr replication #13
attr resultdir results
attr runnumber 213
attr seedset 13
param **.t 2s
param **.k 13ms
param **.X 0.05s
param **.m 1s
param **.tDistribution "\"exponential\""
param **.operationMode 1
param **.s "70 byte"
param **.dimPoolMax 10000
param **.dimPoolMin 8000
param **.nDL 16
param **.nA 1
param **.DLMaxCapacity 0
param **.trasmitting false

vector 0 Aerocom.aircraft[0].packetGenerator arrivalTime:vector ETV
attr "" ""
attr source computeArrivalTime
vector 1 Aerocom.aircraft[0].linkSelector waitingTime:vector ETV
attr "" ""
attr source computeWaitingTime
vector 2 Aerocom.aircraft[0].linkSelector queueLength:vector ETV
attr "" ""
attr source computeQueueLength
vector 3 Aerocom.aircraft[0].dataLink[12] actualCapacity:vector ETV
attr "" ""
attr source computeActualCapacity
vector 4 Aerocom.aircraft[0].linkSelector serviceTime:vector ETV
attr "" ""
attr source computeServiceTime
vector 5 Aerocom.aircraft[0].linkSelector responseTime:vector ETV
attr "" ""
attr source computeResponseTime
vector 6 Aerocom.aircraft[0].dataLink[7] tDistribution:vector ETV
attr "" ""
attr source computeTDistribution
vector 7 Aerocom.aircraft[0].dataLink[6] tDistribution:vector ETV
attr "" ""
attr source computeTDistribution
vector 8 Aerocom.aircraft[0].dataLink[8] tDistribution:vector ETV
attr "" ""
attr source computeTDistribution
vector 9 Aerocom.aircraft[0].dataLink[4] tDistribution:vector ETV
attr "" ""
attr source computeTDistribution
vector 10 Aerocom.aircraft[0].dataLink[5] tDistribution:vector ETV
attr "" ""
attr source computeTDistribution
vector 11 Aerocom.aircraft[0].dataLink[13] tDistribution:vector ETV
attr "" ""
attr source computeTDistribution
vector 12 Aerocom.aircraft[0].dataLink[0] tDistribution:vector ETV
attr "" ""
attr source computeTDistribution
vector 13 Aerocom.aircraft[0].dataLink[11] tDistribution:vector ETV
attr "" ""
attr source computeTDistribution
vector 14 Aerocom.aircraft[0].dataLink[14] tDistribution:vector ETV
attr "" ""
attr source computeTDistribution
vector 15 Aerocom.aircraft[0].dataLink[9] tDistribution:vector ETV
attr "" ""
attr source computeTDistribution
vector 16 Aerocom.aircraft[0].dataLink[10] tDistribution:vector ETV
attr "" ""
attr source computeTDistribution
vector 17 Aerocom.aircraft[0].dataLink[3] tDistribution:vector ETV
attr "" ""
attr source computeTDistribution
vector 18 Aerocom.aircraft[0].dataLink[12] tDistribution:vector ETV
attr "" ""
attr source computeTDistribution
vector 19 Aerocom.aircraft[0].dataLink[15] tDistribution:vector ETV
attr "" ""
attr source computeTDistribution
vector 20 Aerocom.aircraft[0].dataLink[1] tDistribution:vector ETV
attr "" ""
attr source computeTDistribution
vector 21 Aerocom.aircraft[0].dataLink[2] tDistribution:vector ETV
attr "" ""
attr source computeTDistribution
0	3134 1196692 3774 156964 10.031442940792 399.962195323642 30015 3.28439e-07 0.145055151975 389.97453803802 10.115843013729
1	1199826 1040851 3775 156966 10.031442940792 399.967845711139 30015 0 0.100852332237 176.90138814549 3.0807815324996
2	2240677 810175 3775 156966 10.031442940792 399.967845711139 30015 0 11 13641 31669
3	3050852 900214 3775 156966 10.031442940792 399.967845711139 30015 8020 9984 271425850 2461628067696
4	3951066 1316314 3775 156966 10.031442940792 399.967845711139 30015 0.0070112179487179 0.0087281795511222 233.02252676089 1.8144469547156
5	5267380 1196807 3776 156969 10.039021979337 399.975574539669 30015 0.007014730935 0.10925670251 409.92391490626 7.671770233349
6	6464187 8256 3831 154382 10.141935857972 393.636910262411 200 0.033344879219871 11.552955947652 389.9445521316 1327.047943263
7	6472443 7119 3835 156455 10.151973817697 398.757362955582 173 0.019997735478803 12.963536912738 390.00187775052 1802.7462465522
8	6479562 8268 3840 156643 10.163061515852 399.283291799203 200 0.0086793127932204 17.093164035041 391.17060232741 1616.805306939
9	6487830 7369 4028 156356 10.630810056003 398.52476383882 179 0.019743760086519 13.336769394472 389.96831664501 1721.8382127632
10	6495199 8802 4029 156549 10.632480532124 398.987664105665 208 0.01769332209292 10.910525216251 390.77448714522 1334.030610557
11	6504001 8806 4050 156607 10.677837842005 399.166598300963 208 0.00074994885873401 7.6629379155178 391.62946427318 1298.1130475638
12	6512807 8017 4294 155350 11.213820917581 396.166907332169 190 0.027590592946936 11.883916133676 390.83677807224 1660.4926843329
13	6520824 8821 4317 156603 11.299828025389 399.164093549026 208 2.5634670294692e-06 9.2016075921892 388.9287574442 1477.2842955291
14	6529645 7423 4352 156152 11.455201685572 398.036642531373 176 0.0016177602540675 13.458093480916 388.91257648002 1710.2314633758
15	6537068 8153 4423 154629 11.656132527346 394.355823059841 193 0.010316567443858 11.137464970226 390.32982462621 1425.0134106635
16	6545221 8831 4450 156610 11.717097753659 399.170572019385 208 0.010605146091761 15.188575234702 388.83757519543 1681.5066527967
17	6554052 8276 4525 155942 11.921176564711 397.622339438129 196 0.0066484980174581 12.590638741814 391.52435631661 1522.825475195
18	6562328 8055 4688 156436 12.243178938104 398.700647267334 190 0.023423915069757 11.968797930309 388.15129123777 1545.9948845167
19	6570383 8005 4868 156723 12.525698576734 399.450083531357 189 0.0019164547273579 9.6961510950842 387.79366404928 1602.3648186257
20	6578388 8374 5314 156908 13.911482165102 399.806617041945 198 0.018673519504349 10.469648343179 386.50242499322 1399.7459774886
21	6586762 8780 7835 155678 20.471089405278 396.930195955794 207 0.015044921267417 8.2015656467337 380.90039649326 1274.6519646032

