file 9718525 1614185309                                         
version 2
run Nonmonitoring-exponential-50-20210224-17:48:28-26576
attr configname Nonmonitoring-exponential
attr datetime 20210224-17:48:28
attr experiment Nonmonitoring-exponential
attr inifile aerocom.ini
attr iterationvars $0=9
attr iterationvarsf 9-
attr measurement $0=9
attr network Aerocom
attr processid 26576
attr repetition 50
attr replication #50
attr resultdir results
attr runnumber 50
attr seedset 50
param **.t 2s
param **.k 9ms
param **.X 0.05s
param **.m 1s
param **.tDistribution "\"exponential\""
param **.operationMode 1
param **.s "70 byte"
param **.dimPoolMax 10000
param **.dimPoolMin 8000
param **.nDL 16
param **.nA 1
param **.DLMaxCapacity 0
param **.trasmitting false

vector 0 Aerocom.aircraft[0].packetGenerator arrivalTime:vector ETV
attr "" ""
attr source computeArrivalTime
vector 1 Aerocom.aircraft[0].linkSelector responseTime:vector ETV
attr "" ""
attr source computeResponseTime
vector 2 Aerocom.aircraft[0].linkSelector waitingTime:vector ETV
attr "" ""
attr source computeWaitingTime
vector 3 Aerocom.aircraft[0].linkSelector queueLength:vector ETV
attr "" ""
attr source computeQueueLength
vector 4 Aerocom.aircraft[0].dataLink[4] actualCapacity:vector ETV
attr "" ""
attr source computeActualCapacity
vector 5 Aerocom.aircraft[0].linkSelector serviceTime:vector ETV
attr "" ""
attr source computeServiceTime
vector 6 Aerocom.aircraft[0].dataLink[8] tDistribution:vector ETV
attr "" ""
attr source computeTDistribution
vector 7 Aerocom.aircraft[0].dataLink[2] tDistribution:vector ETV
attr "" ""
attr source computeTDistribution
vector 8 Aerocom.aircraft[0].dataLink[5] tDistribution:vector ETV
attr "" ""
attr source computeTDistribution
vector 9 Aerocom.aircraft[0].dataLink[7] tDistribution:vector ETV
attr "" ""
attr source computeTDistribution
vector 10 Aerocom.aircraft[0].dataLink[0] tDistribution:vector ETV
attr "" ""
attr source computeTDistribution
vector 11 Aerocom.aircraft[0].dataLink[4] tDistribution:vector ETV
attr "" ""
attr source computeTDistribution
vector 12 Aerocom.aircraft[0].dataLink[3] tDistribution:vector ETV
attr "" ""
attr source computeTDistribution
vector 13 Aerocom.aircraft[0].dataLink[1] tDistribution:vector ETV
attr "" ""
attr source computeTDistribution
vector 14 Aerocom.aircraft[0].dataLink[9] tDistribution:vector ETV
attr "" ""
attr source computeTDistribution
vector 15 Aerocom.aircraft[0].dataLink[15] tDistribution:vector ETV
attr "" ""
attr source computeTDistribution
vector 16 Aerocom.aircraft[0].dataLink[6] tDistribution:vector ETV
attr "" ""
attr source computeTDistribution
vector 17 Aerocom.aircraft[0].dataLink[12] tDistribution:vector ETV
attr "" ""
attr source computeTDistribution
vector 18 Aerocom.aircraft[0].dataLink[11] tDistribution:vector ETV
attr "" ""
attr source computeTDistribution
vector 19 Aerocom.aircraft[0].dataLink[14] tDistribution:vector ETV
attr "" ""
attr source computeTDistribution
vector 20 Aerocom.aircraft[0].dataLink[13] tDistribution:vector ETV
attr "" ""
attr source computeTDistribution
vector 21 Aerocom.aircraft[0].dataLink[10] tDistribution:vector ETV
attr "" ""
attr source computeTDistribution
0	3127 1306460 5735 171899 10.00195383564 304.090291923696 32768 2.5387e-07 0.091303439235 294.09527238008 5.3028919457604
1	1309587 1306744 5737 172014 10.006252963744 304.268525015677 32768 0.007004202522 0.354864505676 1233.9097535905 89.424383564289
2	2616331 1250489 5737 172014 10.006252963744 304.268525015677 32768 0 0.346150451151 979.30903223451 71.869874802203
3	3866820 887253 5737 172014 10.006252963744 304.268525015677 32768 0 39 109329 991119
4	4754073 982729 5737 172014 10.006252963744 304.268525015677 32768 8008 9997 295881806 2679389340468
5	5736802 1437132 5737 172014 10.006252963744 304.268525015677 32768 0.0070021006301891 0.0087412587412587 254.76791778727 1.9866306007536
0	7173934 437999 171904 226458 304.097226215721 399.992388908533 10746 7.5429e-07 0.084670292376 95.909157735931 1.7090648478081
1	7611933 438179 172017 226455 304.276841517994 399.992051651065 10745 0.00701754386 0.253527933064 443.11180785813 33.630945482475
2	8050112 421064 172017 226455 304.276841517994 399.992051651065 10745 0 0.244992388618 358.62290528245 27.183593212944
3	8471176 300853 172017 226455 304.276841517994 399.992051651065 10745 0 28 39814 361870
4	8772029 331909 172017 226455 304.276841517994 399.992051651065 10745 8097 9994 96129505 862655494165
5	9103938 480894 172017 226455 304.276841517994 399.992051651065 10745 0.0070042025215129 0.0086451772261331 84.328196797799 0.66380593257249
6	9584832 9097 5740 225059 10.009154818262 397.189328672379 219 0.0021977392807802 9.7411812237478 390.65158377789 1350.6677556883
7	9593929 7916 5765 225872 10.043547342911 398.757268102285 191 0.013698111254291 8.7999494937189 389.97570036232 1464.1916465863
8	9601845 7429 5948 225986 10.340255245273 398.999728661231 179 0.0083213149274995 13.044940434153 390.70514454563 1710.4612397155
9	9609274 6712 5971 226127 10.388471688931 399.318555549704 162 0.028580000428096 12.626029345917 392.74338973963 1827.2203350934
10	9615986 7952 5972 222376 10.392542630505 392.339343803978 187 0.010278357890858 10.438510714943 392.38531188842 1490.5380818407
11	9623938 9036 5976 226030 10.398739248179 399.105793533247 211 0.0023058622359645 10.121783256714 389.85449678538 1419.0741246031
12	9632974 8827 6044 226225 10.503021632822 399.488347728242 207 0.0074609495719818 9.5413101769441 393.84487950791 1448.8395133503
13	9641801 8715 6054 226452 10.521146324874 399.988173832878 205 0.010829706719228 11.035518407357 392.76478137342 1437.3166412076
14	9650516 8382 6504 226177 11.341755895414 399.408230572802 197 0.014318166142094 13.559325366441 392.43647765231 1774.3307941056
15	9658898 7657 6604 226280 11.49638705138 399.582215583748 180 0.0027288762545897 12.718390827097 388.68782824132 1575.1150231867
16	9666555 8129 6612 225115 11.535160179072 397.279942990166 191 0.018153488759584 13.33707437299 388.67391184349 1781.8617105165
17	9674684 9921 6655 225430 11.607669908381 397.844790819138 232 0.0010117280506545 15.825545841632 389.67791406695 1452.418915054
18	9684605 8584 6824 226148 11.887845992931 399.351404846044 202 0.017843176240641 8.8178996781838 389.38134369587 1482.2561537327
19	9693189 8688 7435 226053 13.077355269225 399.149578408299 204 0.0031107354130755 8.5935773794624 387.98650197466 1398.6986824587
20	9701877 8256 7673 226268 13.535115899918 399.558680546645 194 0.012729745697458 16.740132087503 391.70144024466 1692.0986692434
21	9710133 8391 8229 225085 14.597060303153 397.249205324812 197 0.00565962516431 9.8985773526564 385.86041567129 1338.8883995599

