version 2
run Nonmonitoring-exponential-525-20210224-17:49:32-27059
attr configname Nonmonitoring-exponential
attr datetime 20210224-17:49:32
attr experiment Nonmonitoring-exponential
attr inifile aerocom.ini
attr iterationvars $0=50
attr iterationvarsf 50-
attr measurement $0=50
attr network Aerocom
attr processid 27059
attr repetition 25
attr replication #25
attr resultdir results
attr runnumber 525
attr seedset 25
param **.t 2s
param **.k 50ms
param **.X 0.05s
param **.m 1s
param **.tDistribution "\"exponential\""
param **.operationMode 1
param **.s "70 byte"
param **.dimPoolMax 10000
param **.dimPoolMin 8000
param **.nDL 16
param **.nA 1
param **.DLMaxCapacity 0
param **.trasmitting false

vector 0 Aerocom.aircraft[0].packetGenerator arrivalTime:vector ETV
attr "" ""
attr source computeArrivalTime
vector 1 Aerocom.aircraft[0].linkSelector waitingTime:vector ETV
attr "" ""
attr source computeWaitingTime
vector 2 Aerocom.aircraft[0].linkSelector queueLength:vector ETV
attr "" ""
attr source computeQueueLength
vector 3 Aerocom.aircraft[0].dataLink[3] actualCapacity:vector ETV
attr "" ""
attr source computeActualCapacity
vector 4 Aerocom.aircraft[0].linkSelector serviceTime:vector ETV
attr "" ""
attr source computeServiceTime
vector 5 Aerocom.aircraft[0].linkSelector responseTime:vector ETV
attr "" ""
attr source computeResponseTime
vector 6 Aerocom.aircraft[0].dataLink[12] tDistribution:vector ETV
attr "" ""
attr source computeTDistribution
vector 7 Aerocom.aircraft[0].dataLink[5] tDistribution:vector ETV
attr "" ""
attr source computeTDistribution
vector 8 Aerocom.aircraft[0].dataLink[6] tDistribution:vector ETV
attr "" ""
attr source computeTDistribution
vector 9 Aerocom.aircraft[0].dataLink[14] tDistribution:vector ETV
attr "" ""
attr source computeTDistribution
vector 10 Aerocom.aircraft[0].dataLink[3] tDistribution:vector ETV
attr "" ""
attr source computeTDistribution
vector 11 Aerocom.aircraft[0].dataLink[13] tDistribution:vector ETV
attr "" ""
attr source computeTDistribution
vector 12 Aerocom.aircraft[0].dataLink[2] tDistribution:vector ETV
attr "" ""
attr source computeTDistribution
vector 13 Aerocom.aircraft[0].dataLink[11] tDistribution:vector ETV
attr "" ""
attr source computeTDistribution
vector 14 Aerocom.aircraft[0].dataLink[9] tDistribution:vector ETV
attr "" ""
attr source computeTDistribution
vector 15 Aerocom.aircraft[0].dataLink[10] tDistribution:vector ETV
attr "" ""
attr source computeTDistribution
vector 16 Aerocom.aircraft[0].dataLink[8] tDistribution:vector ETV
attr "" ""
attr source computeTDistribution
vector 17 Aerocom.aircraft[0].dataLink[4] tDistribution:vector ETV
attr "" ""
attr source computeTDistribution
vector 18 Aerocom.aircraft[0].dataLink[15] tDistribution:vector ETV
attr "" ""
attr source computeTDistribution
vector 19 Aerocom.aircraft[0].dataLink[1] tDistribution:vector ETV
attr "" ""
attr source computeTDistribution
vector 20 Aerocom.aircraft[0].dataLink[7] tDistribution:vector ETV
attr "" ""
attr source computeTDistribution
vector 21 Aerocom.aircraft[0].dataLink[0] tDistribution:vector ETV
attr "" ""
attr source computeTDistribution
0	1097	10.009185977006	0.007820628635
0	1099	10.017006605641	0.051222651163
0	1108	10.068229256804	0.240754215664
0	1115	10.308983472468	0.020363612012
0	1120	10.32934708448	0.012480621736
0	1125	10.341827706216	0.117904727362
0	1131	10.459732433578	0.121214126862
0	1137	10.58094656044	0.034991801974
0	1143	10.615938362414	0.044958359028
0	1149	10.660896721442	0.015092705848
0	1154	10.67598942729	0.004260053703
0	1156	10.680249480993	0.026737878424
0	1164	10.706987359417	0.00260633492
0	1166	10.709593694337	0.006433455869
0	1171	10.716027150206	0.015596882999
0	1176	10.731624033205	0.000307006696
0	1178	10.731931039901	0.010826220612
0	1186	10.742757260513	0.11778010309
0	1195	10.860537363603	0.088397666741
0	1201	10.948935030344	1.2252246e-05
0	1203	10.94894728259	0.021224520887
0	1212	10.970171803477	0.012683210959
0	1217	10.982855014436	0.024771649047
0	1223	11.007626663483	0.034628233926
0	1228	11.042254897409	0.004350011426
0	1230	11.046604908835	0.062091465288
0	1239	11.108696374123	0.094188226481
0	1244	11.202884600604	0.004789609202
0	1246	11.207674209806	0.012996787717
0	1254	11.220670997523	0.098905426281
0	1261	11.319576423804	0.044327332883
0	1266	11.363903756687	0.017932810685
0	1271	11.381836567372	0.028033065335
0	1276	11.409869632707	0.040674455981
0	1281	11.450544088688	0.04303759325
0	1286	11.493581681938	0.050068057394
0	1291	11.543649739332	0.005085017837
0	1293	11.548734757169	0.002540878251
0	1295	11.55127563542	0.113808156116
0	1309	11.665083791536	0.041674396578
0	1316	11.706758188114	0.046162686034
0	1321	11.752920874148	0.120140243175
0	1327	11.873061117323	0.013030132986
0	1332	11.886091250309	0.004015101514
0	1334	11.890106351823	0.114990931902
0	1343	12.005097283725	0.018157587877
0	1348	12.023254871602	0.012732941959
0	1353	12.035987813561	0.05305568347
0	1358	12.089043497031	0.024102142283
0	1363	12.113145639314	0.013331598208
0	1368	12.126477237522	0.0178298127
0	1373	12.144307050222	0.026437370788
0	1378	12.17074442101	0.023103368532
0	1384	12.193847789542	0.064573854099
0	1389	12.258421643641	0.080970644557
0	1395	12.339392288198	0.011126210987
0	1400	12.350518499185	0.036448812543
0	1405	12.386967311728	0.04497413946
0	1410	12.431941451188	0.052057395285
0	1415	12.483998846473	0.07775280944
0	1420	12.561751655913	0.081538534372
0	1425	12.643290190285	0.213131325102
0	1430	12.856421515387	0.040114768005
0	1435	12.896536283392	0.066319476972
0	1440	12.962855760364	0.002791229866
0	1442	12.96564699023	0.093817357513
0	1452	13.059464347743	0.024117538299
0	1458	13.083581886042	0.092935987871
0	1463	13.176517873913	0.072516807712
0	1468	13.249034681625	0.068450951516
0	1473	13.317485633141	0.062984145105
0	1479	13.380469778246	0.044647835945
0	1484	13.425117614191	0.098362964845
0	1491	13.523480579036	0.176205166971
0	1502	13.699685746007	0.062889111905
0	1507	13.762574857912	0.027170525103
0	1512	13.789745383015	0.024752413374
0	1517	13.814497796389	0.112416106138
0	1523	13.926913902527	0.001357488724
0	1525	13.928271391251	0.024504007949
0	1533	13.9527753992	0.03090029213
0	1539	13.98367569133	0.046231745976
0	1544	14.029907437306	0.016930231538
0	1550	14.046837668844	0.072060546851
0	1556	14.118898215695	0.030770494228
0	1561	14.149668709923	0.061158257579
0	1566	14.210826967502	0.033667519866
0	1571	14.244494487368	0.010619072978
0	1576	14.255113560346	0.061797869807
0	1581	14.316911430153	0.011818142836
0	1586	14.328729572989	0.23911041132
0	1594	14.567839984309	0.0220175396
0	1600	14.589857523909	0.018613218448
0	1605	14.608470742357	0.110608848146
0	1610	14.719079590503	0.032226701305
0	1615	14.751306291808	0.055447170475
0	1620	14.806753462283	0.020420424629
0	1625	14.827173886912	0.006222823047
0	1627	14.833396709959	0.030296018859
0	1635	14.863692728818	0.072009224839
0	1640	14.935701953657	0.083974553429
0	1645	15.019676507086	0.11957355258
0	1650	15.139250059666	0.025650883407
0	1655	15.164900943073	0.060032915757
0	1661	15.22493385883	0.100718824127
0	1666	15.325652682957	0.039556072415
0	1671	15.365208755372	0.086392737012
0	1677	15.451601492384	0.033491504131
0	1683	15.485092996515	0.016294551849
0	1688	15.501387548364	0.024322593955
0	1693	15.525710142319	0.009560677731
0	1698	15.53527082005	0.002012819907
0	1700	15.537283639957	0.00079158195
0	1702	15.538075221907	0.096653495942
0	1715	15.634728717849	0.083758106809
0	1722	15.718486824658	0.009663578385
0	1727	15.728150403043	0.129227527717
0	1733	15.85737793076	0.015980848449
0	1739	15.873358779209	0.062816074974
0	1745	15.936174854183	0.027679222449
0	1750	15.963854076632	0.018308797102
0	1755	15.982162873734	0.036837739628
0	1760	16.019000613362	0.006201365611
0	1762	16.025201978973	0.048994889814
0	1770	16.074196868787	0.061039438998
0	1775	16.135236307785	0.054297867272
0	1780	16.189534175057	0.07715778683
0	1785	16.266691961887	0.076493532531
0	1790	16.343185494418	0.140675780771
0	1798	16.483861275189	0.009630391608
0	1803	16.493491666797	0.016482491687
0	1808	16.509974158484	0.039274310577
0	1813	16.549248469061	0.014437171573
0	1818	16.563685640634	0.012415700521
0	1823	16.576101341155	0.005594402604
0	1825	16.581695743759	0.006506977098
0	1830	16.588202720857	0.102296937898
0	1838	16.690499658755	0.056100180329
0	1844	16.746599839084	0.026466775341
0	1849	16.773066614425	0.00605707461
0	1851	16.779123689035	0.001649003571
0	1856	16.780772692606	0.062110553477
0	1866	16.842883246083	0.052686971691
0	1871	16.895570217774	0.135800007572
0	1880	17.031370225346	0.044996365221
0	1885	17.076366590567	0.13065881804
0	1890	17.207025408607	0.000460755202
0	1892	17.207486163809	0.072201852516
0	1900	17.279688016325	0.098047080826
0	1907	17.377735097151	0.028056087947
0	1915	17.405791185098	0.00423222328
0	1917	17.410023408378	0.031481340819
0	1925	17.441504749197	0.018258546993
0	1930	17.45976329619	0.008299140891
0	1935	17.468062437081	0.057939497414
0	1940	17.526001934495	0.187858696184
0	1948	17.713860630679	0.020101636612
0	1953	17.733962267291	0.17334031298
0	1961	17.907302580271	0.018744370157
0	1966	17.926046950428	0.032357097302
0	1971	17.95840404773	0.063861171617
0	1978	18.022265219347	0.053461381215
0	1983	18.075726600562	0.011065368785
0	1988	18.086791969347	0.104806973361
0	1996	18.191598942708	0.016744780178
0	2001	18.208343722886	0.012314379853
0	2007	18.220658102739	0.025489577765
0	2013	18.246147680504	0.0569341149
0	2018	18.303081795404	0.022468870137
0	2023	18.325550665541	0.031869036887
0	2028	18.357419702428	0.159696422464
0	2034	18.517116124892	0.041224417744
0	2040	18.558340542636	0.000990021242
0	2042	18.559330563878	0.004179936017
0	2044	18.563510499895	0.103946716059
0	2055	18.667457215954	0.082817513498
0	2062	18.750274729452	0.210579601484
0	2068	18.960854330936	0.071592239215
0	2074	19.032446570151	0.11283972973
0	2081	19.145286299881	0.026719039092
0	2086	19.172005338973	0.05329127833
0	2091	19.225296617303	0.01575861457
0	2096	19.241055231873	0.109848127829
0	2102	19.350903359702	0.027435742842
0	2107	19.378339102544	0.016941235284
0	2113	19.395280337828	0.076048394661
0	2119	19.471328732489	0.004797660823
0	2121	19.476126393312	0.004183442559
0	2126	19.480309835871	0.058700632038
0	2134	19.539010467909	0.093550023879
0	2139	19.632560491788	0.024215477808
0	2144	19.656775969596	0.012269978171
0	2149	19.669045947767	0.015349184699
0	2155	19.684395132466	0.076506877122
0	2160	19.760902009588	0.010968134439
0	2165	19.771870144027	0.058652733831
0	2170	19.830522877858	0.017914316368
0	2175	19.848437194226	0.006577817502
0	2177	19.855015011728	0.018573174522
0	2185	19.87358818625	0.028443206797
0	2190	19.902031393047	0.118573006454
0	2195	20.020604399501	0.030561822341
0	2200	20.051166221842	0.018072618436
0	2205	20.069238840278	0.018566768061
0	2210	20.087805608339	0.012993421981
0	2215	20.10079903032	0.011698288382
0	2220	20.112497318702	0.060070483396
0	2225	20.172567802098	0.026300088956
0	2231	20.198867891054	0.023220188869
0	2236	20.222088079923	0.071199085584
0	2241	20.293287165507	0.05175107824
0	2246	20.345038243747	0.004111350205
0	2248	20.349149593952	0.011205937849
0	2253	20.360355531801	0.011785038768
0	2261	20.372140570569	0.014888907559
0	2266	20.387029478128	0.023418084399
0	2271	20.410447562527	0.008900779897
0	2276	20.419348342424	0.004710230096
0	2279	20.42405857252	0.021844930885
0	2287	20.445903503405	0.001275545643
0	2289	20.447179049048	0.142326186891
0	2297	20.589505235939	0.003053446922
0	2299	20.592558682861	0.013339309628
0	2307	20.605897992489	0.075301981385
0	2312	20.681199973874	0.227324813198
0	2317	20.908524787072	0.007722372455
0	2319	20.916247159527	0.016552872496
0	2327	20.932800032023	0.109675741781
0	2332	21.042475773804	0.032694564297
0	2337	21.075170338101	0.176945130584
0	2343	21.252115468685	0.048598769713
0	2350	21.300714238398	0.008799130816
0	2355	21.309513369214	0.122384934941
0	2360	21.431898304155	0.004686224868
0	2362	21.436584529023	0.017282996857
0	2370	21.45386752588	0.070332060597
0	2376	21.524199586477	0.000294282848
0	2378	21.524493869325	0.014637620325
0	2383	21.53913148965	0.015999803037
0	2391	21.555131292687	0.012384343764
0	2396	21.567515636451	0.032353687566
0	2401	21.599869324017	0.054227297558
0	2406	21.654096621575	0.006916923492
0	2408	21.661013545067	0.108769260924
0	2416	21.769782805991	0.055071500793
0	2421	21.824854306784	0.137416621252
0	2427	21.962270928036	0.01031582665
0	2432	21.972586754686	0.026016767787
0	2437	21.998603522473	0.024414613338
0	2442	22.023018135811	0.00625413554
0	2444	22.029272271351	0.02832847721
0	2452	22.057600748561	0.006565622287
0	2454	22.064166370848	0.004948560309
0	2459	22.069114931157	0.00871943047
0	2464	22.077834361627	0.010821900143
0	2469	22.08865626177	0.018830680807
0	2478	22.107486942577	0.066194783218
0	2483	22.173681725795	0.021764085787
0	2488	22.195445811582	0.056666018382
0	2493	22.252111829964	0.130876615123
0	2500	22.382988445087	0.006071424813
0	2502	22.3890598699	0.073760313768
0	2511	22.462820183668	0.015419051231
0	2517	22.478239234899	0.034016037861
0	2522	22.51225527276	0.081881713881
0	2527	22.594136986641	0.028696089107
0	2533	22.622833075748	0.017111272665
0	2538	22.639944348413	0.152256244843
0	2543	22.792200593256	0.013572107802
0	2548	22.805772701058	0.003887617739
0	2550	22.809660318797	0.069139527279
0	2558	22.878799846076	0.078037971401
0	2564	22.956837817477	0.342162436254
0	2571	23.299000253731	0.065212881414
0	2576	23.364213135145	0.073105003246
0	2582	23.437318138391	0.056165113866
0	2587	23.493483252257	0.043714765367
0	2592	23.537198017624	0.067669478528
0	2597	23.604867496152	0.048068207986
0	2602	23.652935704138	0.049857709483
0	2607	23.702793413621	0.002783395365
0	2609	23.705576808986	0.078992634042
0	2619	23.784569443028	0.005440960124
0	2621	23.790010403152	0.011486416178
0	2629	23.80149681933	0.057578316742
0	2634	23.859075136072	0.000710640597
0	2636	23.859785776669	0.073911181041
0	2644	23.93369695771	0.078610086652
0	2649	24.012307044362	0.041770760547
0	2654	24.054077804909	0.1252153662
0	2659	24.179293171109	0.157244631967
0	2665	24.336537803076	0.01097237937
0	2670	24.347510182446	0.040414700918
0	2675	24.387924883364	0.003623141214
0	2678	24.391548024578	0.006540837001
0	2683	24.398088861579	0.010798508763
0	2688	24.408887370342	0.060613931245
0	2696	24.469501301587	0.008445852387
0	2701	24.477947153974	0.024091187065
0	2706	24.502038341039	0.064161089256
0	2712	24.566199430295	0.08658531766
0	2717	24.652784747955	0.144925420628
0	2722	24.797710168583	0.001692022672
0	2724	24.799402191255	0.156982773234
0	2735	24.956384964489	0.001402420799
0	2737	24.957787385288	0.027505000956
0	2745	24.985292386244	0.024098985851
0	2750	25.009391372095	0.089182864044
0	2755	25.098574236139	0.022116710638
0	2761	25.120690946777	0.092415058381
0	2767	25.213106005158	0.005628972603
0	2769	25.218734977761	0.012571708938
0	2777	25.231306686699	0.027209829454
0	2783	25.258516516153	0.019353790535
0	2788	25.277870306688	0.06961506162
0	2793	25.347485368308	0.137898655463
0	2799	25.485384023771	0.052774732807
0	2804	25.538158756578	0.0162793875
0	2809	25.554438144078	0.019786346121
0	2814	25.574224490199	0.080704374454
0	2819	25.654928864653	0.016743540605
0	2824	25.671672405258	0.021639070802
0	2829	25.69331147606	0.021571857879
0	2834	25.714883333939	0.039230064487
0	2839	25.754113398426	0.001669336323
0	2841	25.755782734749	0.024443906919
0	2849	25.780226641668	0.09342835853
0	2855	25.873655000198	0.0546179542
0	2860	25.928272954398	0.014686279675
0	2865	25.942959234073	0.042106510045
0	2870	25.985065744118	0.150604946468
0	2876	26.135670690586	0.111453882417
0	2881	26.247124573003	0.068271251391
0	2887	26.315395824394	0.201394682132
0	2894	26.516790506526	0.005294674574
0	2896	26.5220851811	0.005893233852
0	2901	26.527978414952	0.006658581711
0	2906	26.534636996663	0.080708348899
0	2915	26.615345345562	0.004103303424
0	2917	26.619448648986	0.035257597366
0	2925	26.654706246352	0.02016594924
0	2930	26.674872195592	0.067535830372
0	2935	26.742408025964	0.025606771601
0	2940	26.768014797565	0.072440209566
0	2947	26.840455007131	0.022382276514
0	2953	26.862837283645	0.2908847223
0	2964	27.153722005945	0.180071594004
0	2970	27.333793599949	0.048091712926
0	2976	27.381885312875	0.086801106656
0	2982	27.468686419531	0.113294562146
0	2989	27.581980981677	0.098442164548
0	2994	27.680423146225	0.100983947328
0	3000	27.781407093553	0.050999553193
0	3006	27.832406646746	0.068810788812
0	3011	27.901217435558	0.048693767259
0	3017	27.949911202817	0.000202620594
0	3019	27.950113823411	0.037178484914
0	3027	27.987292308325	0.052551597298
0	3033	28.039843905623	0.088438623679
0	3039	28.128282529302	0.002278825334
0	3041	28.130561354636	0.028492999258
0	3049	28.159054353894	0.107387532475
0	3055	28.266441886369	0.143043685104
0	3061	28.409485571473	0.013042449701
0	3066	28.422528021174	0.067099906391
0	3072	28.489627927565	0.008091283608
0	3077	28.497719211173	0.043220872952
0	3082	28.540940084125	0.081893545741
0	3087	28.622833629866	0.031332076911
0	3092	28.654165706777	0.096703668663
0	3097	28.75086937544	0.055548190681
0	3102	28.806417566121	0.045717507547
0	3108	28.852135073668	0.024224714476
0	3114	28.876359788144	0.009093079378
0	3119	28.885452867522	0.144834687592
0	3127	29.030287555114	0.055401275281
0	3132	29.085688830395	0.073855806289
0	3138	29.159544636684	0.19496361312
0	3145	29.354508249804	0.067417944725
0	3150	29.421926194529	0.025077255472
0	3156	29.447003450001	0.052270665624
0	3163	29.499274115625	0.067473256951
0	3168	29.566747372576	0.002970712092
0	3170	29.569718084668	0.047620395872
0	3178	29.61733848054	0.034520054641
0	3183	29.651858535181	0.356800818798
0	3192	30.008659353979	0.079796057371
0	3198	30.08845541135	0.051397391841
0	3203	30.139852803191	0.048350390313
0	3209	30.188203193504	0.033758307494
0	3214	30.221961500998	0.020485198415
0	3219	30.242446699413	0.054724570246
0	3224	30.297171269659	0.111028285702
0	3231	30.408199555361	0.133252824055
0	3237	30.541452379416	0.025988807584
0	3242	30.567441187	0.03880610697
0	3247	30.60624729397	0.017395479505
0	3252	30.623642773475	0.170744815394
0	3257	30.794387588869	0.068363931942
0	3262	30.862751520811	0.067473676109
0	3268	30.93022519692	0.052828503323
0	3273	30.983053700243	0.053865192933
0	3278	31.036918893176	0.135859423875
0	3283	31.172778317051	0.09302130199
0	3288	31.265799619041	0.019246559365
0	3294	31.285046178406	0.027171502697
0	3299	31.312217681103	0.011673253032
0	3304	31.323890934135	0.03725360118
0	3309	31.361144535315	0.011346618204
0	3314	31.372491153519	0.005052510867
0	3316	31.377543664386	0.005427227212
0	3321	31.382970891598	0.003096864307
0	3323	31.386067755905	0.078456186395
0	3334	31.4645239423	0.073553991478
0	3340	31.538077933778	0.035145181064
0	3345	31.573223114842	0.003112143196
0	3347	31.576335258038	0.057176723825
0	3355	31.633511981863	0.095604854816
0	3360	31.729116836679	0.022038506584
0	3365	31.751155343263	0.012188939825
0	3370	31.763344283088	0.10078049753
0	3377	31.864124780618	0.150934746653
0	3382	32.015059527271	0.003433674195
0	3384	32.018493201466	0.013484349225
0	3392	32.031977550691	0.002703871911
0	3394	32.034681422602	0.03236638493
0	3405	32.067047807532	0.004912112406
0	3407	32.071959919938	0.003576983884
0	3412	32.075536903822	0.166822787975
0	3421	32.242359691797	0.045992284492
0	3426	32.288351976289	0.04924219433
0	3431	32.337594170619	0.045259864355
0	3436	32.382854034974	0.119700295146
0	3444	32.50255433012	0.072909778168
0	3450	32.575464108288	0.075034409589
0	3455	32.650498517877	0.024785425834
0	3460	32.675283943711	0.045263165875
0	3466	32.720547109586	0.078932239523
0	3473	32.799479349109	0.080029682713
0	3479	32.879509031822	0.071664247341
0	3486	32.951173279163	0.173084186445
0	3492	33.124257465608	0.009150175749
0	3497	33.133407641357	0.066233353265
0	3503	33.199640994622	0.027598620265
0	3508	33.227239614887	0.05649982384
0	3513	33.283739438727	0.028606433223
0	3518	33.31234587195	0.080666119017
0	3524	33.393011990967	0.121523700079
0	3532	33.514535691046	0.032318072218
0	3537	33.546853763264	0.047874789206
0	3542	33.59472855247	0.00445444079
0	3544	33.59918299326	0.005824059771
0	3549	33.605007053031	0.01616903916
0	3557	33.621176092191	0.057047391291
0	3563	33.678223483482	0.028264678963
0	3568	33.706488162445	0.014396642706
0	3573	33.720884805151	0.02433991063
0	3578	33.745224715781	0.00120377415
0	3580	33.746428489931	0.116514388042
0	3589	33.862942877973	0.020871699605
0	3594	33.883814577578	0.047828227651
0	3599	33.931642805229	0.00814490956
0	3604	33.939787714789	0.051882269198
0	3610	33.991669983987	0.072832589041
0	3615	34.064502573028	0.050323200004
0	3620	34.114825773032	0.038655422478
0	3625	34.15348119551	0.003977307442
0	3627	34.157458502952	0.007334888857
0	3632	34.164793391809	0.005250905293
0	3637	34.170044297102	0.031016175966
0	3645	34.201060473068	0.118347088472
0	3650	34.31940756154	0.014229979396
0	3655	34.333637540936	0.034460608588
0	3661	34.368098149524	0.078222515237
0	3666	34.446320664761	0.005374986664
0	3668	34.451695651425	0.041955140608
0	3678	34.493650792033	0.005437999612
0	3680	34.499088791645	0.002801333029
0	3685	34.501890124674	0.120791476069
0	3694	34.622681600743	0.096251841679
0	3700	34.718933442422	0.026453757925
0	3705	34.745387200347	0.03857864963
0	3710	34.783965849977	0.04196259547
0	3715	34.825928445447	0.076089043908
0	3720	34.902017489355	0.002737279046
0	3722	34.904754768401	0.007912078268
0	3727	34.912666846669	0.003022657335
0	3729	34.915689504004	0.001775684176
0	3734	34.91746518818	0.025887921106
0	3745	34.943353109286	0.018822587304
0	3750	34.96217569659	0.034182314988
0	3757	34.996358011578	0.02904242622
0	3762	35.025400437798	0.018602648568
0	3767	35.044003086366	0.129238132316
0	3775	35.173241218682	0.122446861326
0	3781	35.295688080008	0.010245150628
0	3786	35.305933230636	0.056342149081
0	3791	35.362275379717	0.040068369718
0	3796	35.402343749435	0.052031650277
0	3801	35.454375399712	0.046609057975
0	3806	35.500984457687	0.079237494341
0	3811	35.580221952028	0.258467455187
0	3819	35.838689407215	0.040646611182
0	3824	35.879336018397	0.017715837956
0	3829	35.897051856353	0.110594043775
0	3836	36.007645900128	0.034880482925
0	3841	36.042526383053	0.027989586958
0	3847	36.070515970011	0.023605813844
0	3852	36.094121783855	0.084562466726
0	3858	36.178684250581	0.060118277437
0	3863	36.238802528018	0.162128666293
0	3870	36.400931194311	0.001842288016
0	3872	36.402773482327	0.060688140214
0	3880	36.463461622541	0.071691915459
0	3885	36.535153538	0.093639434218
0	3892	36.628792972218	0.047932268729
0	3898	36.676725240947	0.060062097294
0	3903	36.736787338241	0.050359921519
0	3908	36.78714725976	0.000374210302
0	3910	36.787521470062	0.008462166556
0	3915	36.795983636618	0.115681754972
0	3924	36.91166539159	0.092368531058
0	3931	37.004033922648	0.051876652439
0	3936	37.055910575087	0.012957410157
0	3941	37.068867985244	0.10637324363
0	3947	37.175241228874	0.003021408555
0	3949	37.178262637429	0.001126753413
0	3951	37.179389390842	0.042793471424
0	3963	37.222182862266	0.04012032866
0	3968	37.262303190926	0.023546363992
0	3973	37.285849554918	0.132614522842
0	3979	37.41846407776	0.025322170917
0	3984	37.443786248677	0.041783937222
0	3989	37.485570185899	0.011184436014
0	3994	37.496754621913	0.036531058331
0	3999	37.533285680244	0.019170744559
0	4005	37.552456424803	0.001022966195
0	4007	37.553479390998	0.008273724839
0	4012	37.561753115837	0.004423200727
0	4014	37.566176316564	0.027407303231
0	4025	37.593583619795	0.032141626633
0	4032	37.625725246428	0.015848872271
0	4037	37.641574118699	0.047124310058
0	4043	37.688698428757	0.024975718349
0	4048	37.713674147106	0.034742158037
0	4054	37.748416305143	0.000660222138
0	4056	37.749076527281	0.071541200319
0	4064	37.8206177276	0.026731754096
0	4069	37.847349481696	0.038968441096
0	4075	37.886317922792	0.102563476728
0	4083	37.98888139952	0.0563765544
0	4088	38.04525795392	0.007744999062
0	4090	38.053002952982	0.017655454025
0	4098	38.070658407007	0.045949099212
0	4103	38.116607506219	0.040428390926
0	4108	38.157035897145	0.028967316981
0	4113	38.186003214126	0.093549549206
0	4118	38.279552763332	0.003641919329
0	4120	38.283194682661	0.07418141945
0	4128	38.357376102111	0.034598101272
0	4133	38.391974203383	0.177350387014
0	4139	38.569324590397	0.046353597872
0	4144	38.615678188269	0.058487685515
0	4149	38.674165873784	0.015782203364
0	4154	38.689948077148	0.050624390248
0	4159	38.740572467396	0.199268341419
0	4167	38.939840808815	0.018634367348
0	4172	38.958475176163	0.010683559641
0	4177	38.969158735804	0.044136466943
0	4182	39.013295202747	0.006353570232
0	4184	39.019648772979	0.03768147908
0	4192	39.057330252059	0.01433236338
0	4197	39.071662615439	0.052410404586
0	4202	39.124073020025	0.039740822378
0	4207	39.163813842403	0.090461177262
0	4215	39.254275019665	0.030008363539
0	4220	39.284283383204	0.028277106257
0	4225	39.312560489461	0.133196744659
0	4231	39.44575723412	0.083511562624
0	4236	39.529268796744	0.105750907183
0	4241	39.635019703927	0.057316198357
0	4246	39.692335902284	0.029903346649
0	4252	39.722239248933	0.050344427559
0	4257	39.772583676492	0.03627701715
0	4262	39.808860693642	0.087220014708
0	4267	39.89608070835	0.035244290139
0	4272	39.931324998489	0.014556647303
0	4277	39.945881645792	0.075106829225
0	4283	40.020988475017	0.013519672375
0	4288	40.034508147392	0.028010317626
0	4293	40.062518465018	0.04556947266
0	4298	40.108087937678	0.020553794637
0	4304	40.128641732315	0.165281081996
0	4309	40.293922814311	0.09211612359
0	4314	40.386038937901	0.079243945729
0	4319	40.46528288363	0.010998110129
0	4324	40.476280993759	0.073647869432
0	4329	40.549928863191	0.021351792779
0	4334	40.57128065597	0.000315920194
0	4336	40.571596576164	0.074462212005
0	4344	40.646058788169	0.065879057488
0	4350	40.711937845657	0.013824762213
0	4355	40.72576260787	0.1975565273
0	4361	40.92331913517	0.032163350297
0	4367	40.955482485467	0.108689001298
0	4373	41.064171486765	0.081946803372
0	4378	41.146118290137	0.01397700441
0	4384	41.160095294547	0.013244541725
0	4389	41.173339836272	0.291709479233
0	4397	41.465049315505	0.007878609269
0	4402	41.472927924774	0.044091648074
0	4408	41.517019572848	0.00596761433
0	4410	41.522987187178	0.06282424804
0	4421	41.585811435218	0.041220041109
0	4426	41.627031476327	0.001406821791
0	4428	41.628438298118	0.031267830194
0	4436	41.659706128312	0.035296601665
0	4441	41.695002729977	0.007578837099
0	4443	41.702581567076	0.021420657207
0	4451	41.724002224283	0.007754356662
0	4453	41.731756580945	0.052078750507
0	4461	41.783835331452	0.137165003571
0	4466	41.921000335023	0.086392658251
0	4471	42.007392993274	0.026447487003
0	4476	42.033840480277	0.005728098541
0	4478	42.039568578818	0.097589995605
0	4486	42.137158574423	0.034518265795
0	4491	42.171676840218	0.059674414979
0	4496	42.231351255197	0.122798439819
0	4501	42.354149695016	0.022234776396
0	4506	42.376384471412	0.037029213008
0	4511	42.41341368442	0.008683824338
0	4516	42.422097508758	0.132667319916
0	4523	42.554764828674	0.014817564887
0	4528	42.569582393561	0.007545122632
0	4530	42.577127516193	0.023197586732
0	4538	42.600325102925	0.050206882164
0	4543	42.650531985089	0.17159077642
0	4549	42.822122761509	0.109208864871
0	4555	42.93133162638	0.029723236474
0	4560	42.961054862854	0.014510911976
0	4565	42.97556577483	0.007512827705
0	4567	42.983078602535	0.050911589738
0	4576	43.033990192273	0.034669640094
0	4581	43.068659832367	0.070401309356
0	4587	43.139061141723	0.007986896071
0	4592	43.147048037794	0.074318397251
0	4597	43.221366435045	0.007982723051
0	4602	43.229349158096	0.007866253138
0	4607	43.237215411234	0.024522559513
0	4612	43.261737970747	0.032230195348
0	4617	43.293968166095	0.012393995004
0	4622	43.306362161099	0.017296334764
0	4627	43.323658495863	0.108944542809
0	4633	43.432603038672	0.101562500926
0	4639	43.534165539598	0.020477841037
0	4644	43.554643380635	0.032338932615
0	4649	43.58698231325	0.039673242922
0	4654	43.626655556172	0.172449569069
0	4660	43.799105125241	0.049782967124
0	4665	43.848888092365	0.012747364817
0	4670	43.861635457182	0.009758531517
0	4675	43.871393988699	0.057146230464
0	4681	43.928540219163	0.10157616105
0	4687	44.030116380213	0.015722969795
0	4692	44.045839350008	0.012907643855
0	4697	44.058746993863	0.031496522481
0	4702	44.090243516344	0.030716600404
0	4707	44.120960116748	0.060454307033
0	4713	44.181414423781	0.028526568448
0	4718	44.209940992229	0.147463204681
0	4725	44.35740419691	0.10462301209
0	4731	44.462027209	8.2719984e-05
0	4733	44.462109928984	0.07504951445
0	4741	44.537159443434	0.015311608656
0	4746	44.55247105209	0.060255144226
0	4751	44.612726196316	0.034737299992
0	4756	44.647463496308	0.035731023877
0	4762	44.683194520185	0.019922457133
0	4767	44.703116977318	0.020735157411
0	4772	44.723852134729	0.041782312998
0	4777	44.765634447727	0.131578045313
0	4782	44.89721249304	0.000778920876
0	4784	44.897991413916	0.105091640655
0	4793	45.003083054571	0.010603165996
0	4798	45.013686220567	0.014171909134
0	4803	45.027858129701	0.030195051684
0	4808	45.058053181385	0.026294225994
0	4813	45.084347407379	0.03057578318
0	4819	45.114923190559	0.051899524608
0	4825	45.166822715167	0.018955594594
0	4830	45.185778309761	0.045476545136
0	4836	45.231254854897	0.133441189828
0	4843	45.364696044725	0.004556603543
0	4845	45.369252648268	0.007160894434
0	4850	45.376413542702	0.105092083433
0	4858	45.481505626135	0.001182824397
0	4860	45.482688450532	0.125138777149
0	4868	45.607827227681	0.016103905833
0	4873	45.623931133514	0.052971011979
0	4878	45.676902145493	0.219813558028
0	4888	45.896715703521	0.042657886652
0	4895	45.939373590173	0.006656512155
0	4897	45.946030102328	0.070052492149
0	4905	46.016082594477	0.093855572216
0	4913	46.109938166693	0.038898175548
0	4918	46.148836342241	0.129776356864
0	4924	46.278612699105	0.036652680621
0	4929	46.315265379726	0.043658111033
0	4935	46.358923490759	0.034771427351
0	4940	46.39369491811	0.016153448688
0	4946	46.409848366798	0.072431943185
0	4952	46.482280309983	0.01084979558
0	4957	46.493130105563	0.067776199062
0	4962	46.560906304625	0.032140900096
0	4968	46.593047204721	0.021236138603
0	4973	46.614283343324	0.092435016708
0	4978	46.706718360032	0.028110878601
0	4983	46.734829238633	0.02135262215
0	4988	46.756181860783	0.08722817425
0	4993	46.843410035033	0.011845583503
0	4998	46.855255618536	0.002752439317
0	5000	46.858008057853	0.043087944833
0	5008	46.901096002686	0.024364958098
0	5013	46.925460960784	0.075322725716
0	5018	47.0007836865	0.053293429625
0	5023	47.054077116125	0.079239504287
0	5028	47.133316620412	0.010692429231
0	5034	47.144009049643	0.011014244775
0	5039	47.155023294418	0.170485512736
0	5046	47.325508807154	0.046514122255
0	5051	47.372022929409	0.045691254684
0	5056	47.417714184093	0.100628815399
0	5062	47.518342999492	0.012479795482
0	5068	47.530822794974	0.004030292299
0	5070	47.534853087273	0.002316284806
0	5072	47.537169372079	0.019531523538
0	5083	47.556700895617	0.046831065976
0	5089	47.603531961593	0.039730150913
0	5094	47.643262112506	0.039478289274
0	5099	47.68274040178	0.043712442813
0	5104	47.726452844593	0.079860954294
0	5109	47.806313798887	0.071485172164
0	5114	47.877798971051	0.109602837303
0	5120	47.987401808354	0.008133418316
0	5125	47.99553522667	0.00595977512
0	5127	48.00149500179	0.121099744373
0	5135	48.122594746163	0.045303309865
0	5140	48.167898056028	0.0836157373
0	5145	48.251513793328	0.049354233343
0	5150	48.300868026671	0.01725408638
0	5155	48.318122113051	0.003849474537
0	5157	48.321971587588	0.091354948937
0	5165	48.413326536525	0.026647733894
0	5170	48.439974270419	0.008366458364
0	5175	48.448340728783	0.024688510373
0	5180	48.473029239156	0.130299598139
0	5186	48.603328837295	0.010518769332
0	5191	48.613847606627	0.036025463127
0	5196	48.649873069754	0.046493689114
0	5201	48.696366758868	0.01705777402
0	5206	48.713424532888	0.007188790163
0	5208	48.720613323051	0.079251994988
0	5217	48.799865318039	0.065964036795
0	5222	48.865829354834	0.01505931427
0	5227	48.880888669104	0.085348081361
0	5233	48.966236750465	0.0061735265
0	5235	48.972410276965	0.040981754008
0	5245	49.013392030973	0.006449432492
0	5247	49.019841463465	0.024544496316
0	5255	49.044385959781	0.0267978117
0	5260	49.071183771481	0.16162556224
0	5268	49.232809333721	0.040523246562
0	5274	49.273332580283	0.012750069675
0	5280	49.286082649958	0.077056332425
0	5285	49.363138982383	0.006309426166
0	5287	49.369448408549	0.08340626853
0	5296	49.452854677079	0.319400920993
0	5307	49.772255598072	0.003589999891
0	5309	49.775845597963	0.024529876884
0	5317	49.800375474847	0.068046815375
0	5322	49.868422290222	0.002223295281
0	5324	49.870645585503	0.023151840578
0	5332	49.893797426081	0.049537114425
0	5337	49.943334540506	0.004861389805
0	5339	49.948195930311	0.142546787484
0	5347	50.090742717795	0.006715386667
0	5349	50.097458104462	0.043508147779
0	5357	50.140966252241	0.006478385947
0	5359	50.147444638188	0.038589494168
0	5368	50.186034132356	0.006195501961
0	5370	50.192229634317	0.001536606666
0	5375	50.193766240983	0.006634051764
0	5377	50.200400292747	0.108518710233
0	5388	50.30891900298	0.006143853056
0	5390	50.315062856036	0.016054636037
0	5398	50.331117492073	0.009708336624
0	5403	50.340825828697	0.102253867341
0	5408	50.443079696038	0.102722268818
0	5413	50.545801964856	0.013305315774
0	5418	50.55910728063	0.028159289706
0	5423	50.587266570336	0.17950160741
0	5429	50.766768177746	0.202041005862
0	5435	50.968809183608	0.073499942097
0	5441	51.042309125705	0.037465586791
0	5446	51.079774712496	0.039033591655
0	5452	51.118808304151	0.000930860099
0	5454	51.11973916425	0.14911477802
0	5462	51.26885394227	0.050329603733
0	5467	51.319183546003	0.075132950787
0	5472	51.39431649679	0.104113911366
0	5479	51.498430408156	0.064271952926
0	5484	51.562702361082	0.002253902359
0	5486	51.564956263441	0.060503326797
0	5497	51.625459590238	0.079772027937
0	5503	51.705231618175	0.030811997398
0	5508	51.736043615573	0.070027557501
0	5514	51.806071173074	0.026888578485
0	5520	51.832959751559	0.020906551908
0	5525	51.853866303467	0.075796527689
0	5532	51.929662831156	0.021749637498
0	5537	51.951412468654	0.036072903823
0	5542	51.987485372477	0.003081723026
0	5544	51.990567095503	0.064317393239
0	5552	52.054884488742	6.8013309e-05
0	5554	52.054952502051	0.001052064299
0	5556	52.05600456635	0.024445220559
0	5567	52.080449786909	0.007781186838
0	5572	52.088230973747	0.031570072299
0	5577	52.119801046046	0.03253238911
0	5582	52.152333435156	0.101118986402
0	5587	52.253452421558	0.012354523419
0	5592	52.265806944977	0.027426018284
0	5597	52.293232963261	0.017824644301
0	5602	52.311057607562	0.020895507169
0	5607	52.331953114731	0.204270839058
0	5612	52.536223953789	0.019888001348
0	5617	52.556111955137	0.276358378073
0	5625	52.83247033321	0.045141081529
0	5630	52.877611414739	0.019094318228
0	5635	52.896705732967	0.046922854857
0	5641	52.943628587824	0.002508238255
0	5643	52.946136826079	0.013634395156
0	5651	52.959771221235	0.117094803663
0	5656	53.076866024898	0.026113226358
0	5661	53.102979251256	0.093209924528
0	5667	53.196189175784	0.045817239784
0	5672	53.242006415568	0.270532377344
0	5680	53.512538792912	0.070454703829
0	5687	53.582993496741	0.078474015308
0	5694	53.661467512049	0.237306749215
0	5699	53.898774261264	0.076895993828
0	5705	53.975670255092	0.108176083698
0	5711	54.08384633879	0.034966198609
0	5717	54.118812537399	0.004882094223
0	5719	54.123694631622	0.05929950343
0	5727	54.182994135052	0.002286643864
0	5729	54.185280778916	0.060710093601
0	5737	54.245990872517	0.020298730668
0	5742	54.266289603185	0.012957339844
0	5747	54.279246943029	0.030767755948
0	5752	54.310014698977	0.079409318519
0	5758	54.389424017496	0.033676273517
0	5763	54.423100291013	0.022944707899
0	5768	54.446044998912	0.035646968196
0	5774	54.481691967108	0.015632681953
0	5779	54.497324649061	0.00580739942
0	5781	54.503132048481	0.052784680907
0	5789	54.555916729388	0.03968754008
0	5794	54.595604269468	0.010957094366
0	5799	54.606561363834	0.268327662268
0	5808	54.874889026102	0.14250650048
0	5813	55.017395526582	0.019441042551
0	5818	55.036836569133	0.00771363285
0	5820	55.044550201983	0.007179521959
0	5825	55.051729723942	0.199276531289
0	5833	55.251006255231	0.002611530808
0	5835	55.253617786039	0.004776367247
0	5837	55.258394153286	0.14242988429
0	5850	55.400824037576	0.010536568751
0	5855	55.411360606327	0.084563364252
0	5860	55.495923970579	0.091223534306
0	5866	55.587147504885	0.059620793188
0	5873	55.646768298073	0.066577991458
0	5879	55.713346289531	0.075435292424
0	5884	55.788781581955	0.070619958961
0	5889	55.859401540916	0.033035018834
0	5894	55.89243655975	0.013814309066
0	5899	55.906250868816	0.053427069732
0	5905	55.959677938548	0.016708541377
0	5910	55.976386479925	0.101650856408
0	5916	56.078037336333	0.011515267218
0	5921	56.089552603551	0.07405659876
0	5926	56.163609202311	0.054790206709
0	5931	56.21839940902	0.004294329925
0	5933	56.222693738945	0.050922065998
0	5942	56.273615804943	0.073314275435
0	5947	56.346930080378	0.030957911695
0	5952	56.377887992073	0.0186317487
0	5958	56.396519740773	0.002515054334
0	5960	56.399034795107	0.072174208873
0	5968	56.47120900398	0.20737948414
0	5974	56.67858848812	0.037796336131
0	5980	56.716384824251	0.004762055962
0	5982	56.721146880213	0.126847540944
0	5992	56.847994421157	0.018901973653
0	5998	56.86689639481	0.035426509356
0	6003	56.902322904166	0.068862223202
0	6008	56.971185127368	0.012459197404
0	6013	56.983644324772	0.006281834043
0	6015	56.989926158815	0.231362303522
0	6026	57.221288462337	0.014178192642
0	6031	57.235466654979	0.143260246105
0	6038	57.378726901084	0.039747205465
0	6043	57.418474106549	0.019284639231
0	6048	57.43775874578	0.043902504621
0	6053	57.481661250401	0.128424689116
0	6059	57.610085939517	0.102010099141
0	6064	57.712096038658	0.133973430034
0	6069	57.846069468692	0.038437692023
0	6074	57.884507160715	0.086095569178
0	6080	57.970602729893	0.001210739494
0	6082	57.971813469387	0.09612576983
0	6090	58.067939239217	0.045652333269
0	6095	58.113591572486	0.078890849253
0	6101	58.192482421739	0.065669428255
0	6106	58.258151849994	0.051448223013
0	6111	58.309600073007	0.080984121784
0	6116	58.390584194791	0.084255837194
0	6122	58.474840031985	0.021255542742
0	6128	58.496095574727	0.061831290648
0	6133	58.557926865375	0.015673073226
0	6139	58.573599938601	0.023136570381
0	6144	58.596736508982	0.003718461732
0	6146	58.600454970714	0.02805159822
0	6154	58.628506568934	0.037140753769
0	6159	58.665647322703	0.05589775676
0	6165	58.721545079463	0.022912455555
0	6170	58.744457535018	0.11752926948
0	6176	58.861986804498	0.028673255557
0	6181	58.890660060055	0.085700327308
0	6186	58.976360387363	0.027011821254
0	6191	59.003372208617	0.006687301615
0	6194	59.010059510232	0.005052075352
0	6199	59.015111585584	0.043011115478
0	6207	59.058122701062	0.115503798455
0	6213	59.173626499517	0.11665105313
0	6218	59.290277552647	0.00709768302
0	6221	59.297375235667	0.021939949048
0	6229	59.319315184715	0.012811135292
0	6234	59.332126320007	0.01174279208
0	6239	59.343869112087	0.023585107202
0	6246	59.367454219289	0.104473791241
0	6253	59.47192801053	0.058881903098
0	6258	59.530809913628	0.012153132543
0	6263	59.542963046171	0.002517353011
0	6265	59.545480399182	0.004425307153
0	6267	59.549905706335	0.015257153788
0	6278	59.565162860123	0.062484849405
0	6283	59.627647709528	0.003779336247
0	6285	59.631427045775	0.007617753321
0	6290	59.639044799096	0.088625562743
0	6299	59.727670361839	0.020874888508
0	6305	59.748545250347	0.024231561241
0	6310	59.772776811588	0.006397784134
0	6312	59.779174595722	0.140712693772
0	6321	59.919887289494	0.023505827682
0	6326	59.943393117176	0.042925387984
0	6331	59.98631850516	0.007891512063
0	6337	59.994210017223	0.044041474536
0	6343	60.038251491759	0.084353286919
0	6348	60.122604778678	0.009419882964
0	6353	60.132024661642	0.021975779961
0	6359	60.154000441603	0.08787772838
0	6364	60.241878169983	0.027156789135
0	6369	60.269034959118	0.02958388465
0	6374	60.298618843768	0.086285511282
0	6379	60.38490435505	0.079962399521
0	6386	60.464866754571	0.078084302836
0	6395	60.542951057407	0.053399727933
0	6402	60.59635078534	0.030081176765
0	6407	60.626431962105	0.041082785053
0	6413	60.667514747158	0.06205678019
0	6418	60.729571527348	0.000895360538
0	6420	60.730466887886	0.058041105277
0	6429	60.788507993163	0.033932350749
0	6434	60.822440343912	0.01957108756
0	6440	60.842011431472	0.043680669559
0	6445	60.885692101031	0.01321187406
0	6450	60.898903975091	0.010029784019
0	6455	60.90893375911	0.03470002873
0	6460	60.94363378784	0.116815276858
0	6467	61.060449064698	0.003429545203
0	6469	61.063878609901	0.023432452348
0	6477	61.087311062249	0.023515291492
0	6482	61.110826353741	0.014529823129
0	6487	61.12535617687	0.090100119775
0	6492	61.215456296645	0.017973083653
0	6497	61.233429380298	0.002222584008
0	6499	61.235651964306	0.10454582029
0	6508	61.340197784596	0.04333262148
0	6513	61.383530406076	0.053095655877
0	6519	61.436626061953	0.084427958278
0	6525	61.521054020231	0.080141023987
0	6531	61.601195044218	0.002776923035
0	6533	61.603971967253	0.013901548321
0	6541	61.617873515574	0.018058498402
0	6546	61.635932013976	0.121641382794
0	6551	61.75757339677	0.009594852733
0	6556	61.767168249503	0.002278112845
0	6558	61.769446362348	0.021183538273
0	6566	61.790629900621	0.043143536675
0	6572	61.833773437296	0.000294600583
0	6574	61.834068037879	0.016689218399
0	6582	61.850757256278	0.17710276355
0	6589	62.027860019828	0.039807434751
0	6594	62.067667454579	0.141170193557
0	6600	62.208837648136	0.073921913945
0	6605	62.282759562081	0.048640887501
0	6611	62.331400449582	0.07919239179
0	6616	62.410592841372	0.045511215589
0	6621	62.456104056961	0.086706473878
0	6628	62.542810530839	0.004059611418
0	6630	62.546870142257	0.052081490263
0	6640	62.59895163252	0.062194015263
0	6645	62.661145647783	0.071460033095
0	6650	62.732605680878	0.058808066989
0	6655	62.791413747867	0.024900740007
0	6661	62.816314487874	0.070834624087
0	6666	62.887149111961	0.0848000519
0	6673	62.971949163861	0.022213991441
0	6678	62.994163155302	0.180703055516
0	6685	63.174866210818	0.054195655596
0	6690	63.229061866414	0.063598238277
0	6695	63.292660104691	0.05094387567
0	6700	63.343603980361	0.014176621799
0	6705	63.35778060216	0.005053327402
0	6707	63.362833929562	0.017137263143
0	6715	63.379971192705	0.02564712323
0	6720	63.405618315935	0.058768796521
0	6725	63.464387112456	0.010877606392
0	6730	63.475264718848	0.058735790879
0	6736	63.534000509727	0.058515752012
0	6743	63.592516261739	0.011588405093
0	6748	63.604104666832	0.053556045686
0	6753	63.657660712518	0.12613050977
0	6760	63.783791222288	0.007286600941
0	6762	63.791077823229	0.014896741769
0	6770	63.805974564998	0.0371599092
0	6775	63.843134474198	0.050226433956
0	6781	63.893360908154	0.031532367075
0	6787	63.924893275229	0.078407432516
0	6793	64.003300707745	0.086213829978
0	6800	64.089514537723	0.005376574962
0	6802	64.094891112685	0.06261110551
0	6810	64.157502218195	0.08166765814
0	6815	64.239169876335	0.016999246669
0	6820	64.256169123004	0.100319208426
0	6825	64.35648833143	0.022309581793
0	6830	64.378797913223	0.020869839691
0	6835	64.399667752914	0.074401589538
0	6841	64.474069342452	0.014096283813
0	6846	64.488165626265	0.116015373462
0	6851	64.604180999727	0.025467820681
0	6856	64.629648820408	0.061816313258
0	6862	64.691465133666	0.130326048474
0	6867	64.82179118214	0.038448593662
0	6872	64.860239775802	0.012852190984
0	6877	64.873091966786	0.088541545312
0	6882	64.961633512098	0.008529631084
0	6887	64.970163143182	0.054674320131
0	6892	65.024837463313	0.03890130041
0	6897	65.063738763723	0.009951947817
0	6902	65.07369071154	0.036907819402
0	6907	65.110598530942	0.002599919534
0	6909	65.113198450476	0.091171378761
0	6917	65.204369829237	4.340191e-05
0	6919	65.204413231147	0.006178636588
0	6921	65.210591867735	0.047549109855
0	6932	65.25814097759	0.050851545054
0	6937	65.308992522644	0.004395304019
0	6939	65.313387826663	0.010651321788
0	6944	65.324039148451	0.10693427893
0	6953	65.430973427381	0.058069613489
0	6958	65.48904304087	0.014618986831
0	6963	65.503662027701	0.05963644455
0	6969	65.563298472251	0.125893624765
0	6974	65.689192097016	0.034779894737
0	6979	65.723971991753	0.169584407722
0	6984	65.893556399475	0.034480282969
0	6990	65.928036682444	0.00552458814
0	6992	65.933561270584	0.04020374713
0	7000	65.973765017714	0.215433432306
0	7006	66.18919845002	0.008981133714
0	7011	66.198179583734	0.041237044949
0	7017	66.239416628683	0.037291365457
0	7022	66.27670799414	0.022368311803
0	7028	66.299076305943	0.130183075813
0	7033	66.429259381756	0.019479739835
0	7038	66.448739121591	0.053923277778
0	7043	66.502662399369	0.095026854594
0	7048	66.597689253963	0.02850598973
0	7054	66.626195243693	0.007595651203
0	7056	66.633790894896	0.042354545141
0	7065	66.676145440037	0.018377021644
0	7070	66.694522461681	0.001123375433
0	7072	66.695645837114	0.056566275741
0	7080	66.752212112855	0.023621053319
0	7085	66.775833166174	0.033238665106
0	7090	66.80907183128	0.002024433481
0	7092	66.811096264761	0.079038709362
0	7102	66.890134974123	0.000272185286
0	7104	66.890407159409	0.123139200708
0	7113	67.013546360117	0.16628339823
0	7121	67.179829758347	0.001200590721
0	7123	67.181030349068	0.010181681057
0	7128	67.191212030125	0.155162870473
0	7136	67.346374900598	0.069814646627
0	7141	67.416189547225	0.033179247739
0	7146	67.449368794964	0.027952080926
0	7152	67.47732087589	0.02940235575
0	7157	67.50672323164	0.018593348792
0	7162	67.525316580432	0.021880088155
0	7167	67.547196668587	0.030296877132
0	7172	67.577493545719	0.085234529737
0	7180	67.662728075456	0.001286810186
0	7182	67.664014885642	0.054498305851
0	7191	67.718513191493	0.021261393935
0	7197	67.739774585428	0.073512245646
0	7203	67.813286831074	0.033724515487
0	7208	67.847011346561	0.036233705369
0	7213	67.88324505193	0.091348172789
0	7218	67.974593224719	0.015186878127
0	7223	67.989780102846	0.0070870913
0	7225	67.996867194146	0.023707831473
0	7233	68.020575025619	0.03589144494
0	7238	68.056466470559	0.038046204289
0	7245	68.094512674848	0.024130000767
0	7250	68.118642675615	0.000598391123
0	7252	68.119241066738	0.018469819439
0	7260	68.137710886177	0.046928716212
0	7265	68.184639602389	0.004258854852
0	7267	68.188898457241	0.237597988047
0	7275	68.426496445288	0.049044173028
0	7280	68.475540618316	0.023257189252
0	7285	68.498797807568	0.002539106512
0	7287	68.50133691408	0.130781550527
0	7297	68.632118464607	0.023021449122
0	7302	68.655139913729	0.145923213104
0	7309	68.801063126833	0.020315281024
0	7315	68.821378407857	0.001778446794
0	7317	68.823156854651	0.028949664011
0	7325	68.852106518662	0.018236742128
0	7330	68.87034326079	0.104965618633
0	7337	68.975308879423	0.013180157958
0	7343	68.988489037381	0.094075465443
0	7348	69.082564502824	0.009684737347
0	7353	69.092249240171	0.072038069686
0	7358	69.164287309857	0.035490589576
0	7363	69.199777899433	0.02403009715
0	7369	69.223807996583	0.006128371705
0	7371	69.229936368288	0.046397488019
0	7379	69.276333856307	0.029125112186
0	7384	69.305458968493	0.001189759808
0	7386	69.306648728301	0.043571584526
0	7395	69.350220312827	0.103928106985
0	7402	69.454148419812	0.0932969623
0	7409	69.547445382112	0.17807650571
0	7415	69.725521887822	0.008115187208
0	7420	69.73363707503	0.007225344139
0	7422	69.740862419169	0.002485324807
0	7427	69.743347743976	0.024869955958
0	7436	69.768217699934	0.075052240065
0	7442	69.843269939999	0.068126093642
0	7448	69.911396033641	0.139025193733
0	7454	70.050421227374	0.002322610583
0	7456	70.052743837957	0.00698723069
0	7461	70.059731068647	0.001603766996
0	7463	70.061334835643	0.051620555972
0	7475	70.112955391615	0.060139805045
0	7482	70.17309519666	0.10554019085
0	7489	70.27863538751	0.026593486354
0	7494	70.305228873864	0.008002725838
0	7499	70.313231599702	0.015589842187
0	7505	70.328821441889	0.058402924842
0	7510	70.387224366731	0.031026107847
0	7517	70.418250474578	0.056139524975
0	7523	70.474389999553	0.063598532597
0	7528	70.53798853215	0.034333084292
0	7534	70.572321616442	0.220291472673
0	7541	70.792613089115	0.014900073695
0	7546	70.80751316281	0.056928279219
0	7551	70.864441442029	0.023791671617
0	7556	70.888233113646	0.078075598335
0	7562	70.966308711981	0.136547079877
0	7567	71.102855791858	0.004001097988
0	7569	71.106856889846	0.076378602955
0	7579	71.183235492801	0.010321264002
0	7584	71.193556756803	0.046361406895
0	7589	71.239918163698	0.016699503288
0	7594	71.256617666986	0.035362439277
0	7599	71.291980106263	0.006844334591
0	7601	71.298824440854	0.119392188865
0	7612	71.418216629719	0.056498155919
0	7617	71.474714785638	0.104383787193
0	7622	71.579098572831	0.013357036372
0	7627	71.592455609203	0.004059439412
0	7629	71.596515048615	0.019946744374
0	7637	71.616461792989	0.007377154499
0	7639	71.623838947488	0.008265525326
0	7645	71.632104472814	0.067435592468
0	7653	71.699540065282	0.026770327322
0	7658	71.726310392604	0.001527654606
0	7660	71.72783804721	0.084918136942
0	7668	71.812756184152	0.043541804057
0	7674	71.856297988209	0.007144616448
0	7676	71.863442604657	0.022065865148
0	7684	71.885508469805	0.044472304388
0	7689	71.929980774193	0.021479724409
0	7694	71.951460498602	0.075746572683
0	7699	72.027207071285	0.014445531688
0	7704	72.041652602973	0.052539563049
0	7710	72.094192166022	0.02071255811
0	7715	72.114904724132	0.00705173302
0	7718	72.121956457152	0.018407727556
0	7726	72.140364184708	0.082426837569
0	7731	72.222791022277	0.017907024094
0	7736	72.240698046371	0.048972228248
0	7741	72.289670274619	0.054048137144
0	7746	72.343718411763	0.047164394263
0	7751	72.390882806026	0.063329242477
0	7756	72.454212048503	0.130777879649
0	7761	72.584989928152	0.007616824429
0	7763	72.592606752581	0.00499513743
0	7768	72.597601890011	0.002223025441
0	7770	72.599824915452	0.005108001369
0	7775	72.604932916821	0.016152739096
0	7783	72.621085655917	0.026723567446
0	7791	72.647809223363	0.083382875547
0	7796	72.73119209891	0.006235743057
0	7798	72.737427841967	0.097851957133
0	7808	72.8352797991	0.006058025052
0	7810	72.841337824152	0.028265772333
0	7818	72.869603596485	0.001277712281
0	7820	72.870881308766	0.05132583301
0	7829	72.922207141776	0.010645769291
0	7834	72.932852911067	0.018202216771
0	7839	72.951055127838	0.003401772664
0	7841	72.954456900502	0.087166356486
0	7850	73.041623256988	0.123556546738
0	7859	73.165179803726	0.219777912704
0	7865	73.38495771643	0.067548905555
0	7870	73.452506621985	0.061948039986
0	7875	73.514454661971	0.038484833988
0	7880	73.552939495959	0.015815465562
0	7885	73.568754961521	0.012916601202
0	7890	73.581671562723	0.035495116145
0	7895	73.617166678868	0.015169954366
0	7900	73.632336633234	0.110785568672
0	7905	73.743122201906	0.042075891886
0	7910	73.785198093792	0.013770912989
0	7915	73.798969006781	0.077117361767
0	7920	73.876086368548	0.044342912721
0	7926	73.920429281269	0.010408611807
0	7931	73.930837893076	0.018841163933
0	7936	73.949679057009	0.128976385618
0	7942	74.078655442627	0.033461501898
0	7948	74.112116944525	0.096110627643
0	7954	74.208227572168	0.000356595658
0	7956	74.208584167826	0.022079643284
0	7965	74.23066381111	0.062758680004
0	7971	74.293422491114	0.020489836589
0	7976	74.313912327703	0.109930237679
0	7982	74.423842565382	0.027674936602
0	7988	74.451517501984	0.118877276246
0	7994	74.57039477823	0.04632317445
0	7999	74.61671795268	0.173420853807
0	8004	74.790138806487	0.040365017895
0	8009	74.830503824382	0.177118095346
0	8015	75.007621919728	0.003844992123
0	8017	75.011466911851	0.04017859182
0	8025	75.051645503671	0.019327347744
0	8030	75.070972851415	0.055143799935
0	8035	75.12611665135	0.003597805488
0	8037	75.129714456838	0.033844142852
0	8045	75.16355859969	0.015620612316
0	8050	75.179179212006	0.006995224849
0	8052	75.186174436855	0.002602092136
0	8057	75.188776528991	0.049016369432
0	8065	75.237792898423	0.038190971668
0	8070	75.275983870091	0.009526546341
0	8075	75.285510416432	0.006168930648
0	8077	75.29167934708	0.004863674145
0	8082	75.296543021225	0.104363865096
0	8090	75.400906886321	0.010143474382
0	8095	75.411050360703	0.068052309412
0	8100	75.479102670115	0.059199907016
0	8105	75.538302577131	0.042339721838
0	8110	75.580642298969	0.059336811007
0	8116	75.639979109976	0.056855255425
0	8122	75.696834365401	0.01871916519
0	8129	75.715553530591	0.003880294188
0	8131	75.719433824779	0.039526448496
0	8139	75.758960273275	0.008512885043
0	8144	75.767473158318	0.065892800208
0	8151	75.833365958526	0.017344246389
0	8156	75.850710204915	4.6886851e-05
0	8158	75.850757091766	0.005473981722
0	8160	75.856231073488	0.002866164798
0	8165	75.859097238286	0.170055861134
0	8180	76.02915309942	0.171303262401
0	8185	76.200456361821	0.021525491908
0	8190	76.221981853729	0.016968653605
0	8195	76.238950507334	0.147195718457
0	8204	76.386146225791	0.120091134691
0	8209	76.506237360482	0.032249328994
0	8214	76.538486689476	0.141748279951
0	8222	76.680234969427	0.002708448348
0	8224	76.682943417775	0.043917624253
0	8232	76.726861042028	0.03416237887
0	8237	76.761023420898	0.01483185255
0	8243	76.775855273448	0.050018839446
0	8248	76.825874112894	0.138540121815
0	8254	76.964414234709	0.00579617244
0	8257	76.970210407149	6.3187247e-05
0	8259	76.970273594396	0.027694626984
0	8270	76.99796822138	0.008211088403
0	8275	77.006179309783	0.004949079032
0	8277	77.011128388815	0.03883088206
0	8285	77.049959270875	0.085079302405
0	8290	77.13503857328	0.008808261874
0	8295	77.143846835154	0.004425019683
0	8297	77.148271854837	0.02585209761
0	8306	77.174123952447	0.049675474946
0	8311	77.223799427393	0.03620463712
0	8316	77.260004064513	0.012715485883
0	8321	77.272719550396	0.024673104299
0	8327	77.297392654695	0.0141357917
0	8332	77.311528446395	0.10429759068
0	8338	77.415826037075	0.036228247188
0	8343	77.452054284263	0.059366616092
0	8348	77.511420900355	0.025056034028
0	8353	77.536476934383	0.107572771047
0	8359	77.64404970543	0.010778296593
0	8364	77.654828002023	0.013046447119
0	8369	77.667874449142	0.035957436538
0	8374	77.70383188568	0.082504069686
0	8379	77.786335955366	0.106027074998
0	8384	77.892363030364	0.011173520404
0	8389	77.903536550768	0.226950849846
0	8396	78.130487400614	0.00704754328
0	8398	78.137534943894	0.005206609595
0	8403	78.142741553489	0.041820628024
0	8411	78.184562181513	0.083560564268
0	8416	78.268122745781	0.061256575629
0	8422	78.32937932141	0.034841238758
0	8428	78.364220560168	0.000192514014
0	8430	78.364413074182	0.020186969
0	8438	78.384600043182	0.057591048327
0	8444	78.442191091509	0.071296040116
0	8452	78.513487131625	0.036239413208
0	8457	78.549726544833	0.032272886859
0	8463	78.581999431692	0.06596216497
0	8468	78.647961596662	0.016818545856
0	8474	78.664780142518	0.056936161802
0	8479	78.72171630432	0.003638057399
0	8481	78.725354361719	0.090409985677
0	8489	78.815764347396	0.059420541141
0	8495	78.875184888537	0.021091618384
0	8500	78.896276506921	0.050692953424
0	8506	78.946969460345	0.04152614767
0	8511	78.988495608015	0.019618882911
0	8516	79.008114490926	0.02517914239
0	8521	79.033293633316	0.027180025886
0	8526	79.060473659202	0.02964401234
0	8531	79.090117671542	0.062081926927
0	8536	79.152199598469	0.021347157723
0	8541	79.173546756192	0.054782230473
0	8546	79.228328986665	0.096605890461
0	8551	79.324934877126	0.060168108981
0	8556	79.385102986107	0.066453911791
0	8562	79.451556897898	0.052695845954
0	8569	79.504252743852	0.001337600714
0	8571	79.505590344566	0.032025092153
0	8579	79.537615436719	0.042275179919
0	8584	79.579890616638	0.078334173458
0	8589	79.658224790096	0.005514832122
0	8591	79.663739622218	0.070633913927
0	8599	79.734373536145	0.071534336423
0	8604	79.805907872568	0.090089874304
0	8609	79.895997746872	0.005819924564
0	8611	79.901817671436	0.018357844053
0	8619	79.920175515489	0.000553067741
0	8621	79.92072858323	0.038557852927
0	8629	79.959286436157	0.040863945927
0	8634	80.000150382084	0.007282536647
0	8639	80.007432918731	0.020629635245
0	8644	80.028062553976	0.025270991925
0	8649	80.053333545901	0.000159341404
0	8651	80.053492887305	0.081620788704
0	8660	80.135113676009	0.008562710305
0	8665	80.143676386314	0.117044953158
0	8670	80.260721339472	0.005441732432
0	8672	80.266163071904	0.030559271061
0	8680	80.296722342965	0.050339757991
0	8686	80.347062100956	0.144725645078
0	8692	80.491787746034	0.011887569162
0	8697	80.503675315196	0.003983298655
0	8699	80.507658613851	0.001164571768
0	8701	80.508823185619	0.015827275325
0	8709	80.524650460944	0.052716036081
0	8717	80.577366497025	0.006500471122
0	8719	80.583866968147	0.007255572561
0	8724	80.591122540708	0.00326695911
0	8729	80.594389499818	0.145517880208
0	8739	80.739907380026	0.015895517888
0	8744	80.755802897914	0.067371729849
0	8750	80.823174627763	0.013335747554
0	8755	80.836510375317	0.055855458855
0	8760	80.892365834172	0.0469322222
0	8765	80.939298056372	0.068531177244
0	8770	81.007829233616	0.044639452249
0	8775	81.052468685865	0.097785496493
0	8780	81.150254182358	0.052365478609
0	8786	81.202619660967	0.044394376515
0	8791	81.247014037482	0.074742542479
0	8797	81.321756579961	0.061422103041
0	8802	81.383178683002	0.024477455075
0	8807	81.407656138077	0.057145263257
0	8813	81.464801401334	0.060258473034
0	8818	81.525059874368	0.021270395148
0	8823	81.546330269516	0.03976115207
0	8828	81.586091421586	0.03765079573
0	8834	81.623742217316	0.002562266697
0	8836	81.626304484013	0.157600554863
0	8847	81.783905038876	0.027496180403
0	8852	81.811401219279	0.038258595337
0	8857	81.849659814616	0.01896776183
0	8862	81.868627576446	0.12429824866
0	8868	81.992925825106	0.000482723169
0	8870	81.993408548275	0.051781386684
0	8878	82.045189934959	0.005825657558
0	8880	82.051015592517	0.016838946693
0	8888	82.06785453921	0.010916903346
0	8893	82.078771442556	0.021630197658
0	8898	82.100401640214	0.06174017617
0	8903	82.162141816384	0.247755249973
0	8908	82.409897066357	0.003363254264
0	8910	82.413260320621	0.022870292673
0	8918	82.436130613294	0.066169952273
0	8923	82.502300565567	0.073235170262
0	8928	82.575535735829	0.036011353174
0	8933	82.611547089003	0.032349165127
0	8938	82.64389625413	0.053665937253
0	8943	82.697562191383	0.069850631692
0	8948	82.767412823075	0.152413064115
0	8955	82.91982588719	0.013820026144
0	8960	82.933645913334	0.032078986912
0	8965	82.965724900246	0.109460805104
0	8970	83.07518570535	0.022607768403
0	8975	83.097793473753	0.035459523348
0	8980	83.133252997101	0.020943266907
0	8986	83.154196264008	0.083627872974
0	8992	83.237824136982	0.015722281002
0	8997	83.253546417984	0.050280302649
0	9003	83.303826720633	0.053092817398
0	9009	83.356919538031	0.010670726719
0	9014	83.36759026475	0.051139085092
0	9020	83.418729349842	0.018009852251
0	9025	83.436739202093	0.008857229546
0	9030	83.445596431639	0.074964036417
0	9038	83.520560468056	0.051146701112
0	9043	83.571707169168	0.0342939661
0	9048	83.606001135268	0.071086857702
0	9055	83.67708799297	0.051991014093
0	9061	83.729079007063	0.003741032713
0	9063	83.732820039776	0.000785008117
0	9065	83.733605047893	0.03168156229
0	9077	83.765286610183	0.108533145034
0	9082	83.873819755217	0.146947808988
0	9088	84.020767564205	0.02756104077
0	9093	84.048328604975	0.036774678392
0	9099	84.085103283367	0.012227905051
0	9104	84.097331188418	0.030857922242
0	9110	84.12818911066	0.01811985458
0	9116	84.14630896524	0.007803721258
0	9121	84.154112686498	0.03353387925
0	9126	84.187646565748	0.037341281393
0	9131	84.224987847141	0.029445275075
0	9136	84.254433122216	0.020019011491
0	9141	84.274452133707	0.117562395421
0	9146	84.392014529128	0.023286738061
0	9151	84.415301267189	0.020299444441
0	9156	84.43560071163	0.087820114146
0	9161	84.523420825776	0.141834591941
0	9167	84.665255417717	0.071007642542
0	9174	84.736263060259	0.013596639478
0	9179	84.749859699737	0.040124820855
0	9184	84.789984520592	0.040412921428
0	9189	84.83039744202	0.007538428003
0	9194	84.837935870023	0.002090623471
0	9196	84.840026493494	0.020646041594
0	9204	84.860672535088	0.028291097778
0	9210	84.888963632866	0.111492723499
0	9216	85.000456356365	0.045862886565
0	9221	85.04631924293	0.109844801825
0	9227	85.156164044755	0.171515025328
0	9235	85.327679070083	0.013823359791
0	9240	85.341502429874	0.008367457245
0	9246	85.349869887119	0.025945170967
0	9251	85.375815058086	0.150352158194
0	9258	85.52616721628	0.163744981104
0	9263	85.689912197384	0.017552187164
0	9268	85.707464384548	0.094036860424
0	9273	85.801501244972	0.025506579709
0	9280	85.827007824681	0.055161078216
0	9285	85.882168902897	0.009716652469
0	9290	85.891885555366	0.079207279928
0	9297	85.971092835294	0.086364018256
0	9304	86.05745685355	0.004224485641
0	9306	86.061681339191	0.096460627464
0	9314	86.158141966655	0.162830471358
0	9320	86.320972438013	0.103293485726
0	9325	86.424265923739	0.024968954299
0	9330	86.449234878038	0.003290580149
0	9332	86.452525458187	0.025260625504
0	9340	86.477786083691	0.320807585592
0	9350	86.798593669283	0.017638229742
0	9355	86.816231899025	0.038552071482
0	9360	86.854783970507	0.271599330008
0	9367	87.126383300515	0.02134115534
0	9372	87.147724455855	0.103021870218
0	9378	87.250746326073	0.046482498428
0	9383	87.297228824501	0.038753409198
0	9388	87.335982233699	0.01790979194
0	9393	87.353892025639	0.069526545576
0	9400	87.423418571215	0.047429810998
0	9405	87.470848382213	0.018240370012
0	9410	87.489088752225	0.095354540393
0	9415	87.584443292618	0.047715615752
0	9421	87.63215890837	0.010758691336
0	9426	87.642917599706	0.027553442065
0	9431	87.670471041771	0.030560297924
0	9436	87.701031339695	0.116357409011
0	9442	87.817388748706	0.085561380717
0	9449	87.902950129423	0.029463336322
0	9454	87.932413465745	0.079853476075
0	9460	88.01226694182	0.045952047233
0	9465	88.058218989053	0.078282297103
0	9471	88.136501286156	0.096502537939
0	9479	88.233003824095	0.019635062845
0	9484	88.25263888694	0.027389606563
0	9489	88.280028493503	0.060490665851
0	9494	88.340519159354	0.003555349013
0	9496	88.344074508367	0.04979137644
0	9505	88.393865884807	0.084232391465
0	9511	88.478098276272	0.047503348459
0	9517	88.525601624731	0.045976059333
0	9522	88.571577684064	0.045782524696
0	9527	88.61736020876	0.386430484628
0	9535	89.003790693388	0.036493483489
0	9540	89.040284176877	0.027533795542
0	9545	89.067817972419	0.074229154638
0	9551	89.142047127057	0.018138601955
0	9556	89.160185729012	0.010791357765
0	9561	89.170977086777	0.141935104058
0	9567	89.312912190835	0.055327090113
0	9572	89.368239280948	0.011695430673
0	9577	89.379934711621	0.025272776709
0	9583	89.40520748833	0.029898815796
0	9588	89.435106304126	0.024186168626
0	9594	89.459292472752	0.033615862283
0	9599	89.492908335035	0.027358604152
0	9604	89.520266939187	0.077220074243
0	9609	89.59748701343	0.022435597818
0	9615	89.619922611248	0.082946563084
0	9620	89.702869174332	0.061884845646
0	9625	89.764754019978	0.036612531639
0	9630	89.801366551617	0.055402202212
0	9635	89.856768753829	0.034376251327
0	9640	89.891145005156	0.008822449244
0	9645	89.8999674544	0.182057951242
0	9652	90.082025405642	0.037020786805
0	9657	90.119046192447	0.006877596001
0	9659	90.125923788448	0.004358821358
0	9664	90.130282609806	0.038023589697
0	9672	90.168306199503	0.188573292284
0	9679	90.356879491787	0.050452612152
0	9686	90.407332103939	0.043954895559
0	9691	90.451286999498	0.073169439179
0	9698	90.524456438677	0.009174197487
0	9703	90.533630636164	0.081794818027
0	9709	90.615425454191	0.055281364291
0	9714	90.670706818482	0.075047986724
0	9719	90.745754805206	0.089381156272
0	9726	90.835135961478	0.04928902035
0	9731	90.884424981828	0.000536766432
0	9733	90.88496174826	0.029706651886
0	9741	90.914668400146	0.011128893716
0	9746	90.925797293862	0.026173848519
0	9752	90.951971142381	0.001255896845
0	9754	90.953227039226	0.012285586493
0	9760	90.965512625719	0.03743423221
0	9769	91.002946857929	0.07836755189
0	9775	91.081314409819	0.133764380795
0	9781	91.215078790614	0.069630393237
0	9786	91.284709183851	0.161984417119
0	9791	91.44669360097	0.081424976627
0	9796	91.528118577597	0.070775277357
0	9801	91.598893854954	0.086902863068
0	9807	91.685796718022	0.071501415811
0	9812	91.757298133833	0.044964592844
0	9817	91.802262726677	0.011503659425
0	9822	91.813766386102	0.000369336665
0	9824	91.814135722767	0.109359923425
0	9832	91.923495646192	0.002461229852
0	9834	91.925956876044	0.116244809421
0	9843	92.042201685465	0.069851199428
0	9848	92.112052884893	0.020086078133
0	9853	92.132138963026	0.023279507382
0	9858	92.155418470408	0.006479466273
0	9861	92.161897936681	0.004324219327
0	9866	92.166222156008	0.079360766734
0	9874	92.245582922742	0.0449207693
0	9879	92.290503692042	0.007721838834
0	9881	92.298225530876	0.018586873496
0	9889	92.316812404372	0.007868459478
0	9891	92.32468086385	0.10064199649
0	9900	92.42532286034	0.074607827936
0	9906	92.499930688276	0.027356042606
0	9911	92.527286730882	0.032087902745
0	9916	92.559374633627	0.017201525893
0	9921	92.57657615952	0.034334900184
0	9926	92.610911059704	0.079542257389
0	9931	92.690453317093	0.041980396186
0	9936	92.732433713279	0.054841254827
0	9941	92.787274968106	0.126968050827
0	9948	92.914243018933	0.022330262731
0	9954	92.936573281664	0.00110950243
0	9956	92.937682784094	0.003914648838
0	9958	92.941597432932	0.04143583083
0	9969	92.983033263762	0.019826058637
0	9975	93.002859322399	0.003184552064
0	9977	93.006043874463	0.078921576907
0	9986	93.08496545137	0.065874332145
0	9992	93.150839783515	0.000789091513
0	9994	93.151628875028	0.029025550158
0	10002	93.180654425186	0.027943872864
0	10007	93.20859829805	0.009115934402
0	10012	93.217714232452	0.003495789277
0	10014	93.221210021729	0.049549576555
0	10022	93.270759598284	0.010525092433
0	10027	93.281284690717	0.021476700904
0	10032	93.302761391621	0.072041457609
0	10037	93.37480284923	0.110565500458
0	10042	93.485368349688	0.022289368578
0	10047	93.507657718266	0.040334686629
0	10053	93.547992404895	0.022077610221
0	10058	93.570070015116	0.001678272073
0	10060	93.571748287189	0.059976532833
0	10068	93.631724820022	0.112589934188
0	10074	93.74431475421	0.05034792877
0	10080	93.79466268298	0.057677204131
0	10085	93.852339887111	0.142874521126
0	10090	93.995214408237	0.02288992395
0	10095	94.018104332187	0.04351828607
0	10102	94.061622618257	0.040780147849
0	10107	94.102402766106	0.006438481895
0	10109	94.108841248001	0.040514838554
0	10117	94.149356086555	0.08411127697
0	10122	94.233467363525	0.079644607104
0	10128	94.313111970629	0.134111924216
0	10133	94.447223894845	0.093612600244
0	10138	94.540836495089	0.107375378728
0	10146	94.648211873817	0.10216880837
0	10151	94.750380682187	0.018464109741
0	10156	94.768844791928	0.185526326655
0	10162	94.954371118583	0.129610694082
0	10168	95.083981812665	0.035623346654
0	10173	95.119605159319	0.067058510899
0	10180	95.186663670218	0.099374843263
0	10186	95.286038513481	0.189070805282
0	10191	95.475109318763	0.028795256712
0	10198	95.503904575475	0.021421816206
0	10203	95.525326391681	0.004511703156
0	10205	95.529838094837	0.063305206227
0	10213	95.593143301064	0.00762566458
0	10215	95.600768965644	0.018972906433
0	10223	95.619741872077	0.002184849925
0	10225	95.621926722002	0.008824912376
0	10230	95.630751634378	0.037044026713
0	10238	95.667795661091	0.047593283596
0	10243	95.715388944687	0.072787181366
0	10248	95.788176126053	0.000692111529
0	10250	95.788868237582	0.038691630447
0	10259	95.827559868029	0.01953284486
0	10264	95.847092712889	0.0828547769
0	10270	95.929947489789	0.005609174307
0	10272	95.935556664096	0.055103090017
0	10280	95.990659754113	0.031265059755
0	10286	96.021924813868	0.040072961837
0	10292	96.061997775705	0.020023130069
0	10297	96.082020905774	0.021504662699
0	10303	96.103525568473	0.07364011074
0	10308	96.177165679213	0.007406154034
0	10310	96.184571833247	0.02866781347
0	10319	96.213239646717	0.100972278826
0	10324	96.314211925543	0.032634712512
0	10329	96.346846638055	0.023641529429
0	10334	96.370488167484	0.139655884996
0	10339	96.51014405248	0.03644373684
0	10344	96.54658778932	0.091539908197
0	10351	96.638127697517	0.061788552608
0	10356	96.699916250125	0.095730747718
0	10361	96.795646997843	0.008486030179
0	10366	96.804133028022	0.06640901726
0	10371	96.870542045282	0.065658356516
0	10376	96.936200401798	0.121450519063
0	10382	97.057650920861	0.028914197028
0	10387	97.086565117889	0.054072592834
0	10392	97.140637710723	0.036472534768
0	10398	97.177110245491	0.011039436576
0	10403	97.188149682067	0.051621921671
0	10409	97.239771603738	0.009937649813
0	10414	97.249709253551	0.063229327699
0	10419	97.31293858125	0.040012875124
0	10424	97.352951456374	0.033622005404
0	10429	97.386573461778	0.013243147503
0	10434	97.399816609281	0.00450098017
0	10436	97.404317589451	0.030481553076
0	10444	97.434799142527	0.053087528962
0	10450	97.487886671489	0.040053598804
0	10456	97.527940270293	0.05968773581
0	10462	97.587628006103	0.00432319887
0	10464	97.591951204973	0.078805434618
0	10472	97.670756639591	0.014962837478
0	10478	97.685719477069	0.069621858786
0	10483	97.755341335855	0.003083620063
0	10485	97.758424955918	0.078198958817
0	10494	97.836623914735	0.037627585393
0	10499	97.874251500128	0.002789735552
0	10501	97.87704123568	0.027543891536
0	10510	97.904585127216	0.017557552523
0	10515	97.922142679739	0.063832889574
0	10521	97.985975569313	0.298509154395
0	10533	98.284484723708	0.001541164048
0	10535	98.286025887756	0.000435985213
0	10537	98.286461872969	0.006716082604
0	10543	98.293177955573	0.009578700095
0	10548	98.302756655668	0.073628663006
0	10559	98.376385318674	0.003854005084
0	10561	98.380239323758	0.024231516994
0	10569	98.404470840752	0.008578678511
0	10574	98.413049519263	0.084787923973
0	10580	98.497837443236	0.003189345622
0	10582	98.501026788858	0.009301949495
0	10587	98.510328738353	0.010187984763
0	10595	98.520516723116	0.050239517758
0	10600	98.570756240874	0.068656106042
0	10605	98.639412346916	0.048022406618
0	10610	98.687434753534	0.057543780953
0	10616	98.744978534487	0.007991721047
0	10621	98.752970255534	0.003941513247
0	10623	98.756911768781	0.062263596798
0	10631	98.819175365579	0.002108205713
0	10633	98.821283571292	0.061472340169
0	10641	98.882755911461	0.031399008191
0	10646	98.914154919652	0.007413410887
0	10648	98.921568330539	0.050744909183
0	10656	98.972313239722	0.014623334959
0	10661	98.986936574681	0.033193937843
0	10666	99.020130512524	0.04202109103
0	10671	99.062151603554	0.018820501144
0	10676	99.080972104698	0.003729161994
0	10678	99.084701266692	0.002280160542
0	10680	99.086981427234	0.096343658361
0	10691	99.183325085595	0.040619673912
0	10696	99.223944759507	0.034009176544
0	10701	99.257953936051	0.014808818496
0	10706	99.272762754547	0.002248447075
0	10708	99.275011201622	0.05751659123
0	10717	99.332527792852	0.004412713605
0	10719	99.336940506457	0.019325642939
0	10727	99.356266149396	0.139015518309
0	10734	99.495281667705	0.012232543679
0	10740	99.507514211384	0.090327599808
0	10745	99.597841811192	0.009718848872
0	10750	99.607560660064	0.14758903944
0	10755	99.755149699504	0.020219491653
0	10760	99.775369191157	0.078443585708
0	10765	99.853812776865	0.006102024392
0	10767	99.859914801257	0.030337671856
0	10775	99.890252473113	0.069591784938
0	10780	99.959844258051	0.181457551862
0	10787	100.141301809913	0.014181100455
0	10792	100.155482910368	0.135140380496
0	10802	100.290623290864	0.007923436633
0	10807	100.298546727497	0.102469479494
0	10812	100.401016206991	0.030985718883
0	10817	100.432001925874	0.025460632275
0	10823	100.457462558149	0.001471242874
0	10825	100.458933801023	0.050531672735
0	10833	100.509465473758	0.024332074936
0	10838	100.533797548694	0.047275435063
0	10843	100.581072983757	0.029032749857
0	10848	100.610105733614	0.190255491194
0	10856	100.800361224808	0.132023968333
0	10863	100.932385193141	0.084014487706
0	10868	101.016399680847	0.001377852572
0	10870	101.017777533419	0.010212664869
0	10875	101.027990198288	0.008356738439
0	10880	101.036346936727	0.115731270401
0	10888	101.152078207128	0.000698940126
0	10890	101.152777147254	0.029483906506
0	10898	101.18226105376	0.064870374218
0	10904	101.247131427978	0.041265276217
0	10909	101.288396704195	0.036741614757
0	10914	101.325138318952	0.094301072768
0	10919	101.41943939172	0.013439558971
0	10924	101.432878950691	0.030042008248
0	10930	101.462920958939	0.032206870588
0	10935	101.495127829527	0.016344586721
0	10940	101.511472416248	0.015400269199
0	10945	101.526872685447	0.02718283467
0	10950	101.554055520117	0.116393232216
0	10955	101.670448752333	0.043223677132
0	10960	101.713672429465	0.001398873623
0	10962	101.715071303088	0.018699451931
0	10971	101.733770755019	0.012152753827
0	10976	101.745923508846	0.000477396069
0	10978	101.746400904915	0.007814958175
0	10983	101.75421586309	0.03075146413
0	10992	101.78496732722	0.030745840443
0	10998	101.815713167663	0.149509667933
0	11006	101.965222835596	0.044965246032
0	11011	102.010188081628	0.143441176292
0	11017	102.15362925792	0.023449342762
0	11022	102.177078600682	0.033337664132
0	11028	102.210416264814	0.014785043516
0	11033	102.22520130833	0.164272087848
0	11042	102.389473396178	0.19394052039
0	11048	102.583413916568	0.010978011192
0	11053	102.59439192776	0.043807496473
0	11059	102.638199424233	0.035204018107
0	11064	102.67340344234	0.079032767387
0	11072	102.752436209727	0.031627002665
0	11078	102.784063212392	0.082356712221
0	11083	102.866419924613	0.022199701587
0	11089	102.8886196262	0.02436232991
0	11094	102.91298195611	0.004151161245
0	11096	102.917133117355	0.027795005241
0	11105	102.944928122596	0.00686808283
0	11107	102.951796205426	0.000453563933
0	11109	102.952249769359	0.007910031041
0	11114	102.9601598004	0.121224995334
0	11126	103.081384795734	0.169067006506
0	11133	103.25045180224	0.03326628687
0	11138	103.28371808911	0.05505467903
0	11143	103.33877276814	0.005538179576
0	11146	103.344310947716	0.008873598607
0	11152	103.353184546323	0.039289219594
0	11160	103.392473765917	0.127702199378
0	11166	103.520175965295	0.060905644099
0	11171	103.581081609394	0.024288009487
0	11176	103.605369618881	0.05009463208
0	11182	103.655464250961	0.048589065136
0	11187	103.704053316097	0.00138674527
0	11189	103.705440061367	0.025745868731
0	11197	103.731185930098	0.021121110949
0	11202	103.752307041047	0.011791560182
0	11207	103.764098601229	0.059839439079
0	11213	103.823938040308	0.02155951374
0	11218	103.845497554048	0.121090070881
0	11224	103.966587624929	0.062693642047
0	11229	104.029281266976	0.026727116182
0	11234	104.056008383158	0.000493207762
0	11236	104.05650159092	0.145575762798
0	11245	104.202077353718	0.088327153364
0	11250	104.290404507082	0.042683014641
0	11255	104.333087521723	0.041131934116
0	11260	104.374219455839	0.189867014604
0	11268	104.564086470443	0.036488569484
0	11273	104.600575039927	0.088267304888
0	11279	104.688842344815	0.165762587767
0	11285	104.854604932582	0.00577248621
0	11287	104.860377418792	0.013287572945
0	11295	104.873664991737	0.032791532082
0	11300	104.906456523819	0.149235900692
0	11307	105.055692424511	0.025085627334
0	11312	105.080778051845	0.011936371353
0	11317	105.092714423198	0.045365959424
0	11322	105.138080382622	0.140656089961
0	11328	105.278736472583	0.023176607014
0	11334	105.301913079597	0.014085016669
0	11339	105.315998096266	0.008661449171
0	11344	105.324659545437	0.036607126122
0	11349	105.361266671559	0.102294820814
0	11354	105.463561492373	0.046068860704
0	11361	105.509630353077	0.022743620587
0	11366	105.532373973664	0.142950396182
0	11371	105.675324369846	0.059769781205
0	11376	105.735094151051	0.001048504265
0	11378	105.736142655316	0.118708971087
0	11388	105.854851626403	0.073301307954
0	11393	105.928152934357	0.133707559091
0	11400	106.061860493448	0.031614529386
0	11405	106.093475022834	0.079267244886
0	11410	106.17274226772	0.000485681222
0	11412	106.173227948942	0.113614555673
0	11420	106.286842504615	0.010064614428
0	11425	106.296907119043	0.019422642681
0	11430	106.316329761724	0.017968492639
0	11435	106.334298254363	0.01873482697
0	11440	106.353033081333	0.063122880067
0	11447	106.4161559614	0.163148070244
0	11452	106.579304031644	0.068527761667
0	11457	106.647831793311	0.00595244748
0	11459	106.653784240791	0.02921468419
0	11467	106.682998924981	0.203628235382
0	11472	106.886627160363	0.063302554156
0	11477	106.949929714519	0.010732458312
0	11482	106.960662172831	0.001881754878
0	11484	106.962543927709	0.015627536922
0	11492	106.978171464631	0.262525181489
0	11499	107.24069664612	0.093509566431
0	11504	107.334206212551	0.098789697268
0	11511	107.432995909819	0.000471126802
0	11513	107.433467036621	0.010536975377
0	11518	107.444004011998	0.015099190501
0	11526	107.459103202499	0.05084108549
0	11533	107.509944287989	0.137734514256
0	11542	107.647678802245	0.035058369505
0	11547	107.68273717175	0.038009581849
0	11552	107.720746753599	0.016905466439
0	11558	107.737652220038	0.047381044451
0	11563	107.785033264489	0.019471966857
0	11568	107.804505231346	0.049188413441
0	11574	107.853693644787	0.029132846401
0	11579	107.882826491188	0.026438306753
0	11586	107.909264797941	0.017997114458
0	11591	107.927261912399	0.054567999787
0	11596	107.981829912186	0.038016344066
0	11602	108.019846256252	0.007760269551
0	11604	108.027606525803	0.040166988216
0	11612	108.067773514019	0.027876210218
0	11617	108.095649724237	0.211421474249
0	11623	108.307071198486	0.06019319188
0	11629	108.367264390366	0.054523270226
0	11634	108.421787660592	0.015821921041
0	11639	108.437609581633	0.171809537824
0	11644	108.609419119457	0.078033929062
0	11652	108.687453048519	0.1452726119
0	11659	108.832725660419	0.002158426371
0	11661	108.83488408679	0.006697744567
0	11666	108.841581831357	0.027804677228
0	11674	108.869386508585	0.00192583773
0	11676	108.871312346315	0.024613173809
0	11685	108.895925520124	0.086445026668
0	11690	108.982370546792	0.009403931744
0	11696	108.991774478536	0.173185181275
0	11703	109.164959659811	0.036604066085
0	11709	109.201563725896	0.018999238073
0	11714	109.220562963969	0.024590946735
0	11719	109.245153910704	0.05026530554
0	11725	109.295419216244	0.052237628763
0	11732	109.347656845007	0.022503514726
0	11737	109.370160359733	0.078830405003
0	11743	109.448990764736	0.1605006993
0	11748	109.609491464036	0.025832843432
0	11754	109.635324307468	0.072473795461
0	11759	109.707798102929	0.068684062513
0	11764	109.776482165442	0.053979519166
0	11769	109.830461684608	0.051561385554
0	11774	109.882023070162	0.044828879138
0	11779	109.9268519493	0.130754923273
0	11787	110.057606872573	0.030120907938
0	11793	110.087727780511	0.009801841533
0	11798	110.097529622044	0.004340097732
0	11800	110.101869719776	0.003113809045
0	11802	110.104983528821	0.011836252393
0	11810	110.116819781214	0.089831286877
0	11818	110.206651068091	0.069720790964
0	11823	110.276371859055	0.084286297454
0	11829	110.360658156509	0.014804106508
0	11834	110.375462263017	0.006200881439
0	11836	110.381663144456	0.0794790545
0	11845	110.461142198956	0.046358018053
0	11851	110.507500217009	0.033049965042
0	11856	110.540550182051	0.002035105414
0	11858	110.542585287465	0.005010255761
0	11860	110.547595543226	0.001131355397
0	11865	110.548726898623	0.046333739315
0	11877	110.595060637938	0.011250622218
0	11882	110.606311260156	0.009703844042
0	11887	110.616015104198	0.008545462893
0	11892	110.624560567091	0.007654504889
0	11894	110.63221507198	0.037446390776
0	11903	110.669661462756	0.072367391582
0	11909	110.742028854338	0.062262916135
0	11914	110.804291770473	0.052783476456
0	11919	110.857075246929	0.058904134361
0	11925	110.91597938129	0.016111648186
0	11930	110.932091029476	0.066628045392
0	11935	110.998719074868	0.011430677215
0	11940	111.010149752083	0.017320658657
0	11945	111.02747041074	0.035905406126
0	11950	111.063375816866	0.012427130306
0	11955	111.075802947172	0.077873938112
0	11961	111.153676885284	0.031368850989
0	11966	111.185045736273	0.056029933161
0	11971	111.241075669434	0.059736735454
0	11976	111.300812404888	0.084977812029
0	11981	111.385790216917	0.012533475887
0	11986	111.398323692804	0.006022354502
0	11988	111.404346047306	0.045975497567
0	11998	111.450321544873	0.07883649153
0	12003	111.529158036403	0.007810131472
0	12005	111.536968167875	0.005487910242
0	12010	111.542456078117	0.01426767269
[...]
19	21009	194.146552375184	5.7736382834322
19	21667	199.920190658616	0.4324638359058
19	21737	200.352654494522	6.8886613617436
19	22500	207.241315856266	1.609487265182
19	22670	208.850803121448	0.29718215691857
19	22686	209.147985278367	2.9608769816742
19	23003	212.108862260041	0.18156748029898
19	23013	212.29042974034	7.2846973404935
19	23620	219.575127080834	2.4312412650886
19	23914	222.006368345923	6.34785143687
19	24619	228.354219782793	2.91276745839
19	24962	231.266987241183	2.2833977280761
19	25214	233.550384969259	1.3111630496493
19	25354	234.861548018908	2.1299445720271
19	25609	236.991492590935	4.0908106782779
19	26077	241.082303269213	0.53879946466451
19	26166	241.621102733878	0.025325348057867
19	26168	241.646428081936	0.73307142435393
19	26241	242.37949950629	0.69148702183457
19	26346	243.070986528125	6.7148989969082
19	27003	249.785885525033	2.2030049711401
19	27258	251.988890496173	0.83999438415482
19	27333	252.828884880328	1.7324488323851
19	27564	254.561333712713	0.54605649562727
19	27637	255.10739020834	1.1057205029628
19	27757	256.213110711303	3.2429130013483
19	28125	259.456023712651	0.89962213437882
19	28197	260.35564584703	0.50380118958533
19	28273	260.859447036615	1.6525851789319
19	28505	262.512032215547	0.57100949292008
19	28596	263.083041708467	0.37960128526979
19	28640	263.462642993737	0.077322570290563
19	28646	263.539965564028	1.3932350383189
19	28841	264.933200602347	2.6790213674208
19	29124	267.612221969768	2.6488306681958
19	29383	270.261052637964	3.0125202098585
19	29774	273.273572847823	2.7195432518684
19	30033	275.993116099691	2.194433285244
19	30238	278.187549384935	0.11122863325927
19	30266	278.298778018194	0.89475877996436
19	30362	279.193536798158	1.119457477892
19	30498	280.31299427605	4.4903410720203
19	30953	284.80333534807	9.3547564516224
19	31895	294.158091799692	0.50060629066732
19	31953	294.658698090359	1.2598513705888
19	32108	295.918549460948	1.7332583120241
19	32321	297.651807772972	2.8679851939465
19	32585	300.519792966919	1.4408637328991
19	32745	301.960656699818	0.68741959806486
19	32828	302.648076297883	1.0527765779652
19	32942	303.700852875848	2.3741366923131
19	33215	306.074989568161	0.061952151112067
19	33223	306.136941719273	1.1456386669593
19	33339	307.282580386232	0.20952244642056
19	33375	307.492102832653	5.3399168300934
19	33923	312.832019662746	1.5513026969057
19	34084	314.383322359652	1.5232686247486
19	34227	315.906590984401	6.8165269065084
19	35000	322.723117890909	4.2427086296291
19	35478	326.965826520538	0.053202329817254
19	35479	327.019028850355	3.7943236334703
19	35953	330.813352483825	1.4941374803243
19	36072	332.307489964149	2.959799755525
19	36393	335.267289719674	5.1478211114961
19	36997	340.41511083117	10.184405251551
19	38226	350.599516082721	1.8024085313932
19	38453	352.401924614114	3.1849098953712
19	38799	355.586834509485	0.72066019949778
19	38879	356.307494708983	4.7610759558668
19	39343	361.06857066485	3.0726060751122
19	39705	364.141176739962	1.2054405419926
19	39813	365.346617281955	0.32741975185924
19	39852	365.674037033814	1.9571145162631
19	40001	367.631151550077	5.1908008270709
19	40552	372.821952377148	0.36918570296743
19	40563	373.191138080115	0.96791281056706
19	40637	374.159050890682	2.1164087816619
19	40855	376.275459672344	1.1029581015564
19	40960	377.3784177739	3.940209548744
19	41403	381.318627322644	0.7902162865917
19	41450	382.108843609236	0.80724509165502
19	41531	382.916088700891	1.5321476218626
19	41692	384.448236322754	1.9910007715567
19	41852	386.439237094311	1.5022246555591
19	42024	387.94146174987	3.6708892994697
19	42406	391.61235104934	0.18812461088776
19	42429	391.800475660228	0.69860889848066
19	42541	392.499084558709	1.4219031323229
19	42735	393.920987691032	1.7190344621804
19	42934	395.640022153212	0.19365652178361
19	42951	395.833678674996	1.6442333602325
19	43109	397.477912035229	3.3741236688626
20	1490	13.4844309979	3.8960673044765
20	1910	17.380498302377	1.3138114091936
20	2060	18.694309711571	8.6693360037477
20	2975	27.363645715319	2.4126128891294
20	3190	29.776258604448	2.4363151048141
20	3420	32.212573709262	0.72534971124908
20	3484	32.937923420511	0.18589275135228
20	3491	33.123816171863	0.63024296244723
20	3585	33.75405913431	2.0582393330264
20	3817	35.812298467336	1.7258668228839
20	4001	37.53816529022	0.39360095064242
20	4081	37.931766240862	1.7840453003963
20	4251	39.715811541258	7.8129661481209
20	5067	47.528777689379	1.6439650653853
20	5267	49.172742754764	0.55085462036616
20	5306	49.72359737513	0.46155738191758
20	5367	50.185154757048	1.2485048367001
20	5477	51.433659593748	0.13291582142758
20	5488	51.566575415176	0.33825081798939
20	5530	51.904826233165	0.66960142575943
20	5622	52.574427658924	0.53190898341975
20	5663	53.106336642344	0.23863984620012
20	5677	53.344976488544	0.22264746644987
20	5686	53.567623954994	0.38034822894869
20	5704	53.947972183943	0.50151582753259
20	5770	54.449488011476	4.9163358158392
20	6245	59.365823827315	1.4689727107179
20	6439	60.834796538033	9.3404979608077
20	7484	70.175294498841	4.0680382208505
20	7970	74.243332719692	7.4247165350339
20	8844	81.668049254726	3.7083745798776
20	9253	85.376423834604	0.62731548161216
20	9302	86.003739316216	9.1275765910919
20	10178	95.131315907308	3.119228652134
20	10531	98.250544559442	3.6250930462961
20	11003	101.875637605738	1.6219160217542
20	11165	103.497553627492	1.4358896373467
20	11306	104.933443264839	2.8005175794231
20	11557	107.733960844262	0.25957494716548
20	11601	107.993535791427	0.28731559013732
20	11622	108.280851381564	1.7951158819511
20	11792	110.075967263515	2.2770256062055
20	12101	112.352992869721	2.9501508644211
20	12446	115.303143734142	0.10024241161207
20	12457	115.403386145754	0.72694147380586
20	12560	116.13032761956	3.0477672862853
20	12893	119.178094905845	2.2031786696363
20	13084	121.381273575481	0.46428627722707
20	13170	121.845559852708	2.9673782879644
20	13458	124.812938140672	2.8791718633031
20	13812	127.692110003975	2.6175747518101
20	14056	130.309684755785	2.6952448077658
20	14295	133.004929563551	4.3969145190898
20	14718	137.401844082641	1.9223377167123
20	14929	139.324181799353	0.97042226926394
20	15032	140.294604068617	0.45698566788402
20	15111	140.751589736501	1.5944904786735
20	15244	142.346080215175	0.24132712210247
20	15263	142.587407337277	1.1555655889517
20	15386	143.742972926229	0.24544866611168
20	15398	143.988421592341	2.1989771282746
20	15684	146.187398720616	5.274073234596
20	16203	151.461471955212	1.1916838922266
20	16332	152.653155847439	1.1780942314918
20	16481	153.831250078931	2.5186166201446
20	16744	156.349866699076	0.55039122109757
20	16806	156.900257920174	0.41149900859235
20	16861	157.311756928766	2.2870238048104
20	17117	159.598780733576	3.8818091465786
20	17523	163.480589880155	3.5053027991598
20	17923	166.985892679315	2.8032105273134
20	18217	169.789103206628	1.3823841483338
20	18405	171.171487354962	3.8196017336495
20	18817	174.991089088611	0.36703642631278
20	18857	175.358125514924	3.7249185334945
20	19275	179.083044048418	1.331668936566
20	19411	180.414712984984	2.0510626634461
20	19693	182.46577564843	4.224908079051
20	20155	186.690683727481	1.9491890342467
20	20337	188.639872761728	2.6675711233316
20	20631	191.30744388506	0.83344004805506
20	20787	192.140883933115	3.8101260887641
20	21256	195.951010021879	5.502905923191
20	21850	201.45391594507	3.1964351209395
20	22240	204.65035106601	0.31221268129622
20	22286	204.962563747306	0.41721303815328
20	22334	205.379776785459	2.9753721914511
20	22619	208.35514897691	0.2208186874554
20	22644	208.575967664365	1.0456950260335
20	22730	209.621662690398	1.0081536004911
20	22848	210.629816290889	2.9267195119008
20	23125	213.55653580279	0.26591076772898
20	23163	213.822446570519	3.2763292844381
20	23474	217.098775854957	0.22323843437291
20	23481	217.32201428933	4.3010529512428
20	23886	221.623067240573	4.1391336155823
20	24323	225.762200856155	1.4828003643301
20	24482	227.245001220485	0.70383408880063
20	24537	227.948835309286	3.7048312393839
20	25029	231.65366654867	1.5232348750107
20	25185	233.176901423681	1.8161783855206
20	25357	234.993079809202	0.43513653270992
20	25441	235.428216341912	0.47475484480341
20	25502	235.902971186715	4.2005454932477
20	25957	240.103516679963	0.56640018166094
20	26030	240.669916861624	0.015699868795595
20	26036	240.68561673042	4.6159777568249
20	26548	245.301594487245	1.5150283206723
20	26702	246.816622807917	0.24969956810135
20	26732	247.066322376018	1.9364297975604
20	26922	249.002752173578	0.56511912712853
20	26965	249.567871300707	1.8942263268441
20	27213	251.462097627551	2.6968874628863
20	27504	254.158985090437	1.0179975676778
20	27648	255.176982658115	0.28804828877749
20	27685	255.465030946892	1.2750921491894
20	27819	256.740123096081	1.0578116626984
20	27940	257.797934758779	4.4565485862027
20	28471	262.254483344982	0.24915715277304
20	28504	262.503640497755	1.5293488424335
20	28707	264.032989340189	0.37754915830597
20	28771	264.410538498495	1.324140316771
20	28905	265.734678815266	1.8801575875527
20	29125	267.614836402819	3.9314215325134
20	29565	271.546257935332	0.23148687292169
20	29589	271.777744808254	3.7763327516328
20	29991	275.554077559887	0.12211356928472
20	29995	275.676191129172	6.3266051853064
20	30702	282.002796314478	5.4286903656421
20	31219	287.43148668012	3.0947662665749
20	31520	290.526252946695	7.016343332873
20	32318	297.542596279568	0.72691346704287
20	32393	298.269509746611	0.058455645224926
20	32399	298.327965391836	0.9906264366364
20	32482	299.318591828472	0.2003661948293
20	32508	299.518958023301	0.64735181644584
20	32558	300.166309839747	1.1202775401829
20	32667	301.28658737993	4.11034777128
20	33115	305.39693515121	0.12505086191953
20	33125	305.52198601313	5.1937831984993
20	33710	310.715769211629	4.1674212748632
20	34128	314.883190486492	1.9928712697137
20	34328	316.876061756206	1.5134314811927
20	34505	318.389493237399	1.0652589915512
20	34706	319.45475222895	0.92798325540145
20	34782	320.382735484351	0.067925751922024
20	34793	320.450661236273	3.7869544600558
20	35217	324.237615696329	1.9206891900047
20	35408	326.158304886334	1.5857790051595
20	35560	327.744083891494	0.64252029990769
20	35654	328.386604191402	0.79997011666387
20	35748	329.186574308066	2.5025072379734
20	36026	331.689081546039	4.7436601405071
20	36544	336.432741686546	2.6935984066787
20	36884	339.126340093225	0.66037238843694
20	36956	339.786712481662	4.0909987119681
20	37371	343.87771119363	4.0745052725456
20	37940	347.952216466176	11.081541524056
20	39103	359.033757990232	0.09922756122289
20	39109	359.132985551455	2.889712761532
20	39462	362.022698312987	4.1254783231953
20	39895	366.148176636182	2.0661692701162
20	40077	368.214345906298	0.46027010989434
20	40117	368.674616016192	1.9131933622079
20	40317	370.5878093784	0.87092819950535
20	40400	371.458737577905	1.0639658531231
20	40517	372.522703431028	0.23965931281249
20	40545	372.76236274384	1.527667341309
20	40651	374.290030085149	6.9974845149449
20	41402	381.287514600094	0.074118662028059
20	41409	381.361633262122	1.6840492929569
20	41542	383.045682555079	1.3327652132396
20	41687	384.378447768319	2.949977778768
20	41974	387.328425547087	1.6017352627602
20	42112	388.930160809847	0.11639187986979
20	42123	389.046552689717	0.34505028753001
20	42161	389.391602977247	0.67695439118813
20	42226	390.068557368435	2.6025002606599
20	42557	392.671057629095	0.48723490746065
20	42639	393.158292536556	2.8865677334081
20	42973	396.044860269964	2.0853124118122
20	43175	398.130172681776	3.868392573727
21	1713	15.618643326518	0.23829650756487
21	1732	15.856939834083	0.49931297376531
21	1795	16.356252807848	0.5595851971678
21	1877	16.915838005016	1.0909273339752
21	1977	18.006765338991	0.20334013512953
21	2003	18.210105474121	0.32607483805067
21	2039	18.536180312172	5.7400693949089
21	2664	24.276249707081	0.63887610947369
21	2732	24.915125816555	0.0022402635923367
21	2733	24.917366080147	0.029160623993282
21	2734	24.94652670414	2.1831519362164
21	2963	27.129678640356	1.2961709274696
21	3068	28.425849567826	0.39346495241351
21	3107	28.81931452024	0.05642464304085
21	3113	28.875739163281	0.62039485391758
21	3162	29.496134017199	2.5414857514804
21	3396	32.037619768679	0.44908330049224
21	3443	32.486703069171	0.28213348261946
21	3472	32.76883655179	2.2144978674962
21	3755	34.983334419286	2.1282925025068
21	3946	37.111626921793	4.2287698757899
21	4394	41.340396797583	5.1326172627239
21	4951	46.473014060307	2.6355019897798
21	5265	49.108516050087	4.9813882155092
21	5713	54.089904265596	0.60802585202084
21	5806	54.697930117617	7.8837074044588
21	6639	62.581637522076	1.0018444836152
21	6742	63.583482005691	0.3251205668617
21	6786	63.908602572553	1.4690119060936
21	6952	65.377614478647	1.2338894326186
21	7053	66.611503911266	2.7239815227849
21	7394	69.335485434051	0.48632460151283
21	7441	69.821810035564	0.30345233244338
21	7480	70.125262368007	0.10482550190882
21	7488	70.230087869916	0.16649964125732
21	7516	70.396587511173	1.4178440217115
21	7670	71.814431532884	1.2445724664338
21	7855	73.059003999318	2.9558740645669
21	8178	76.014878063885	0.95395015578553
21	8256	76.968828219671	0.30748087585986
21	8323	77.276309095531	3.9205910970898
21	8785	81.196900192621	2.7955631140332
21	9087	83.992463306654	0.72176828510965
21	9173	84.714231591764	0.48118086785076
21	9232	85.195412459615	4.2586161419904
21	9593	89.454028601605	1.5259107070011
21	9768	90.979939308606	1.1779816596814
21	9860	92.157920968287	4.4171025147417
21	10350	96.575023483029	1.4234252876378
21	10526	97.998448770667	1.3956306671272
21	10733	99.394079437794	0.10702044618414
21	10736	99.501099883978	0.78951307493961
21	10801	100.290612958918	7.2737007352144
21	11539	107.564313694132	2.8527323993972
21	11844	110.417046093529	0.67182263121676
21	11960	111.088868724746	1.8719384745347
21	12138	112.960807199281	9.6104889425492
21	13230	122.57129614183	0.72478331120494
21	13296	123.296079453035	1.044049120493
21	13378	124.340128573528	0.94510528425084
21	13506	125.285233857779	3.8239676933574
21	13900	129.109201551136	1.1087905826813
21	14044	130.217992133817	0.4210389669187
21	14075	130.639031100736	3.1443243364104
21	14361	133.783355437146	0.55149727257155
21	14420	134.334852709718	1.0280047315992
21	14496	135.362857441317	0.70654689622529
21	14579	136.069404337542	1.5339279505382
21	14742	137.60333228808	6.8963712385823
21	15450	144.499703526662	2.3434753778365
21	15737	146.843178904499	3.2197750983506
21	16071	150.06295400285	1.5640330280725
21	16249	151.626987030923	1.8461006954327
21	16448	153.473087726356	3.2260597959669
21	16792	156.699147522323	3.0472914822494
21	17143	159.746439004572	1.1515052581088
21	17265	160.897944262681	1.1769543153335
21	17367	162.074898578014	0.80927029492529
21	17483	162.884168872939	0.62787452538441
21	17529	163.512043398323	0.21518536603586
21	17549	163.727228764359	0.32712987470078
21	17581	164.05435863906	0.10830806666189
21	17592	164.162666705722	1.7136699792471
21	17800	165.876336684969	1.5128788267431
21	17968	167.389215511712	0.33744144651849
21	17997	167.72665695823	0.10187445781186
21	18008	167.828531416042	0.87345846226882
21	18093	168.701989878311	2.9644064068665
21	18487	171.666396285178	0.93500462683214
21	18582	172.60140091201	2.028444612987
21	18771	174.629845524997	2.025280750721
21	19002	176.655126275718	6.3675069702842
21	19742	183.022633246002	1.7863316986839
21	19983	184.808964944686	1.5737219567838
21	20136	186.38268690147	3.6452647036946
21	20485	190.027951605165	0.15709700851989
21	20518	190.185048613685	1.3193158571104
21	20657	191.504364470795	1.1486359652118
21	20859	192.653000436007	1.553640332861
21	21011	194.206640768868	1.8247991673953
21	21262	196.031439936263	2.2215833160341
21	21467	198.253023252297	1.9451045388591
21	21716	200.198127791156	1.5776306045069
21	21891	201.775758395663	2.3251921693688
21	22155	204.100950565032	1.3066709020442
21	22335	205.407621467076	2.5138950344792
21	22555	207.921516501555	2.2802799695461
21	22805	210.201796471101	1.5647280926086
21	22969	211.76652456371	0.46816881988407
21	23012	212.234693383594	0.086604844928562
21	23014	212.321298228523	1.2677683495525
21	23131	213.589066578075	5.89306258001
21	23619	219.482129158085	5.3992970072562
21	24191	224.881426165341	2.6490908151209
21	24499	227.530516980462	2.8966132632404
21	24860	230.427130243702	0.26493541817815
21	24905	230.69206566188	4.599396832599
21	25408	235.291462494479	0.37418981500708
21	25470	235.665652309486	3.4516095477427
21	25846	239.117261857229	3.1335554012621
21	26232	242.250817258491	4.8864274071212
21	26748	247.137244665612	0.18821748121441
21	26761	247.325462146826	1.5537162663001
21	26916	248.879178413126	0.46160850403729
21	26961	249.340786917163	0.2184996701055
21	26964	249.559286587268	0.053529638573136
21	26975	249.612816225841	0.42613214561033
21	27032	250.038948371451	0.07010181607679
21	27041	250.109050187528	2.2179136106742
21	27313	252.326963798202	2.9148482563362
21	27655	255.241812054538	1.0795083603903
21	27789	256.321320414928	0.17376534739695
21	27801	256.495085762325	1.3871832582908
21	27953	257.882269020616	0.14457754697337
21	27965	258.026846567589	1.334389139891
21	28122	259.36123570748	0.05771940751436
21	28123	259.418955114994	0.39397247009549
21	28160	259.812927585089	2.4932518502987
21	28472	262.306179435388	2.9655072764396
21	28884	265.271686711828	0.50492672604074
21	28911	265.776613437869	2.9519229359664
21	29205	268.728536373835	0.073829765467412
21	29212	268.802366139302	4.9818933087946
21	29860	273.784259448097	0.88751171390745
21	29919	274.671771162004	2.1090622557319
21	30101	276.780833417736	1.4518021769461
21	30239	278.232635594682	1.7260713855515
21	30464	279.958706980234	0.1531468803499
21	30468	280.111853860584	2.2776433601105
21	30736	282.389497220694	0.4573688885721
21	30765	282.846866109266	0.80026590945845
21	30841	283.647132018724	0.059004775481795
21	30849	283.706136794206	0.87747672445076
21	30922	284.583613518657	0.73923342913649
21	31015	285.322846947793	0.17588440654676
21	31026	285.49873135434	4.2165400582809
21	31437	289.715271412621	0.55039910596003
21	31498	290.265670518581	2.6260096187429
21	31735	292.891680137324	1.8423502088701
21	31964	294.734030346194	0.66686093284095
21	32054	295.400891279035	0.24753676098558
21	32071	295.648428040021	6.2033886741912
21	32734	301.851816714212	0.17174445116289
21	32758	302.023561165375	3.7345408200061
21	33147	305.758101985381	2.703976108524
21	33479	308.462078093905	5.6478165503418
21	34062	314.109894644247	4.6853624326245
21	34586	318.795257076871	1.8347190671152
21	34802	320.629976143986	5.6370741626069
21	35409	326.267050306593	4.9479799125912
21	35982	331.215030219184	3.0590232797984
21	36292	334.274053498982	2.9727758249411
21	36654	337.246829323923	3.8731683031014
21	37112	341.119997627024	0.27777625791047
21	37131	341.397773884934	1.8728794240264
21	37325	343.27065330896	0.42500436799304
21	37353	343.695657676953	0.56382617105283
21	37461	344.259483848006	0.69324238134546
21	37584	344.952726229351	0.16224084379094
21	37601	345.114967073142	0.38597578583399
21	37676	345.500942858976	6.5397100896016
21	38405	352.040652948578	1.7067071357378
21	38632	353.747360084316	0.07967113729712
21	38638	353.827031221613	0.35787161088899
21	38676	354.184902832502	0.12030648211572
21	38694	354.305209314618	0.99366957044951
21	38751	355.298878885068	0.80106265749821
21	38851	356.099941542566	6.2828500127819
21	39507	362.382791555348	1.3581247270499
21	39647	363.740916282398	1.1607605898225
21	39776	364.901676872221	3.7089568804827
21	40106	368.610633752704	0.16433560629867
21	40131	368.774969359003	1.6912924537124
21	40301	370.466261812715	11.530165388198
21	41439	381.996427200913	0.17366043949572
21	41452	382.170087640409	2.3859290868755
21	41699	384.556016727285	2.0404457556925
21	41868	386.596462482978	8.1847650286418
21	42854	394.78122751162	0.59102437219855
21	42912	395.372251883819	0.40407771530432
21	42950	395.776329599123	2.0463066842955
21	43152	397.822636283419	1.3841609034374
21	43317	399.206797186856	0.84846906035774

