version 2
run Nonmonitoring-exponential-506-20210224-17:49:27-27046
attr configname Nonmonitoring-exponential
attr datetime 20210224-17:49:27
attr experiment Nonmonitoring-exponential
attr inifile aerocom.ini
attr iterationvars $0=50
attr iterationvarsf 50-
attr measurement $0=50
attr network Aerocom
attr processid 27046
attr repetition 6
attr replication #6
attr resultdir results
attr runnumber 506
attr seedset 6
param **.t 2s
param **.k 50ms
param **.X 0.05s
param **.m 1s
param **.tDistribution "\"exponential\""
param **.operationMode 1
param **.s "70 byte"
param **.dimPoolMax 10000
param **.dimPoolMin 8000
param **.nDL 16
param **.nA 1
param **.DLMaxCapacity 0
param **.trasmitting false

vector 0 Aerocom.aircraft[0].packetGenerator arrivalTime:vector ETV
attr "" ""
attr source computeArrivalTime
vector 1 Aerocom.aircraft[0].linkSelector waitingTime:vector ETV
attr "" ""
attr source computeWaitingTime
vector 2 Aerocom.aircraft[0].linkSelector queueLength:vector ETV
attr "" ""
attr source computeQueueLength
vector 3 Aerocom.aircraft[0].dataLink[15] actualCapacity:vector ETV
attr "" ""
attr source computeActualCapacity
vector 4 Aerocom.aircraft[0].linkSelector serviceTime:vector ETV
attr "" ""
attr source computeServiceTime
vector 5 Aerocom.aircraft[0].linkSelector responseTime:vector ETV
attr "" ""
attr source computeResponseTime
vector 6 Aerocom.aircraft[0].dataLink[12] tDistribution:vector ETV
attr "" ""
attr source computeTDistribution
vector 7 Aerocom.aircraft[0].dataLink[13] tDistribution:vector ETV
attr "" ""
attr source computeTDistribution
vector 8 Aerocom.aircraft[0].dataLink[8] tDistribution:vector ETV
attr "" ""
attr source computeTDistribution
vector 9 Aerocom.aircraft[0].dataLink[0] tDistribution:vector ETV
attr "" ""
attr source computeTDistribution
vector 10 Aerocom.aircraft[0].dataLink[6] tDistribution:vector ETV
attr "" ""
attr source computeTDistribution
vector 11 Aerocom.aircraft[0].dataLink[11] tDistribution:vector ETV
attr "" ""
attr source computeTDistribution
vector 12 Aerocom.aircraft[0].dataLink[9] tDistribution:vector ETV
attr "" ""
attr source computeTDistribution
vector 13 Aerocom.aircraft[0].dataLink[3] tDistribution:vector ETV
attr "" ""
attr source computeTDistribution
vector 14 Aerocom.aircraft[0].dataLink[7] tDistribution:vector ETV
attr "" ""
attr source computeTDistribution
vector 15 Aerocom.aircraft[0].dataLink[4] tDistribution:vector ETV
attr "" ""
attr source computeTDistribution
vector 16 Aerocom.aircraft[0].dataLink[10] tDistribution:vector ETV
attr "" ""
attr source computeTDistribution
vector 17 Aerocom.aircraft[0].dataLink[5] tDistribution:vector ETV
attr "" ""
attr source computeTDistribution
vector 18 Aerocom.aircraft[0].dataLink[1] tDistribution:vector ETV
attr "" ""
attr source computeTDistribution
vector 19 Aerocom.aircraft[0].dataLink[14] tDistribution:vector ETV
attr "" ""
attr source computeTDistribution
vector 20 Aerocom.aircraft[0].dataLink[15] tDistribution:vector ETV
attr "" ""
attr source computeTDistribution
vector 21 Aerocom.aircraft[0].dataLink[2] tDistribution:vector ETV
attr "" ""
attr source computeTDistribution
0	1055	10.015338775394	0.010627665437
0	1060	10.025966440831	0.076451593639
0	1066	10.10241803447	0.053753710759
0	1071	10.156171745229	0.140315560017
0	1078	10.296487305246	0.038443678552
0	1084	10.334930983798	0.065791521213
0	1089	10.400722505011	0.032315705923
0	1095	10.433038210934	0.167125606733
0	1103	10.600163817667	0.052119704151
0	1109	10.652283521818	0.013539603864
0	1114	10.665823125682	0.033497733384
0	1119	10.699320859066	0.009624159823
0	1124	10.708945018889	0.038755305323
0	1130	10.747700324212	0.082323449784
0	1135	10.830023773996	0.125735012822
0	1141	10.955758786818	0.008425587608
0	1146	10.964184374426	0.030399536316
0	1151	10.994583910742	0.080090874959
0	1159	11.074674785701	0.050632161989
0	1165	11.12530694769	0.168595284099
0	1171	11.293902231789	0.046236268014
0	1177	11.340138499803	0.014951156657
0	1182	11.35508965646	0.014809458234
0	1187	11.369899114694	0.021553773154
0	1192	11.391452887848	0.071184998352
0	1197	11.4626378862	0.027210199239
0	1202	11.489848085439	0.038944518095
0	1207	11.528792603534	0.055293711595
0	1214	11.584086315129	0.017226238791
0	1219	11.60131255392	0.016327637047
0	1224	11.617640190967	0.100905369889
0	1232	11.718545560856	0.038598770144
0	1238	11.757144331	0.000585875878
0	1240	11.757730206878	0.004512418738
0	1243	11.762242625616	0.017349498661
0	1251	11.779592124277	0.098036383986
0	1261	11.877628508263	0.224964334464
0	1266	12.102592842727	0.011169325275
0	1271	12.113762168002	0.033204088241
0	1276	12.146966256243	0.044850208288
0	1281	12.191816464531	0.043855949639
0	1286	12.23567241417	0.116186868069
0	1292	12.351859282239	0.00091655244
0	1294	12.352775834679	0.023208748202
0	1302	12.375984582881	0.110638775777
0	1308	12.486623358658	0.135183117842
0	1315	12.6218064765	0.00646669936
0	1317	12.62827317586	0.078494087585
0	1327	12.706767263445	0.050548995084
0	1332	12.757316258529	0.014775157585
0	1338	12.772091416114	0.108645656813
0	1345	12.880737072927	0.068779769134
0	1350	12.949516842061	0.008168667279
0	1352	12.95768550934	0.027308463325
0	1360	12.984993972665	0.025103791465
0	1365	13.01009776413	0.071744767013
0	1370	13.081842531143	0.039805758684
0	1375	13.121648289827	0.072054517985
0	1382	13.193702807812	0.031977721623
0	1387	13.225680529435	0.007578279784
0	1389	13.233258809219	0.068591177706
0	1398	13.301849986925	0.057602386471
0	1403	13.359452373396	0.043079201519
0	1408	13.402531574915	0.002211629541
0	1410	13.404743204456	0.038732731925
0	1418	13.443475936381	0.034053039386
0	1423	13.477528975767	0.026825712765
0	1428	13.504354688532	0.009942127777
0	1433	13.514296816309	0.01529178069
0	1438	13.529588596999	0.002261315084
0	1440	13.531849912083	0.002065375753
0	1442	13.533915287836	0.02761643624
0	1453	13.561531724076	0.084637628321
0	1458	13.646169352397	0.083731630331
0	1464	13.729900982728	0.053849492891
0	1469	13.783750475619	0.018382838905
0	1474	13.802133314524	0.013910152892
0	1479	13.816043467416	0.013418320773
0	1484	13.829461788189	0.054610775977
0	1490	13.884072564166	0.001798098451
0	1492	13.885870662617	0.073241239125
0	1502	13.959111901742	0.014256671047
0	1507	13.973368572789	0.037727573692
0	1512	14.011096146481	0.075796156556
0	1517	14.086892303037	0.093509837726
0	1522	14.180402140763	0.061070383159
0	1528	14.241472523922	0.019756741607
0	1533	14.261229265529	0.043911846508
0	1539	14.305141112037	0.008051964947
0	1544	14.313193076984	0.20917594278
0	1549	14.522369019764	0.076513849217
0	1555	14.598882868981	0.04760730965
0	1561	14.646490178631	0.106740292258
0	1570	14.753230470889	0.159378234596
0	1575	14.912608705485	0.085570942703
0	1581	14.998179648188	0.033376940593
0	1587	15.031556588781	0.034587107705
0	1592	15.066143696486	0.151895038571
0	1597	15.218038735057	0.028318111909
0	1602	15.246356846966	0.069246661896
0	1607	15.315603508862	0.019862255713
0	1612	15.335465764575	0.030911636205
0	1617	15.36637740078	0.037826204328
0	1623	15.404203605108	0.025280008451
0	1628	15.429483613559	0.174003548753
0	1634	15.603487162312	0.042450011016
0	1639	15.645937173328	0.133126191394
0	1646	15.779063364722	0.106302093766
0	1652	15.885365458488	0.10322603513
0	1658	15.988591493618	0.015191399029
0	1663	16.003782892647	0.020746398894
0	1668	16.024529291541	0.057498326768
0	1673	16.082027618309	0.083890478838
0	1679	16.165918097147	0.037602325973
0	1684	16.20352042312	0.023900311679
0	1690	16.227420734799	0.007231760066
0	1695	16.234652494865	0.000387178332
0	1697	16.235039673197	0.116078458791
0	1705	16.351118131988	0.006043387086
0	1707	16.357161519074	0.075981103355
0	1717	16.433142622429	0.058853510475
0	1722	16.491996132904	0.028282151854
0	1727	16.520278284758	0.067567829656
0	1732	16.587846114414	0.035185790036
0	1737	16.62303190445	0.024922250983
0	1742	16.647954155433	0.060510784939
0	1747	16.708464940372	0.01744232211
0	1752	16.725907262482	0.032241977548
0	1757	16.75814924003	0.051534053806
0	1762	16.809683293836	0.020340744724
0	1767	16.83002403856	0.116788604969
0	1774	16.946812643529	0.037808568276
0	1779	16.984621211805	0.072647064109
0	1786	17.057268275914	0.00423545651
0	1788	17.061503732424	0.268898688855
0	1798	17.330402421279	0.06575581616
0	1804	17.396158237439	0.20210577091
0	1809	17.598264008349	0.106077689266
0	1816	17.704341697615	0.104009983799
0	1821	17.808351681414	0.004394358822
0	1823	17.812746040236	0.145511003238
0	1833	17.958257043474	0.028124202258
0	1838	17.986381245732	0.061204841296
0	1843	18.047586087028	0.038722344279
0	1848	18.086308431307	0.096014175792
0	1854	18.182322607099	0.13912736206
0	1859	18.321449969159	0.02035981789
0	1864	18.341809787049	0.046341720445
0	1869	18.388151507494	0.036300719464
0	1875	18.424452226958	0.004286780991
0	1877	18.428739007949	0.024012412449
0	1885	18.452751420398	0.112712682646
0	1891	18.565464103044	0.102267599502
0	1896	18.667731702546	0.008881695574
0	1901	18.67661339812	0.016626034376
0	1906	18.693239432496	0.016879964666
0	1911	18.710119397162	0.343615542712
0	1919	19.053734939874	0.030537413
0	1924	19.084272352874	0.056242233301
0	1931	19.140514586175	0.069148260763
0	1936	19.209662846938	0.139005992454
0	1941	19.348668839392	0.007718900882
0	1946	19.356387740274	0.0602544284
0	1952	19.416642168674	0.021880879738
0	1957	19.438523048412	0.041396244697
0	1962	19.479919293109	0.02608595368
0	1967	19.506005246789	0.048259312982
0	1973	19.554264559771	0.067225909833
0	1979	19.621490469604	0.002090607885
0	1981	19.623581077489	0.059863922409
0	1989	19.683444999898	0.079876972546
0	1994	19.763321972444	0.004573659698
0	1996	19.767895632142	0.038538641473
0	2004	19.806434273615	0.00397055061
0	2006	19.810404824225	0.018999486762
0	2014	19.829404310987	0.006883979227
0	2016	19.836288290214	0.047882722091
0	2025	19.884171012305	0.063121162859
0	2030	19.947292175164	0.28974852193
0	2038	20.237040697094	0.040467727067
0	2043	20.277508424161	0.024353243691
0	2049	20.301861667852	0.058867440007
0	2055	20.360729107859	0.029563579572
0	2061	20.390292687431	0.000182229425
0	2063	20.390474916856	0.006781144596
0	2065	20.397256061452	0.045868142485
0	2076	20.443124203937	0.024153408818
0	2082	20.467277612755	0.027912194557
0	2087	20.495189807312	0.122927123883
0	2092	20.618116931195	0.00064072991
0	2094	20.618757661105	0.019377167351
0	2102	20.638134828456	0.028943546718
0	2107	20.667078375174	0.033323522346
0	2112	20.70040189752	0.016104679605
0	2117	20.716506577125	0.010453835092
0	2122	20.726960412217	0.036077975243
0	2128	20.76303838746	0.016923507655
0	2133	20.779961895115	0.13918582618
0	2140	20.919147721295	0.029196170507
0	2145	20.948343891802	0.033677849269
0	2150	20.982021741071	0.148155997918
0	2157	21.130177738989	0.03217540646
0	2164	21.162353145449	0.004917095542
0	2166	21.167270240991	0.012974844736
0	2174	21.180245085727	0.012560244621
0	2180	21.192805330348	0.037583782266
0	2185	21.230389112614	0.042248180627
0	2192	21.272637293241	0.093014784619
0	2198	21.36565207786	0.178026894013
0	2205	21.543678971873	0.035003362343
0	2210	21.578682334216	0.006144390252
0	2212	21.584826724468	0.067838613529
0	2220	21.652665337997	0.061355818114
0	2225	21.714021156111	0.006358065217
0	2228	21.720379221328	0.070898510876
0	2237	21.791277732204	0.001158594664
0	2239	21.792436326868	0.035648689587
0	2247	21.828085016455	0.035956085837
0	2252	21.864041102292	0.067113416195
0	2257	21.931154518487	0.014034201266
0	2262	21.945188719753	0.132658793737
0	2268	22.07784751349	0.138848551885
0	2274	22.216696065375	0.012515320698
0	2279	22.229211386073	0.077347275961
0	2284	22.306558662034	0.049473973814
0	2289	22.356032635848	0.011320104953
0	2294	22.367352740801	0.060200152117
0	2299	22.427552892918	0.078566991419
0	2304	22.506119884337	0.026526057356
0	2309	22.532645941693	0.009820075132
0	2314	22.542466016825	0.16792979316
0	2320	22.710395809985	0.003283665725
0	2322	22.71367947571	0.006515192028
0	2327	22.720194667738	0.031342112057
0	2335	22.751536779795	0.002435113743
0	2337	22.753971893538	0.018007019917
0	2345	22.771978913455	0.032972049706
0	2350	22.804950963161	0.006074251406
0	2352	22.811025214567	0.012888090999
0	2360	22.823913305566	0.014490032235
0	2365	22.838403337801	0.173382991166
0	2370	23.011786328967	0.007442486045
0	2372	23.019228815012	0.135067653135
0	2381	23.154296468147	0.008753509883
0	2387	23.16304997803	0.001111130002
0	2389	23.164161108032	0.033011643703
0	2397	23.197172751735	0.001619043141
0	2399	23.198791794876	0.00716037584
0	2404	23.205952170716	0.020364280965
0	2412	23.226316451681	0.020590022021
0	2417	23.246906473702	0.065678376904
0	2422	23.312584850606	0.161353319017
0	2428	23.473938169623	0.003419017411
0	2430	23.477357187034	0.008669564646
0	2435	23.48602675168	0.019079589772
0	2443	23.505106341452	0.091624497137
0	2448	23.596730838589	0.01073432235
0	2453	23.607465160939	0.035989705081
0	2458	23.64345486602	0.017403254103
0	2463	23.660858120123	0.112682785298
0	2469	23.773540905421	0.036868424244
0	2474	23.810409329665	0.01243417068
0	2479	23.822843500345	0.029423526969
0	2485	23.852267027314	0.035430057193
0	2490	23.887697084507	0.000684382433
0	2492	23.88838146694	0.029218604944
0	2500	23.917600071884	0.0458229039
0	2506	23.963422975784	0.049431760923
0	2511	24.012854736707	0.022694773421
0	2516	24.035549510128	0.000358841792
0	2518	24.03590835192	0.000959676239
0	2520	24.036868028159	0.00629178101
0	2522	24.043159809169	0.000481121131
0	2527	24.0436409303	0.042562293522
0	2542	24.086203223822	0.007659194826
0	2544	24.093862418648	0.222361004376
0	2553	24.316223423024	0.105395865686
0	2559	24.42161928871	0.00691286061
0	2561	24.42853214932	0.0644435845
0	2569	24.49297573382	0.004329527394
0	2571	24.497305261214	0.036364507377
0	2579	24.533669768591	0.016987233839
0	2584	24.55065700243	0.149002039963
0	2589	24.699659042393	0.072344695934
0	2594	24.772003738327	0.012680649685
0	2600	24.784684388012	0.012243049697
0	2605	24.796927437709	0.04337346036
0	2610	24.840300898069	0.03182408995
0	2616	24.872124988019	0.003970615708
0	2618	24.876095603727	0.004258330488
0	2623	24.880353934215	0.076932052536
0	2632	24.957285986751	0.051656851946
0	2637	25.008942838697	0.034018402084
0	2642	25.042961240781	0.017618018763
0	2648	25.060579259544	0.039042888095
0	2654	25.099622147639	0.034209273355
0	2659	25.133831420994	0.065461167528
0	2665	25.199292588522	0.05751848734
0	2670	25.256811075862	0.001017442257
0	2672	25.257828518119	0.03463465244
0	2681	25.292463170559	0.156913491329
0	2687	25.449376661888	0.022778385473
0	2693	25.472155047361	0.054924156955
0	2698	25.527079204316	0.021076357873
0	2703	25.548155562189	0.004678099361
0	2705	25.55283366155	0.006766164244
0	2710	25.559599825794	0.056030060293
0	2720	25.615629886087	0.018322063977
0	2725	25.633951950064	0.071912483611
0	2730	25.705864433675	0.050938493765
0	2736	25.75680292744	0.064675939296
0	2742	25.821478866736	0.007569946101
0	2747	25.829048812837	0.011079045874
0	2752	25.840127858711	0.026441353966
0	2757	25.866569212677	0.05696202464
0	2762	25.923531237317	0.018417547486
0	2767	25.941948784803	0.12390545416
0	2772	26.065854238963	0.075044370929
0	2778	26.140898609892	0.090568927724
0	2785	26.231467537616	0.087550063282
0	2791	26.319017600898	0.041622675185
0	2796	26.360640276083	0.075098258827
0	2801	26.43573853491	0.018958130756
0	2806	26.454696665666	0.011727756688
0	2811	26.466424422354	0.019639485262
0	2816	26.486063907616	0.015603247634
0	2821	26.50166715525	0.06195306251
0	2827	26.56362021776	0.018992121291
0	2833	26.582612339051	0.087628734033
0	2839	26.670241073084	0.041199550394
0	2846	26.711440623478	0.00819367331
0	2851	26.719634296788	0.194678737335
0	2858	26.914313034123	0.016567473927
0	2863	26.93088050805	0.00516699752
0	2865	26.93604750557	0.054788421492
0	2873	26.990835927062	0.06280449507
0	2879	27.053640422132	0.022399176472
0	2884	27.076039598604	0.091549306959
0	2891	27.167588905563	0.017195716379
0	2896	27.184784621942	0.027998352597
0	2901	27.212782974539	0.104100592978
0	2907	27.316883567517	0.004063896746
0	2909	27.320947464263	0.037393219297
0	2917	27.35834068356	0.27569429253
0	2927	27.63403497609	0.058447655283
0	2933	27.692482631373	0.044091101208
0	2938	27.736573732581	0.092436761324
0	2943	27.829010493905	0.031472485797
0	2949	27.860482979702	0.014138340122
0	2954	27.874621319824	0.015983276904
0	2959	27.890604596728	0.00987840725
0	2964	27.900483003978	0.053935361113
0	2969	27.954418365091	0.014229444531
0	2974	27.968647809622	0.004785297518
0	2976	27.97343310714	0.022767273082
0	2984	27.996200380222	0.019180837273
0	2989	28.015381217495	0.114587094199
0	2995	28.129968311694	0.05441568299
0	3000	28.184383994684	0.034691711018
0	3005	28.219075705702	0.011697694489
0	3010	28.230773400191	0.144829119707
0	3017	28.375602519898	0.021417759496
0	3022	28.397020279394	0.045129216114
0	3027	28.442149495508	0.096761072473
0	3033	28.538910567981	0.012279162931
0	3038	28.551189730912	0.066250749578
0	3043	28.61744048049	0.023060365853
0	3048	28.640500846343	0.006821138166
0	3050	28.647321984509	0.06095923795
0	3058	28.708281222459	0.025421300179
0	3063	28.733702522638	0.005658128607
0	3065	28.739360651245	0.001272416287
0	3067	28.740633067532	0.039044503783
0	3079	28.779677571315	0.022175269331
0	3084	28.801852840646	0.051740349492
0	3089	28.853593190138	0.004048249148
0	3091	28.857641439286	0.124138801754
0	3099	28.98178024104	0.131128857802
0	3104	29.112909098842	0.010821420525
0	3109	29.123730519367	0.042956878937
0	3116	29.166687398304	0.055189527291
0	3122	29.221876925595	0.063170431485
0	3127	29.28504735708	0.063719865397
0	3132	29.348767222477	0.019942100256
0	3137	29.368709322733	0.017469109901
0	3142	29.386178432634	0.004242600605
0	3144	29.390421033239	0.010818149516
0	3149	29.401239182755	0.016056840215
0	3157	29.41729602297	0.036114172366
0	3164	29.453410195336	0.025009376906
0	3169	29.478419572242	0.043050545774
0	3175	29.521470118016	0.039734868481
0	3180	29.561204986497	0.046693296403
0	3185	29.6078982829	0.002069120245
0	3187	29.609967403145	0.05008330171
0	3195	29.660050704855	0.071653259418
0	3200	29.731703964273	0.092843141021
0	3206	29.824547105294	0.020631423069
0	3211	29.845178528363	0.010224403668
0	3217	29.855402932031	0.030411824943
0	3223	29.885814756974	0.041000076263
0	3228	29.926814833237	0.035542581491
0	3234	29.962357414728	0.002051769203
0	3236	29.964409183931	0.022037271607
0	3244	29.986446455538	0.029878942447
0	3249	30.016325397985	0.144568322383
0	3255	30.160893720368	0.023254397175
0	3260	30.184148117543	0.024040325996
0	3265	30.208188443539	0.06176160674
0	3270	30.269950050279	0.064459192365
0	3275	30.334409242644	0.039018420234
0	3280	30.373427662878	0.023608569932
0	3285	30.39703623281	0.086007297473
0	3290	30.483043530283	0.011519324011
0	3295	30.494562854294	0.106150181499
0	3300	30.600713035793	0.129687019179
0	3307	30.730400054972	0.006665976507
0	3309	30.737066031479	0.014476668497
0	3317	30.751542699976	0.019875077656
0	3323	30.771417777632	0.139934303192
0	3330	30.911352080824	0.060110603893
0	3335	30.971462684717	0.041847635882
0	3341	31.013310320599	0.030427016061
0	3346	31.04373733666	0.013042497135
0	3351	31.056779833795	0.018261008039
0	3356	31.075040841834	0.07877276466
0	3361	31.153813606494	0.074793239309
0	3366	31.228606845803	0.030698748823
0	3371	31.259305594626	0.258944531867
0	3378	31.518250126493	0.028647868113
0	3383	31.546897994606	0.004423835731
0	3385	31.551321830337	0.078275395606
0	3393	31.629597225943	0.078923724361
0	3398	31.708520950304	0.040472091015
0	3403	31.748993041319	0.067088296099
0	3408	31.816081337418	0.006442833462
0	3410	31.82252417088	0.00608695135
0	3415	31.82861112223	0.020580714937
0	3423	31.849191837167	0.011327997828
0	3428	31.860519834995	0.041861018356
0	3433	31.902380853351	0.042039944178
0	3438	31.944420797529	0.005707997353
0	3440	31.950128794882	0.051990550401
0	3449	32.002119345283	0.13718167375
0	3456	32.139301019033	0.097037162041
0	3462	32.236338181074	0.011990294554
0	3467	32.248328475628	0.03830542423
0	3472	32.286633899858	0.105774891203
0	3478	32.392408791061	0.001182691642
0	3480	32.393591482703	0.042058826469
0	3488	32.435650309172	0.069603804129
0	3494	32.505254113301	0.038768677685
0	3499	32.544022790986	0.018238926583
0	3504	32.562261717569	0.053152548738
0	3509	32.615414266307	0.035735328246
0	3515	32.651149594553	0.021929218732
0	3520	32.673078813285	0.081734858513
0	3525	32.754813671798	0.065374977459
0	3531	32.820188649257	0.031631204779
0	3536	32.851819854036	0.041619329024
0	3541	32.89343918306	0.130319524255
0	3546	33.023758707315	0.054055576989
0	3552	33.077814284304	0.009716655509
0	3557	33.087530939813	0.02088028811
0	3562	33.108411227923	0.011296037428
0	3567	33.119707265351	0.011924722791
0	3572	33.131631988142	0.009767363905
0	3577	33.141399352047	0.060923555578
0	3582	33.202322907625	0.001646678286
0	3584	33.203969585911	0.057488658809
0	3592	33.26145824472	0.021874467423
0	3597	33.283332712143	0.041473684051
0	3603	33.324806396194	0.014942438414
0	3608	33.339748834608	0.196760758626
0	3614	33.536509593234	0.071843046403
0	3619	33.608352639637	0.028719623
0	3624	33.637072262637	0.000430217779
0	3626	33.637502480416	0.001486454939
0	3628	33.638988935355	0.044697734914
0	3640	33.683686670269	0.017988518622
0	3645	33.701675188891	0.046051839966
0	3650	33.747727028857	0.062443100587
0	3658	33.810170129444	0.003345969001
0	3660	33.813516098445	0.049041390659
0	3669	33.862557489104	0.060988848901
0	3674	33.923546338005	0.014460536082
0	3679	33.938006874087	0.041896393264
0	3684	33.979903267351	0.145760258068
0	3689	34.125663525419	0.218319681852
0	3697	34.343983207271	0.110544129018
0	3703	34.454527336289	0.030209071193
0	3708	34.484736407482	0.035644908058
0	3713	34.52038131554	0.030189434804
0	3719	34.550570750344	0.045445806042
0	3724	34.596016556386	0.001881161203
0	3726	34.597897717589	0.034662722802
0	3735	34.632560440391	0.001720703659
0	3737	34.63428114405	0.068617279424
0	3745	34.702898423474	0.031217341525
0	3750	34.734115764999	0.080482031604
0	3755	34.814597796603	0.094313847046
0	3762	34.908911643649	0.055058115654
0	3767	34.963969759303	0.044182462213
0	3772	35.008152221516	0.079008859569
0	3777	35.087161081085	0.014179782734
0	3782	35.101340863819	0.007851500535
0	3787	35.109192364354	0.158363305228
0	3795	35.267555669582	0.068572696787
0	3800	35.336128366369	0.135293213818
0	3805	35.471421580187	0.041906701326
0	3810	35.513328281513	0.029720335424
0	3815	35.543048616937	0.146966395447
0	3820	35.690015012384	0.02978666356
0	3825	35.719801675944	0.035557153917
0	3830	35.755358829861	0.017411386573
0	3835	35.772770216434	0.025629928358
0	3841	35.798400144792	0.000435278401
0	3843	35.798835423193	0.056564129826
0	3852	35.855399553019	0.002060227222
0	3854	35.857459780241	0.030502862091
0	3863	35.887962642332	0.095184453865
0	3868	35.983147096197	0.000934912559
0	3870	35.984082008756	0.338448133162
0	3878	36.322530141918	0.206752557416
0	3886	36.529282699334	0.044958155785
0	3891	36.574240855119	0.009602461002
0	3896	36.583843316121	0.031769051743
0	3901	36.615612367864	0.041518665158
0	3906	36.657131033022	0.077914203007
0	3912	36.735045236029	0.085663805287
0	3917	36.820709041316	0.033185710112
0	3922	36.853894751428	0.066857075505
0	3927	36.920751826933	0.021881704623
0	3932	36.942633531556	0.076293068474
0	3938	37.01892660003	0.00254001499
0	3940	37.02146661502	0.016926705463
0	3949	37.038393320483	0.24057742276
0	3955	37.278970743243	0.066461843641
0	3960	37.345432586884	0.160628071148
0	3966	37.506060658032	0.012301953301
0	3971	37.518362611333	0.00854300157
0	3976	37.526905612903	0.021785205082
0	3981	37.548690817985	0.015609474338
0	3986	37.564300292323	0.075731222235
0	3992	37.640031514558	0.021260915646
0	3997	37.661292430204	0.092654072724
0	4002	37.753946502928	0.040952506646
0	4007	37.794899009574	0.011448195345
0	4012	37.806347204919	0.00473678708
0	4014	37.811083991999	0.058290618653
0	4023	37.869374610652	0.06503333136
0	4028	37.934407942012	0.165939900992
0	4036	38.100347843004	0.000590697951
0	4038	38.100938540955	0.044832013343
0	4046	38.145770554298	0.031173178623
0	4051	38.176943732921	0.030656162505
0	4056	38.207599895426	0.018177305814
0	4061	38.22577720124	0.008489659296
0	4063	38.234266860536	0.051650998922
0	4071	38.285917859458	0.158715545351
0	4077	38.444633404809	0.227529944805
0	4085	38.672163349614	0.040908512928
0	4090	38.713071862542	0.007818242699
0	4092	38.720890105241	0.030575525085
0	4100	38.751465630326	0.048893859165
0	4106	38.800359489491	0.089233481063
0	4111	38.889592970554	0.028430885672
0	4116	38.918023856226	0.093724431621
0	4122	39.011748287847	0.231515242694
0	4129	39.243263530541	0.044162086108
0	4134	39.287425616649	0.100311745363
0	4140	39.387737362012	0.027918247324
0	4146	39.415655609336	0.062027698852
0	4152	39.477683308188	0.016638561073
0	4157	39.494321869261	0.053977039015
0	4163	39.548298908276	0.049079618932
0	4169	39.597378527208	0.015117716935
0	4174	39.612496244143	0.084401450781
0	4179	39.696897694924	0.011624906035
0	4184	39.708522600959	0.083800678059
0	4189	39.792323279018	0.029613787187
0	4195	39.821937066205	0.014086773407
0	4200	39.836023839612	0.023857226421
0	4205	39.859881066033	0.020233383675
0	4212	39.880114449708	0.017664813691
0	4217	39.897779263399	0.000805273159
0	4219	39.898584536558	0.009061313809
0	4224	39.907645850367	0.010674010596
0	4229	39.918319860963	0.05024360332
0	4237	39.968563464283	0.028170430659
0	4242	39.996733894942	0.017395568116
0	4247	40.014129463058	0.004959384237
0	4249	40.019088847295	0.033486862205
0	4257	40.0525757095	0.057514297523
0	4262	40.110090007023	0.012121970115
0	4267	40.122211977138	0.041215434542
0	4272	40.16342741168	0.061063339699
0	4277	40.224490751379	0.018059006424
0	4283	40.242549757803	0.017970110969
0	4289	40.260519868772	0.036286810949
0	4294	40.296806679721	0.015174202648
0	4299	40.311980882369	0.029337932763
0	4304	40.341318815132	0.070958421459
0	4309	40.412277236591	0.04968783972
0	4314	40.461965076311	0.092484746272
0	4319	40.554449822583	0.006260012352
0	4321	40.560709834935	0.046042399722
0	4329	40.606752234657	0.013836160417
0	4334	40.620588395074	0.011383127988
0	4339	40.631971523062	0.009717392605
0	4344	40.641688915667	0.012934298786
0	4349	40.654623214453	0.03006148026
0	4355	40.684684694713	0.003100447264
0	4357	40.687785141977	0.001996442326
0	4359	40.689781584303	0.003149334045
0	4361	40.692930918348	0.018831922422
0	4372	40.71176284077	0.031311563484
0	4380	40.743074404254	0.053526550629
0	4385	40.796600954883	0.045001595061
0	4391	40.841602549944	0.027591554707
0	4396	40.869194104651	0.00200200627
0	4398	40.871196110921	0.043331278567
0	4408	40.914527389488	0.013294623251
0	4413	40.927822012739	0.062960010661
0	4419	40.9907820234	0.008184952015
0	4421	40.998966975415	0.070279206839
0	4429	41.069246182254	0.080447365958
0	4434	41.149693548212	0.006760329553
0	4436	41.156453877765	0.004624333583
0	4441	41.161078211348	0.051659515555
0	4450	41.212737726903	0.003359136797
0	4452	41.2160968637	0.120390835402
0	4463	41.336487699102	0.005323632311
0	4465	41.341811331413	0.030730420994
0	4473	41.372541752407	0.036108978028
0	4478	41.408650730435	0.060605866246
0	4484	41.469256596681	0.001874715364
0	4486	41.471131312045	0.011036549788
0	4491	41.482167861833	0.144197994053
0	4500	41.626365855886	0.026195346559
0	4506	41.652561202445	0.247536335534
0	4512	41.900097537979	0.025242202771
0	4517	41.92533974075	0.008389196887
0	4522	41.933728937637	0.008152839778
0	4524	41.941881777415	0.00300418198
0	4529	41.944885959395	0.126856959718
0	4537	42.071742919113	0.034039850108
0	4542	42.105782769221	0.010375024751
0	4548	42.116157793972	0.09178206767
0	4554	42.207939861642	0.176713580689
0	4559	42.384653442331	0.01208640621
0	4564	42.396739848541	0.001335119902
0	4566	42.398074968443	0.005081512136
0	4568	42.403156480579	0.015288348955
0	4576	42.418444829534	0.019421558791
0	4584	42.437866388325	0.005260394945
0	4586	42.44312678327	0.084488039304
0	4594	42.527614822574	0.044975537133
0	4599	42.572590359707	0.022307631061
0	4604	42.594897990768	0.084773683433
0	4609	42.679671674201	0.021253924897
0	4614	42.700925599098	0.088103255327
0	4620	42.789028854425	0.078541098167
0	4626	42.867569952592	0.051559518439
0	4631	42.919129471031	0.049494884869
0	4636	42.9686243559	0.035600449666
0	4642	43.004224805566	0.030387765538
0	4647	43.034612571104	0.092571752198
0	4653	43.127184323302	0.015812149331
0	4658	43.142996472633	0.029096648288
0	4663	43.172093120921	0.071928058939
0	4668	43.24402117986	0.003876365546
0	4670	43.247897545406	0.055939861227
0	4678	43.303837406633	0.014157448093
0	4683	43.317994854726	0.034196359639
0	4688	43.352191214365	0.029219056256
0	4693	43.381410270621	0.030554794747
0	4698	43.411965065368	0.069405969372
0	4704	43.48137103474	0.019612354918
0	4709	43.500983389658	0.010355175652
0	4714	43.51133856531	0.041117608798
0	4719	43.552456174108	0.093855898037
0	4724	43.646312072145	0.034466481169
0	4730	43.680778553314	0.090163021452
0	4736	43.770941574766	0.035445894121
0	4741	43.806387468887	0.043344745828
0	4747	43.849732214715	0.043065516558
0	4752	43.892797731273	0.015438280042
0	4757	43.908236011315	0.089106598595
0	4762	43.99734260991	2.3475491e-05
0	4764	43.997366085401	0.045604518432
0	4772	44.042970603833	0.00557204088
0	4774	44.048542644713	0.037593412836
0	4782	44.086136057549	0.022952025178
0	4788	44.109088082727	0.092132964985
0	4793	44.201221047712	0.016899969185
0	4798	44.218121016897	0.008494435462
0	4804	44.226615452359	0.056956649511
0	4809	44.28357210187	0.078952975238
0	4815	44.362525077108	0.009226230192
0	4820	44.3717513073	0.081266761554
0	4825	44.453018068854	0.03244725562
0	4830	44.485465324474	0.07583150681
0	4836	44.561296831284	0.043388139365
0	4842	44.604684970649	0.054256226927
0	4848	44.658941197576	0.034328613779
0	4853	44.693269811355	0.001536846811
0	4855	44.694806658166	0.070033770014
0	4863	44.76484042818	0.023349373151
0	4868	44.788189801331	0.02559286104
0	4873	44.813782662371	0.042346163351
0	4878	44.856128825722	0.310462921678
0	4883	45.1665917474	0.027127763556
0	4888	45.193719510956	0.158897202697
0	4894	45.352616713653	0.102334570066
0	4900	45.454951283719	0.015138273373
0	4905	45.470089557092	0.121825900095
0	4910	45.591915457187	0.062168372212
0	4916	45.654083829399	0.012918445067
0	4921	45.667002274466	0.062915718185
0	4927	45.729917992651	0.048947256255
0	4932	45.778865248906	0.066735222311
0	4937	45.845600471217	0.042652870415
0	4943	45.888253341632	0.029733925248
0	4948	45.91798726688	0.044385801184
0	4953	45.962373068064	0.043132105086
0	4958	46.00550517315	0.201257243176
0	4964	46.206762416326	0.007237724411
0	4966	46.214000140737	0.005225969315
0	4971	46.219226110052	0.002861030102
0	4973	46.222087140154	0.139248279064
0	4985	46.361335419218	0.059232426643
0	4990	46.420567845861	0.011671895018
0	4995	46.432239740879	0.036518529142
0	5000	46.468758270021	0.044301702683
0	5005	46.513059972704	0.042403423413
0	5010	46.555463396117	0.020044559485
0	5015	46.575507955602	0.004427162881
0	5017	46.579935118483	0.010452183403
0	5022	46.590387301886	0.019973849128
0	5030	46.610361151014	0.018899704008
0	5036	46.629260855022	0.0123278563
0	5041	46.641588711322	0.042995586208
0	5047	46.68458429753	0.048251590439
0	5053	46.732835887969	0.019965542172
0	5058	46.752801430141	0.048661668004
0	5063	46.801463098145	0.047052566822
0	5068	46.848515664967	0.020056933957
0	5073	46.868572598924	0.020853931627
0	5078	46.889426530551	0.010693578806
0	5083	46.900120109357	0.097438677245
0	5088	46.997558786602	0.059916215385
0	5094	47.057475001987	0.001775040109
0	5096	47.059250042096	0.017770131556
0	5104	47.077020173652	0.089802795429
0	5109	47.166822969081	0.043450211662
0	5115	47.210273180743	0.000890158652
0	5117	47.211163339395	0.027739775255
0	5125	47.23890311465	0.018541817005
0	5130	47.257444931655	0.004510043001
0	5132	47.261954974656	0.000256535237
0	5134	47.262211509893	0.004595944156
0	5139	47.266807454049	0.067892620236
0	5152	47.334700074285	0.02864257563
0	5157	47.363342649915	0.033175261806
0	5162	47.396517911721	0.003235740287
0	5164	47.399753652008	0.036414355654
0	5173	47.436168007662	0.042663378947
0	5178	47.478831386609	0.006684251956
0	5180	47.485515638565	0.008916318113
0	5185	47.494431956678	0.072933487849
0	5194	47.567365444527	0.021879707849
0	5199	47.589245152376	0.045321748108
0	5204	47.634566900484	0.042774239867
0	5209	47.677341140351	0.035884214094
0	5214	47.713225354445	0.048469171827
0	5219	47.761694526272	0.153200310103
0	5226	47.914894836375	0.017881926618
0	5231	47.932776762993	0.013682187991
0	5237	47.946458950984	0.025072034326
0	5243	47.97153098531	0.017754871925
0	5248	47.989285857235	0.007958993615
0	5254	47.99724485085	0.152323257989
0	5260	48.149568108839	0.052490674313
0	5265	48.202058783152	0.092340977773
0	5271	48.294399760925	0.013249210043
0	5276	48.307648970968	0.075698813601
0	5283	48.383347784569	0.063924939224
0	5288	48.447272723793	0.003345877838
0	5290	48.450618601631	0.006255055316
0	5295	48.456873656947	0.039921355042
0	5303	48.496795011989	0.026019242962
0	5308	48.522814254951	0.003835340019
0	5310	48.52664959497	0.040379691526
0	5319	48.567029286496	0.07671417447
0	5325	48.643743460966	0.014287877127
0	5330	48.658031338093	0.04891730641
0	5335	48.706948644503	0.059743923453
0	5341	48.766692567956	0.01478758647
0	5346	48.781480154426	0.001698445614
0	5348	48.78317860004	0.13819620915
0	5356	48.92137480919	0.007162532187
0	5358	48.928537341377	0.022577442684
0	5366	48.951114784061	0.004544039407
0	5368	48.955658823468	0.01770999547
0	5376	48.973368818938	0.006565180931
0	5378	48.979933999869	0.000756511585
0	5380	48.980690511454	0.038178980157
0	5391	49.018869491611	0.044939647058
0	5397	49.063809138669	0.023059697504
0	5402	49.086868836173	0.05798081546
0	5407	49.144849651633	0.006368183272
0	5409	49.151217834905	0.025573025801
0	5417	49.176790860706	0.025781080637
0	5422	49.202571941343	0.001028672847
0	5424	49.20360061419	0.014892060862
0	5429	49.218492675052	0.028532792351
0	5437	49.247025467403	0.014376900951
0	5442	49.261402368354	0.057393786948
0	5447	49.318796155302	0.159025584403
0	5453	49.477821739705	0.034764202133
0	5458	49.512585941838	0.051116343981
0	5463	49.563702285819	0.026972767863
0	5468	49.590675053682	0.023402161263
0	5473	49.614077214945	0.098756573946
0	5478	49.712833788891	0.059968212224
0	5483	49.772802001115	0.082945597421
0	5488	49.855747598536	0.002436723379
0	5490	49.858184321915	0.028121863594
0	5499	49.886306185509	0.017364879916
0	5504	49.903671065425	0.172850375735
0	5509	50.07652144116	0.047216336056
0	5515	50.123737777216	0.001773662946
0	5517	50.125511440162	0.181110762009
0	5526	50.306622202171	0.155240858212
0	5532	50.461863060383	0.028394475164
0	5537	50.490257535547	0.003311763506
0	5539	50.493569299053	0.00754859716
0	5544	50.501117896213	0.018486386342
0	5552	50.519604282555	0.014959540088
0	5557	50.534563822643	0.027798122936
0	5562	50.562361945579	0.041052888567
0	5568	50.603414834146	0.068551739218
0	5573	50.671966573364	0.020093834983
0	5578	50.692060408347	0.006407855074
0	5580	50.698468263421	0.016423975491
0	5589	50.714892238912	0.019194856897
0	5594	50.734087095809	0.040119925798
0	5599	50.774207021607	0.094344799845
0	5604	50.868551821452	0.012166998271
0	5609	50.880718819723	0.000773713887
0	5611	50.88149253361	0.003509801419
0	5613	50.885002335029	0.129160012592
0	5625	51.014162347621	0.051535676535
0	5630	51.065698024156	0.024830219106
0	5635	51.090528243262	0.008632906955
0	5640	51.099161150217	0.05561495576
0	5645	51.154776105977	0.039795387991
0	5650	51.194571493968	0.055625764576
0	5655	51.250197258544	0.126032560552
0	5660	51.376229819096	0.005777763653
0	5662	51.382007582749	0.09132194456
0	5672	51.473329527309	0.016605637109
0	5678	51.489935164418	0.027559456586
0	5683	51.517494621004	0.020195770764
0	5688	51.537690391768	0.146414494977
0	5693	51.684104886745	0.094498479969
0	5698	51.778603366714	0.046601200455
0	5704	51.825204567169	0.119544954868
0	5711	51.944749522037	0.003127431601
0	5713	51.947876953638	0.011878203625
0	5718	51.959755157263	0.241292796281
0	5727	52.201047953544	0.028075033589
0	5732	52.229122987133	0.008117006284
0	5737	52.237239993417	0.038520284172
0	5742	52.275760277589	0.019824652184
0	5747	52.295584929773	0.001550940128
0	5749	52.297135869901	0.106575986508
0	5757	52.403711856409	0.018714221729
0	5762	52.422426078138	0.008848020108
0	5767	52.431274098246	0.008355874033
0	5772	52.439629972279	0.058952772115
0	5778	52.498582744394	0.03253669015
0	5783	52.531119434544	0.012691430582
0	5788	52.543810865126	0.124211657568
0	5794	52.668022522694	0.148435607388
0	5799	52.816458130082	0.003725833971
0	5801	52.820183964053	0.138633825255
0	5809	52.958817789308	0.148619642579
0	5816	53.107437431887	0.031539762621
0	5821	53.138977194508	0.082759229466
0	5826	53.221736423974	0.107955518575
0	5832	53.329691942549	0.022162242465
0	5837	53.351854185014	0.015713778485
0	5842	53.367567963499	0.090186857816
0	5848	53.457754821315	0.021736787588
0	5853	53.479491608903	0.013803748908
0	5858	53.493295357811	0.01704730382
0	5863	53.510342661631	0.007806196754
0	5868	53.518148858385	0.007663291876
0	5874	53.525812150261	0.03670040601
0	5879	53.562512556271	0.039162252079
0	5884	53.60167480835	0.003939319674
0	5886	53.605614128024	0.022020685556
0	5894	53.62763481358	0.12487522185
0	5901	53.75251003543	0.061089740688
0	5907	53.813599776118	0.139581028972
0	5912	53.95318080509	0.073089374125
0	5917	54.026270179215	0.01028624423
0	5922	54.036556423445	0.034627206425
0	5928	54.07118362987	0.01279515332
0	5933	54.08397878319	0.012448918742
0	5938	54.096427701932	0.069166410667
0	5944	54.165594112599	0.021403331905
0	5949	54.186997444504	0.058149498086
0	5954	54.24514694259	0.003521166494
0	5956	54.248668109084	0.032797694697
0	5964	54.281465803781	0.005823454002
0	5967	54.287289257783	0.192648163827
0	5977	54.47993742161	0.039666592395
0	5982	54.519604014005	0.054546643308
0	5987	54.574150657313	0.045575314571
0	5993	54.619725971884	0.042367267545
0	6000	54.662093239429	0.0418019101
0	6005	54.703895149529	0.045260653959
0	6012	54.749155803488	0.053076836957
0	6018	54.802232640445	0.013387052971
0	6023	54.815619693416	0.017066042937
0	6028	54.832685736353	0.013185791675
0	6033	54.845871528028	0.072541232743
0	6039	54.918412760771	0.019719923333
0	6044	54.938132684104	0.025693621318
0	6049	54.963826305422	0.005123933472
0	6051	54.968950238894	0.021621898577
0	6060	54.990572137471	0.114317613339
0	6067	55.10488975081	0.024079116313
0	6072	55.128968867123	0.01706354704
0	6077	55.146032414163	0.020322268251
0	6082	55.166354682414	0.058191690524
0	6087	55.224546372938	0.037944372134
0	6092	55.262490745072	0.122336028911
0	6098	55.384826773983	0.015777004284
0	6103	55.400603778267	0.002486389994
0	6105	55.403090168261	0.056209318041
0	6113	55.459299486302	0.00577774511
0	6115	55.465077231412	0.025156889235
0	6124	55.490234120647	0.079968950085
0	6129	55.570203070732	0.040514054275
0	6135	55.610717125007	0.060554514328
0	6141	55.671271639335	0.026887047574
0	6146	55.698158686909	0.015696232193
0	6151	55.713854919102	0.002411454144
0	6153	55.716266373246	0.099996937397
0	6161	55.816263310643	0.03055296435
0	6167	55.846816274993	0.040566790164
0	6172	55.887383065157	0.009660720376
0	6177	55.897043785533	0.070842758106
0	6183	55.967886543639	0.040006551887
0	6189	56.007893095526	0.000808457593
0	6191	56.008701553119	0.026004226571
0	6199	56.03470577969	0.0041245653
0	6201	56.03883034499	0.008117719048
0	6206	56.046948064038	0.057201059511
0	6215	56.104149123549	0.032767951603
0	6220	56.136917075152	0.004226191893
0	6222	56.141143267045	0.00836568126
0	6227	56.149508948305	0.080530898053
0	6235	56.230039846358	0.106460159535
0	6241	56.336500005893	0.003132391964
0	6243	56.339632397857	0.0038944198
0	6245	56.343526817657	0.029754352955
0	6257	56.373281170612	0.139760984549
0	6262	56.513042155161	0.010070335565
0	6267	56.523112490726	0.006516994119
0	6269	56.529629484845	0.000675531985
0	6274	56.53030501683	0.0663132245
0	6284	56.59661824133	0.02362725564
0	6289	56.62024549697	0.054502621773
0	6294	56.674748118743	0.078154068137
0	6301	56.75290218688	0.044933009697
0	6307	56.797835196577	0.02629643019
0	6312	56.824131626767	0.038153254711
0	6317	56.862284881478	0.048950897449
0	6322	56.911235778927	0.000196415603
0	6324	56.91143219453	0.008243507608
0	6329	56.919675702138	0.024278830893
0	6337	56.943954533031	0.072279933007
0	6344	57.016234466038	0.025712624375
0	6349	57.041947090413	0.003928192865
0	6351	57.045875283278	0.036488681983
0	6359	57.082363965261	0.068367393644
0	6365	57.150731358905	0.007241767705
0	6370	57.15797312661	0.062287623516
0	6375	57.220260750126	0.019668510841
0	6380	57.239929260967	0.048676618788
0	6386	57.288605879755	0.044258159439
0	6391	57.332864039194	0.084596679955
0	6396	57.417460719149	0.004781081459
0	6398	57.422241800608	0.009214338937
0	6403	57.431456139545	0.101773121254
0	6412	57.533229260799	0.102226337972
0	6417	57.635455598771	0.033269948643
0	6423	57.668725547414	0.020647127181
0	6428	57.689372674595	0.016135727904
0	6433	57.705508402499	0.028794457066
0	6438	57.734302859565	0.037896139544
0	6443	57.772198999109	0.012759637203
0	6449	57.784958636312	0.062600960891
0	6455	57.847559597203	0.141237815473
0	6461	57.988797412676	0.040595972932
0	6466	58.029393385608	0.00699220739
0	6468	58.036385592998	0.08727446357
0	6476	58.123660056568	0.006867018301
0	6478	58.130527074869	0.01108009511
0	6486	58.141607169979	0.05596666333
0	6491	58.197573833309	0.013190190405
0	6496	58.210764023714	0.05751752655
0	6501	58.268281550264	0.018268205303
0	6506	58.286549755567	0.064472255067
0	6513	58.351022010634	0.120010054832
0	6519	58.471032065466	0.023283259153
0	6524	58.494315324619	0.068090674169
0	6529	58.562405998788	0.032308746397
0	6534	58.594714745185	0.203440409999
0	6541	58.798155155184	0.001274935979
0	6543	58.799430091163	0.010676940693
0	6548	58.810107031856	0.139537604635
0	6558	58.949644636491	0.010838778392
0	6563	58.960483414883	0.047979158048
0	6568	59.008462572931	0.079144819162
0	6573	59.087607392093	0.03874208752
0	6578	59.126349479613	9.7511656e-05
0	6580	59.126446991269	0.004387829871
0	6582	59.13083482114	0.2438476481
0	6596	59.37468246924	0.006057001665
0	6598	59.380739470905	0.045932206908
0	6607	59.426671677813	0.066000080907
0	6612	59.49267175872	0.007886100114
0	6617	59.500557858834	0.012324242221
0	6623	59.512882101055	0.109276297826
0	6630	59.622158398881	0.027293754422
0	6635	59.649452153303	0.015720470172
0	6640	59.665172623475	0.016210783718
0	6645	59.681383407193	0.011125466919
0	6650	59.692508874112	0.17584898421
0	6655	59.868357858322	0.039679758486
0	6660	59.908037616808	0.089907303961
0	6667	59.997944920769	0.113312745482
0	6673	60.111257666251	0.12863770756
0	6678	60.239895373811	0.075266370613
0	6684	60.315161744424	0.015019791742
0	6689	60.330181536166	0.020651350628
0	6694	60.350832886794	0.112794409182
0	6700	60.463627295976	0.081033893713
0	6705	60.544661189689	0.003849787699
0	6708	60.548510977388	0.008850153822
0	6713	60.55736113121	0.091667893945
0	6721	60.649029025155	0.113245893365
0	6727	60.76227491852	0.005384155621
0	6729	60.767659074141	0.202739673697
0	6739	60.970398747838	0.014468636592
0	6744	60.98486738443	0.033639829862
0	6750	61.018507214292	0.000716918404
0	6752	61.019224132696	0.001119946371
0	6754	61.020344079067	0.085341687647
0	6766	61.105685766714	0.047735030486
0	6771	61.1534207972	0.014967226244
0	6776	61.168388023444	0.069202482193
0	6781	61.237590505637	0.05474631054
0	6786	61.292336816177	0.007849366205
0	6791	61.300186182382	0.028954790258
0	6796	61.32914097264	0.052061314922
0	6801	61.381202287562	0.035443242577
0	6806	61.416645530139	0.013990763895
0	6811	61.430636294034	0.084875059924
0	6816	61.515511353958	0.009563374667
0	6821	61.525074728625	0.047213236044
0	6826	61.572287964669	0.13881606358
0	6831	61.711104028249	0.055333186102
0	6836	61.766437214351	0.055109979692
0	6841	61.821547194043	0.138678670125
0	6847	61.960225864168	0.0005392362
0	6849	61.960765100368	0.027699353759
0	6857	61.988464454127	0.050708348661
0	6863	62.039172802788	0.182049780352
0	6868	62.22122258314	0.092878236919
0	6874	62.314100820059	0.014610498965
0	6879	62.328711319024	0.032307658777
0	6884	62.361018977801	0.029812860804
0	6889	62.390831838605	0.004131182219
0	6891	62.394963020824	0.0243185468
0	6899	62.419281567624	0.143522216327
0	6904	62.562803783951	0.004445611515
0	6906	62.567249395466	0.001710654772
0	6908	62.568960050238	0.037315086085
0	6919	62.606275136323	0.152734522574
0	6925	62.759009658897	0.136491811025
0	6932	62.895501469922	0.003466961214
0	6934	62.898968431136	0.024609314228
0	6943	62.923577745364	0.00744654677
0	6945	62.931024292134	0.040544804383
0	6953	62.971569096517	0.158872733421
0	6958	63.130441829938	0.025369348189
0	6963	63.155811178127	0.004237496805
0	6965	63.160048674932	0.016952907448
0	6973	63.17700158238	0.104363188053
0	6981	63.281364770433	0.031667069485
0	6986	63.313031839918	0.201791867301
0	6993	63.514823707219	0.012457757118
0	6998	63.527281464337	0.013474543287
0	7003	63.540756007624	0.037832485687
0	7009	63.578588493311	0.003169740423
0	7011	63.581758233734	0.06667594696
0	7019	63.648434180694	0.025496475852
0	7024	63.673930656546	0.196076605745
0	7030	63.870007262291	0.017804891414
0	7035	63.887812153705	0.042978832366
0	7040	63.930790986071	0.165272254912
0	7045	64.096063240983	0.137009567077
0	7052	64.23307280806	0.017018201685
0	7057	64.250091009745	0.02798807333
0	7062	64.278079083075	0.070690723659
0	7067	64.348769806734	0.067052600912
0	7073	64.415822407646	0.074661784846
0	7079	64.490484192492	0.087651934143
0	7085	64.578136126635	0.034744515703
0	7091	64.612880642338	0.059695022795
0	7097	64.672575665133	0.084147388402
0	7103	64.756723053535	0.043638886509
0	7108	64.800361940044	0.010203648696
0	7113	64.81056558874	0.006775395848
0	7115	64.817340984588	0.010436698281
0	7124	64.827777682869	0.005569774686
0	7126	64.833347457555	0.003086463061
0	7131	64.836433920616	0.081457835583
0	7142	64.917891756199	0.00981573849
0	7147	64.927707494689	0.008263209518
0	7149	64.935970704207	0.00638969378
0	7154	64.942360397987	0.081906094781
0	7163	65.024266492768	0.015938070422
0	7168	65.04020456319	0.028181940338
0	7174	65.068386503528	0.012076516751
0	7179	65.080463020279	0.024954759189
0	7184	65.105417779468	0.014289350658
0	7189	65.119707130126	0.015931829225
0	7194	65.135638959351	0.09670409951
0	7200	65.232343058861	0.043749061298
0	7205	65.276092120159	0.081312286199
0	7210	65.357404406358	0.0151699029
0	7215	65.372574309258	0.071956618247
0	7220	65.444530927505	0.023834197337
0	7225	65.468365124842	0.056921652473
0	7230	65.525286777315	0.090371933508
0	7236	65.615658710823	0.076683753402
0	7242	65.692342464225	0.01089009888
0	7247	65.703232563105	0.053589118714
0	7253	65.756821681819	0.00880515439
0	7258	65.765626836209	0.050162444541
0	7264	65.81578928075	0.006973107836
0	7266	65.822762388586	0.025647958848
0	7274	65.848410347434	0.013487484869
0	7280	65.861897832303	0.003388657035
0	7282	65.865286489338	0.075471128665
0	7290	65.940757618003	0.068044216193
0	7296	66.008801834196	0.158501435495
0	7303	66.167303269691	0.032382127437
0	7308	66.199685397128	0.06932280054
0	7313	66.269008197668	0.061038432264
0	7318	66.330046629932	0.178839255135
0	7326	66.508885885067	0.070450264691
0	7331	66.579336149758	0.047791881832
0	7336	66.62712803159	0.115063421791
0	7341	66.742191453381	0.045814803139
0	7347	66.78800625652	0.067076759746
0	7352	66.855083016266	0.030576859351
0	7357	66.885659875617	0.066017018272
0	7362	66.951676893889	0.100997364194
0	7369	67.052674258083	0.035022600861
0	7374	67.087696858944	0.119795581437
0	7379	67.207492440381	0.045751695511
0	7384	67.253244135892	0.017248139522
0	7389	67.270492275414	0.003333479924
0	7391	67.273825755338	0.006951322808
0	7396	67.280777078146	0.004087981027
0	7398	67.284865059173	0.082761964305
0	7409	67.367627023478	0.025186142094
0	7414	67.392813165572	0.018643779653
0	7419	67.411456945225	0.061231997437
0	7426	67.472688942662	0.044991067049
0	7431	67.517680009711	0.138125888201
0	7437	67.655805897912	0.16480960524
0	7443	67.820615503152	0.055424378431
0	7450	67.876039881583	0.015589031343
0	7455	67.891628912926	0.001326914944
0	7457	67.89295582787	0.021118633485
0	7466	67.914074461355	0.054541336845
0	7471	67.9686157982	0.095460081343
0	7476	68.064075879543	0.020955830222
0	7481	68.085031709765	0.010919600879
0	7486	68.095951310644	0.122204442811
0	7492	68.218155753455	0.027254942887
0	7497	68.245410696342	0.062104881262
0	7502	68.307515577604	0.020963410505
0	7507	68.328478988109	0.008907620571
0	7512	68.33738660868	0.009918857895
0	7517	68.347305466575	0.002200002057
0	7519	68.349505468632	0.02484607552
0	7527	68.374351544152	0.117969881065
0	7534	68.492321425217	0.031662152131
0	7539	68.523983577348	0.074010593211
0	7544	68.597994170559	0.037405495313
0	7549	68.635399665872	0.023445516029
0	7554	68.658845181901	0.082517538894
0	7559	68.741362720795	0.009014660276
0	7564	68.750377381071	0.095379862889
0	7569	68.84575724396	0.024819705252
0	7574	68.870576949212	0.072084799472
0	7580	68.942661748684	0.001973064186
0	7582	68.94463481287	0.015593929172
0	7590	68.960228742042	0.022344099241
0	7595	68.982572841283	0.193559405329
0	7601	69.176132246612	0.013617168365
0	7606	69.189749414977	0.002232025937
0	7608	69.191981440914	0.027230790951
0	7617	69.219212231865	0.128160806886
0	7623	69.347373038751	0.203371920828
0	7628	69.550744959579	0.059985290374
0	7634	69.610730249953	0.084693871428
0	7641	69.695424121381	0.074921220215
0	7646	69.770345341596	0.206116967053
0	7652	69.976462308649	0.021573940539
0	7657	69.998036249188	0.022310036481
0	7662	70.020346285669	0.046585393267
0	7667	70.066931678936	0.04386168793
0	7672	70.110793366866	0.120967744088
0	7678	70.231761110954	0.051659082733
0	7683	70.283420193687	0.058265726816
0	7688	70.341685920503	0.010708118561
0	7693	70.352394039064	0.005002052879
0	7695	70.357396091943	0.012481770747
0	7703	70.36987786269	0.062078520174
0	7708	70.431956382864	0.083145139932
0	7713	70.515101522796	0.028608753835
0	7718	70.543710276631	0.004739523514
0	7720	70.548449800145	0.012275182546
0	7728	70.560724982691	0.129856854289
0	7733	70.69058183698	0.204056667614
0	7739	70.894638504594	0.076095271787
0	7745	70.970733776381	0.005653827122
0	7747	70.976387603503	0.145870826638
0	7756	71.122258430141	0.059171409132
0	7761	71.181429839273	0.101797876275
0	7767	71.283227715548	0.181030160882
0	7772	71.46425787643	0.02057971567
0	7777	71.4848375921	0.036378140344
0	7782	71.521215732444	0.050354904806
0	7787	71.57157063725	0.115375904701
0	7793	71.686946541951	0.008959285728
0	7798	71.695905827679	0.036556649674
0	7803	71.732462477353	0.007482252354
0	7808	71.739944729707	0.023221035852
0	7813	71.763165765559	0.010439206159
0	7818	71.773604971718	0.009432532148
0	7823	71.783037503866	0.161514687015
0	7828	71.944552190881	0.176835216153
0	7833	72.121387407034	0.090647896026
0	7838	72.21203530306	0.032233254216
0	7843	72.244268557276	0.029218917631
0	7848	72.273487474907	0.006076624478
0	7850	72.279564099385	0.019868619713
0	7858	72.299432719098	0.026170580861
0	7863	72.325603299959	0.093969879119
0	7870	72.419573179078	0.087198320634
0	7876	72.506771499712	0.023911128001
0	7881	72.530682627713	0.029663942869
0	7886	72.560346570582	0.002858188529
0	7888	72.563204759111	0.10937749035
0	7896	72.672582249461	0.110346535935
0	7902	72.782928785396	0.011544715477
0	7907	72.794473500873	0.024156662032
0	7912	72.818630162905	0.068100186072
0	7917	72.886730348977	0.014538794119
0	7922	72.901269143096	0.079895794467
0	7927	72.981164937563	0.048461609728
0	7932	73.029626547291	0.001898904288
0	7934	73.031525451579	0.063724929855
0	7942	73.095250381434	0.028651093315
0	7947	73.123901474749	0.102046227752
0	7952	73.225947702501	0.029306761686
0	7957	73.255254464187	0.011654922211
0	7962	73.266909386398	0.044189076914
0	7967	73.311098463312	0.126801773072
0	7975	73.437900236384	0.023589165899
0	7980	73.461489402283	0.253947553399
0	7986	73.715436955682	0.021659054157
0	7991	73.737096009839	0.022944986015
0	7996	73.760040995854	0.086688855494
0	8001	73.846729851348	0.111143644956
0	8008	73.957873496304	0.004412839312
0	8010	73.962286335616	0.016165185883
0	8018	73.978451521499	0.002340204241
0	8020	73.98079172574	0.04586215393
0	8029	74.02665387967	0.014314646306
0	8034	74.040968525976	0.00203284586
0	8036	74.043001371836	0.006979990059
0	8041	74.049981361895	0.183246049639
0	8051	74.233227411534	0.325590452347
0	8058	74.558817863881	0.031075220414
0	8063	74.589893084295	0.029509642223
0	8068	74.619402726518	0.110492594235
0	8075	74.729895320753	0.023325044476
0	8080	74.753220365229	0.032360363682
0	8085	74.785580728911	0.018860288479
0	8090	74.80444101739	0.022451237553
0	8096	74.826892254943	0.020452988709
0	8101	74.847345243652	0.018539912936
0	8106	74.865885156588	0.040924576131
0	8112	74.906809732719	0.037910177986
0	8118	74.944719910705	0.004143821544
0	8120	74.948863732249	0.08139576389
0	8128	75.030259496139	0.011584845095
0	8133	75.041844341234	0.033353891762
0	8138	75.075198232996	0.048418554927
0	8146	75.123616787923	0.007473813818
0	8148	75.131090601741	0.105680843894
0	8156	75.236771445635	0.012103723162
0	8161	75.248875168797	0.021246113684
0	8166	75.270121282481	0.029742055677
0	8171	75.299863338158	0.021790626442
0	8177	75.3216539646	0.100170210283
0	8182	75.421824174883	0.026704646343
0	8187	75.448528821226	0.024489291887
0	8192	75.473018113113	0.043019625647
0	8197	75.51603773876	0.069506792837
0	8203	75.585544531597	0.023519772988
0	8208	75.609064304585	0.116542669087
0	8214	75.725606973672	0.106600083453
0	8219	75.832207057125	0.161451679281
0	8225	75.993658736406	0.095346974493
0	8233	76.089005710899	0.05944632244
0	8239	76.148452033339	0.040372090578
0	8244	76.188824123917	0.068105090448
0	8249	76.256929214365	0.109905703788
0	8255	76.366834918153	0.135624891005
0	8261	76.502459809158	0.028051410649
0	8267	76.530511219807	0.148668971694
0	8272	76.679180191501	0.012975653375
0	8277	76.692155844876	0.020782772889
0	8282	76.712938617765	0.013356677303
0	8287	76.726295295068	0.012402498279
0	8292	76.738697793347	0.023541360526
0	8297	76.762239153873	0.026594069677
0	8302	76.78883322355	0.025193647216
0	8307	76.814026870766	0.113326196596
0	8313	76.927353067362	0.055130923468
0	8318	76.98248399083	0.04601288094
0	8324	77.02849687177	0.024379210299
0	8329	77.052876082069	0.034418649357
0	8334	77.087294731426	0.011130953173
0	8339	77.098425684599	0.024623280414
0	8344	77.123048965013	0.001794259541
0	8346	77.124843224554	0.007206608157
0	8351	77.132049832711	0.022479530736
0	8360	77.154529363447	0.003494187905
0	8362	77.158023551352	0.021600297618
0	8370	77.17962384897	0.138333662948
0	8376	77.317957511918	0.057048213852
0	8382	77.37500572577	0.04380475022
0	8387	77.41881047599	0.032334238969
0	8393	77.451144714959	0.028277654551
0	8399	77.47942236951	0.118595197607
0	8404	77.598017567117	0.030596857129
0	8409	77.628614424246	0.029262984917
0	8414	77.657877409163	0.018322970071
0	8419	77.676200379234	0.008955861585
0	8424	77.685156240819	0.0116942165
0	8429	77.696850457319	7.1598256e-05
0	8431	77.696922055575	0.061421763875
0	8439	77.75834381945	0.097904570418
0	8444	77.856248389868	0.069403047086
0	8449	77.925651436954	0.010880016399
0	8455	77.936531453353	0.321706888459
0	8462	78.258238341812	0.012274058972
0	8467	78.270512400784	0.098064930503
0	8473	78.368577331287	0.100972488978
0	8479	78.469549820265	0.076356257233
0	8485	78.545906077498	0.035865337611
0	8491	78.581771415109	0.01597424987
0	8496	78.597745664979	0.0345490649
0	8501	78.632294729879	0.046522391673
0	8506	78.678817121552	0.047378088586
0	8513	78.726195210138	0.098161149176
0	8521	78.824356359314	0.002854491351
0	8523	78.827210850665	0.091673308624
0	8532	78.918884159289	0.033385438799
0	8537	78.952269598088	0.092260790337
0	8544	79.044530388425	0.005376835703
0	8546	79.049907224128	0.028731995659
0	8554	79.078639219787	0.019263133539
0	8559	79.097902353326	0.121805794931
0	8564	79.219708148257	0.059882818667
0	8569	79.279590966924	0.032321746015
0	8574	79.311912712939	0.017978054814
0	8579	79.329890767753	0.040858609285
0	8585	79.370749377038	0.031089828675
0	8590	79.401839205713	0.062247445138
0	8595	79.464086650851	0.00596708206
0	8597	79.470053732911	0.050210147177
0	8605	79.520263880088	0.000920955658
0	8607	79.521184835746	0.241931429988
0	8618	79.763116265734	0.154070922481
0	8624	79.917187188215	0.010587599076
0	8629	79.927774787291	0.02662217259
0	8635	79.954396959881	0.022748483589
0	8640	79.97714544347	0.070544096675
0	8646	80.047689540145	0.172010795362
0	8653	80.219700335507	0.046315805236
0	8658	80.266016140743	0.085616490305
0	8664	80.351632631048	0.003486954615
0	8666	80.355119585663	0.156004480803
0	8676	80.511124066466	0.0310064984
0	8681	80.542130564866	0.008885072773
0	8686	80.551015637639	0.00706136135
0	8688	80.558076998989	0.064502375592
0	8696	80.622579374581	0.048617996349
0	8701	80.67119737093	0.042099703083
0	8706	80.713297074013	0.039426051122
0	8711	80.752723125135	0.064554224506
0	8716	80.817277349641	0.038326314498
0	8721	80.855603664139	0.056878905204
0	8726	80.912482569343	0.01543007695
0	8731	80.927912646293	0.03293749955
0	8736	80.960850145843	0.006999306227
0	8738	80.96784945207	0.004778380305
0	8743	80.972627832375	0.101021696306
0	8752	81.073649528681	0.009974634716
0	8757	81.083624163397	0.09255061025
0	8762	81.176174773647	0.016798069089
0	8767	81.192972842736	0.014135914829
0	8773	81.207108757565	0.04495769174
0	8778	81.252066449305	0.134898398316
0	8783	81.386964847621	0.018187559755
0	8788	81.405152407376	0.037807633809
0	8793	81.442960041185	0.034648376367
0	8798	81.477608417552	0.038498422429
0	8803	81.516106839981	0.008198553587
0	8808	81.524305393568	0.034907998445
0	8813	81.559213392013	0.062535195092
0	8818	81.621748587105	0.011186954815
0	8823	81.63293554192	0.103515703758
0	8829	81.736451245678	0.21559418872
0	8835	81.952045434398	0.0219020423
0	8840	81.973947476698	0.093422681646
0	8846	82.067370158344	0.019015316507
0	8851	82.086385474851	0.026536466252
0	8856	82.112921941103	0.103794332616
0	8862	82.216716273719	0.015653354159
0	8867	82.232369627878	0.021206237783
0	8872	82.253575865661	0.133377119608
0	8878	82.386952985269	0.04154658414
0	8883	82.428499569409	0.03786608216
0	8888	82.466365651569	0.022326690428
0	8893	82.488692341997	0.090176858958
0	8899	82.578869200955	0.110086470344
0	8905	82.688955671299	0.042327862185
0	8910	82.731283533484	0.028776132104
0	8915	82.760059665588	0.043002273338
0	8920	82.803061938926	0.019832707975
0	8925	82.822894646901	0.059139759916
0	8930	82.882034406817	0.016975524545
0	8935	82.899009931362	0.05463477123
0	8941	82.953644702592	0.005795710947
0	8943	82.959440413539	0.034697322866
0	8951	82.994137736405	0.00081064817
0	8953	82.994948384575	0.027810296976
0	8962	83.022758681551	0.035302272339
0	8967	83.05806095389	0.000853594679
0	8969	83.058914548569	0.057361363309
0	8978	83.116275911878	0.016580346492
0	8983	83.13285625837	0.005450352254
0	8985	83.138306610624	0.02891086328
0	8993	83.167217473904	0.016006452353
0	8998	83.183223926257	0.005409367531
0	9000	83.188633293788	0.096618270871
0	9009	83.285251564659	0.050721440952
0	9014	83.335973005611	0.046965238654
0	9019	83.382938244265	0.016442526445
0	9024	83.39938077071	0.064204471999
0	9029	83.463585242709	0.051640564216
0	9035	83.515225806925	0.03220293739
0	9040	83.547428744315	0.082537922978
0	9045	83.629966667293	0.033587998053
0	9050	83.663554665346	0.035062033509
0	9056	83.698616698855	0.122633850838
0	9063	83.821250549693	0.006028472129
0	9065	83.827279021822	0.027490489228
0	9073	83.85476951105	0.038792528897
0	9078	83.893562039947	0.077212836811
0	9084	83.970774876758	0.110184994302
0	9089	84.08095987106	0.048605726932
0	9094	84.129565597992	0.011985244156
0	9099	84.141550842148	0.010366521431
0	9104	84.151917363579	0.017652464124
0	9109	84.169569827703	0.181380611363
0	9114	84.350950439066	0.028066672242
0	9121	84.379017111308	0.047739112762
0	9126	84.42675622407	0.009694428569
0	9131	84.436450652639	0.021296614385
0	9136	84.457747267024	0.004498322891
0	9138	84.462245589915	0.010437487365
0	9143	84.47268307728	0.000243752151
0	9145	84.472926829431	0.098614035599
0	9157	84.57154086503	0.131509556454
0	9165	84.703050421484	0.176413602649
0	9170	84.879464024133	0.025648207537
0	9175	84.90511223167	0.166870939367
0	9184	85.071983171037	0.011908919178
0	9190	85.083892090215	0.046475829025
0	9195	85.13036791924	0.01948849027
0	9200	85.14985640951	0.03923790511
0	9205	85.18909431462	0.0375836556
0	9210	85.22667797022	0.027666773056
0	9215	85.254344743276	0.008430955583
0	9220	85.262775698859	0.009212966686
0	9225	85.271988665545	0.015194618654
0	9230	85.287183284199	0.002826163511
0	9232	85.29000944771	0.030521587619
0	9240	85.320531035329	0.027305616783
0	9245	85.347836652112	0.069512600911
0	9251	85.417349253023	0.02210091778
0	9256	85.439450170803	0.088777909517
0	9261	85.52822808032	0.019363182054
0	9266	85.547591262374	0.054744305455
0	9271	85.602335567829	0.052807992591
0	9278	85.65514356042	0.09873288209
0	9284	85.75387644251	0.017165392736
0	9289	85.771041835246	0.001922424411
0	9291	85.772964259657	0.016894264962
0	9299	85.789858524619	0.120960701103
0	9305	85.910819225722	0.031477874506
0	9311	85.942297100228	0.107780441058
0	9317	86.050077541286	0.074981878371
0	9322	86.125059419657	0.027480324864
0	9327	86.152539744521	0.060296733972
0	9332	86.212836478493	0.036380455402
0	9337	86.249216933895	0.010631182049
0	9342	86.259848115944	0.122487264714
0	9347	86.382335380658	0.039880323113
0	9352	86.422215703771	0.036574570313
0	9357	86.458790274084	0.043329507254
0	9362	86.502119781338	0.018186531771
0	9368	86.520306313109	0.052936831672
0	9373	86.573243144781	0.017002944374
0	9379	86.590246089155	0.012907892442
0	9384	86.603153981597	0.049525687464
0	9389	86.652679669061	0.13031586979
0	9396	86.782995538851	0.034956744727
0	9401	86.817952283578	0.111033076489
0	9407	86.928985360067	0.023462552182
0	9412	86.952447912249	0.03117839563
0	9418	86.983626307879	0.029669959057
0	9423	87.013296266936	0.024938344761
0	9429	87.038234611697	0.003950735641
0	9431	87.042185347338	0.015573433605
0	9440	87.057758780943	0.022790215526
0	9445	87.080548996469	0.000272391823
0	9447	87.080821388292	0.031211666088
0	9455	87.11203305438	0.01960700353
0	9460	87.13164005791	0.03413283936
0	9465	87.16577289727	0.102647895467
0	9470	87.268420792737	0.014891529483
0	9475	87.28331232222	0.067907509353
0	9480	87.351219831573	0.006917026499
0	9482	87.358136858072	0.041032745715
0	9490	87.399169603787	0.020593973248
0	9496	87.419763577035	0.009377492105
0	9501	87.42914106914	0.027694624128
0	9507	87.456835693268	0.005270230458
0	9509	87.462105923726	0.07688287422
0	9518	87.538988797946	0.042576254065
0	9523	87.581565052011	0.03559378539
0	9528	87.617158837401	0.014031009124
0	9533	87.631189846525	0.035109292372
0	9538	87.666299138897	0.066204493435
0	9544	87.732503632332	0.058830161719
0	9549	87.791333794051	0.045679831747
0	9554	87.837013625798	0.042048397413
0	9559	87.879062023211	0.006583154199
0	9561	87.88564517741	0.078657777351
0	9570	87.964302954761	0.055789791616
0	9575	88.020092746377	0.044323616557
0	9580	88.064416362934	0.132341865516
0	9587	88.19675822845	0.044172036592
0	9592	88.240930265042	0.023280824072
0	9597	88.264211089114	0.037697367985
0	9603	88.301908457099	0.019027809746
0	9608	88.320936266845	0.058969364279
0	9613	88.379905631124	0.027132083836
0	9618	88.40703771496	0.094509385375
0	9623	88.501547100335	0.000252136962
0	9625	88.501799237297	0.032965790274
0	9633	88.534765027571	0.088138378396
0	9638	88.622903405967	0.062259086666
0	9644	88.685162492633	0.044481467251
0	9649	88.729643959884	0.007485773019
0	9651	88.737129732903	0.003640967532
0	9656	88.740770700435	0.149228773336
0	9664	88.889999473771	0.009118099642
0	9669	88.899117573413	0.02205288861
0	9674	88.921170462023	0.021607734146
0	9679	88.942778196169	0.064700216911
0	9684	89.00747841308	0.006972240269
0	9686	89.014450653349	0.171682322067
0	9694	89.186132975416	0.057816033785
0	9699	89.243949009201	0.002831356633
0	9701	89.246780365834	0.006839459602
0	9706	89.253619825436	0.028632527804
0	9715	89.28225235324	0.002362136612
0	9717	89.284614489852	0.018218108775
0	9725	89.302832598627	0.018282989268
0	9731	89.321115587895	0.066045623766
0	9736	89.387161211661	0.015559688143
0	9741	89.402720899804	0.020305493265
0	9746	89.423026393069	0.100480477812
0	9751	89.523506870881	0.004586669928
0	9753	89.528093540809	0.015921218852
0	9762	89.544014759661	0.057867640245
0	9767	89.601882399906	0.032416847268
0	9773	89.634299247174	0.004415601323
0	9775	89.638714848497	0.01098235844
0	9780	89.649697206937	0.198668106404
0	9789	89.848365313341	0.01059629556
0	9794	89.858961608901	0.127372637646
0	9799	89.986334246547	0.032912910524
0	9804	90.019247157071	0.107703033573
0	9809	90.126950190644	0.002996882814
0	9811	90.129947073458	0.232603403986
0	9819	90.362550477444	0.005748174015
0	9821	90.368298651459	0.119810400228
0	9830	90.488109051687	0.004903660863
0	9832	90.49301271255	0.00050156964
0	9834	90.49351428219	0.035258621314
0	9846	90.528772903504	0.010227795001
0	9851	90.539000698505	0.042179992284
0	9856	90.581180690789	0.057406221974
0	9862	90.638586912763	0.046918114717
0	9867	90.68550502748	0.009797335812
0	9872	90.695302363292	0.049164036988
0	9878	90.74446640028	0.014656663375
0	9883	90.759123063655	0.144518767105
0	9889	90.90364183076	0.01216531351
0	9895	90.91580714427	0.004679986636
0	9897	90.920487130906	0.048540636683
0	9905	90.969027767589	0.009277585048
0	9910	90.978305352637	0.056865912273
0	9917	91.03517126491	0.043804742644
0	9923	91.078976007554	0.024980256338
0	9928	91.103956263892	0.088807968873
0	9935	91.192764232765	0.105395462946
0	9941	91.298159695711	0.204286618693
0	9947	91.502446314404	0.008070904632
0	9952	91.510517219036	0.005593133156
0	9954	91.516110352192	0.124004855068
0	9963	91.64011520726	0.000910930841
0	9965	91.641026138101	0.037885028932
0	9974	91.678911167033	0.017197002204
0	9979	91.696108169237	0.029773029897
0	9984	91.725881199134	0.13663103422
0	9991	91.862512233354	0.000177700173
0	9993	91.862689933527	0.061447360297
0	10001	91.924137293824	0.136387059902
0	10007	92.060524353726	0.05337501236
0	10012	92.113899366086	0.125403410498
0	10018	92.239302776584	0.00280063454
0	10020	92.242103411124	0.137049851523
0	10030	92.379153262647	0.007839208362
0	10035	92.386992471009	0.017585137057
0	10041	92.404577608066	0.080477757663
0	10047	92.485055365729	0.036224530741
0	10052	92.52127989647	0.015481423799
0	10057	92.536761320269	0.174693772134
0	10062	92.711455092403	0.030527106393
0	10068	92.741982198796	0.11783885985
0	10073	92.859821058646	0.007272239688
0	10075	92.867093298334	0.078793375568
0	10083	92.945886673902	0.005465771373
0	10087	92.951352445275	0.015326600852
0	10096	92.966679046127	0.039086315696
0	10102	93.005765361823	0.001845974139
0	10104	93.007611335962	0.025842198865
0	10112	93.033453534827	0.047485192759
0	10117	93.080938727586	0.012781693428
0	10122	93.093720421014	0.02210939047
0	10127	93.115829811484	0.008637497395
0	10132	93.124467308879	0.034806522578
0	10137	93.159273831457	0.058630465682
0	10143	93.217904297139	0.057705983935
0	10148	93.275610281074	0.042524772114
0	10154	93.318135053188	0.05471469426
0	10161	93.372849747448	0.003815451837
0	10163	93.376665199285	0.031243346289
0	10171	93.407908545574	0.017734685039
0	10176	93.425643230613	0.029487241352
0	10181	93.455130471965	0.060290763481
0	10186	93.515421235446	0.059991914964
0	10191	93.57541315041	0.080536237912
0	10196	93.655949388322	0.009661268911
0	10201	93.665610657233	0.029404216968
0	10206	93.695014874201	0.028157964341
0	10213	93.723172838542	0.066406011964
0	10218	93.789578850506	0.026978676652
0	10223	93.816557527158	0.00807791147
0	10225	93.824635438628	0.022244902433
0	10233	93.846880341061	0.022686310183
0	10238	93.869566651244	0.041160039948
0	10243	93.910726691192	0.018857711137
0	10248	93.929584402329	0.024711554556
0	10254	93.954295956885	0.075880886684
0	10259	94.030176843569	0.002720290213
0	10261	94.032897133782	0.035297598348
0	10270	94.06819473213	0.003352916933
0	10272	94.071547649063	0.020210904922
0	10280	94.091758553985	0.144405748474
0	10286	94.236164302459	0.041288794181
0	10291	94.27745309664	0.013823384073
0	10296	94.291276480713	0.083095763909
0	10302	94.374372244622	0.028267078696
0	10308	94.402639323318	0.023127233495
0	10313	94.425766556813	0.018189837853
0	10318	94.443956394666	0.039662579204
0	10323	94.48361897387	0.046697559267
0	10328	94.530316533137	0.048929253797
0	10333	94.579245786934	0.006201048162
0	10335	94.585446835096	0.011417099173
0	10343	94.596863934269	0.014189081739
0	10348	94.611053016008	0.060812014612
0	10353	94.67186503062	0.044014534577
0	10358	94.715879565197	0.084868877804
0	10365	94.800748443001	0.003310432009
0	10367	94.80405887501	0.028698837192
0	10375	94.832757712202	0.029551702652
0	10380	94.862309414854	0.044327859963
0	10385	94.906637274817	0.086271336175
0	10392	94.992908610992	0.000523574609
0	10394	94.993432185601	0.001889202603
0	10396	94.995321388204	0.024647415418
0	10407	95.019968803622	0.026844888616
0	10412	95.046813692238	0.020031253564
0	10417	95.066844945802	0.010019759763
0	10423	95.076864705565	0.098074688866
0	10428	95.174939394431	0.079229843622
0	10433	95.254169238053	0.001720708539
0	10435	95.255889946592	0.005745760274
0	10437	95.261635706866	0.0224086827
0	10448	95.284044389566	0.065779353898
0	10453	95.349823743464	0.051066540167
0	10458	95.400890283631	0.000138031098
0	10460	95.401028314729	0.002480376314
0	10462	95.403508691043	0.051932627312
0	10473	95.455441318355	0.098394657446
0	10478	95.553835975801	0.032356576422
0	10483	95.586192552223	0.014388532506
0	10488	95.600581084729	0.0206052965
0	10493	95.621186381229	0.03350173503
0	10499	95.654688116259	0.007414823824
0	10501	95.662102940083	0.040562680801
0	10510	95.702665620884	0.012356097473
0	10516	95.715021718357	0.021494986151
0	10522	95.736516704508	0.117927540665
0	10527	95.854444245173	0.032135255471
0	10532	95.886579500644	0.032210924752
0	10538	95.918790425396	0.095166204446
0	10543	96.013956629842	0.010388962989
0	10548	96.024345592831	0.013094280729
0	10553	96.03743987356	0.054480191675
0	10559	96.091920065235	0.000445219405
0	10561	96.09236528464	0.000718902997
0	10563	96.093084187637	0.046510333935
0	10574	96.139594521572	0.05557440407
0	10580	96.195168925642	0.030551659762
0	10585	96.225720585404	0.039508046676
0	10590	96.26522863208	0.053284137571
0	10596	96.318512769651	0.038440123972
0	10601	96.356952893623	0.018867849924
0	10607	96.375820743547	0.008350731152
0	10612	96.384171474699	0.033522368306
0	10618	96.417693843005	0.155916144777
0	10624	96.573609987782	0.022380946627
0	10629	96.595990934409	0.002590465594
0	10631	96.598581400003	0.011216060297
0	10636	96.6097974603	0.001391104232
0	10641	96.611188564532	0.032287042109
0	10649	96.643475606641	0.040997969983
0	10654	96.684473576624	0.035094113116
0	10659	96.71956768974	0.022437723243
0	10664	96.742005412983	0.009812652314
0	10669	96.751818065297	0.121739163078
0	10675	96.873557228375	0.035258198824
0	10681	96.908815427199	0.18780832715
0	10688	97.096623754349	0.012280595983
0	10693	97.108904350332	0.016779094494
0	10698	97.125683444826	0.037124021408
0	10703	97.162807466234	0.066012927274
0	10708	97.228820393508	0.079628376309
0	10715	97.308448769817	0.043473395006
0	10721	97.351922164823	0.079458240051
0	10727	97.431380404874	0.04071367433
0	10733	97.472094079204	0.050026839814
0	10738	97.522120919018	0.057367624037
0	10744	97.579488543055	0.034392538104
0	10749	97.613881081159	0.004850992995
0	10751	97.618732074154	0.011565976518
0	10759	97.630298050672	0.01449095963
0	10765	97.644789010302	0.023453165972
0	10770	97.668242176274	0.048006116507
0	10775	97.716248292781	0.164647428651
0	10781	97.880895721432	0.054456005892
0	10786	97.935351727324	0.09744463539
0	10792	98.032796362714	0.02022965117
0	10797	98.053026013884	0.002738203896
0	10799	98.05576421778	0.022353750393
0	10807	98.078117968173	0.069232701708
0	10812	98.147350669881	0.054122648999
0	10819	98.20147331888	0.059282712212
0	10825	98.260756031092	0.014268954462
0	10831	98.275024985554	0.102610643472
0	10837	98.377635629026	0.002000213259
0	10839	98.379635842285	0.024664791458
0	10847	98.404300633743	0.025399724581
0	10852	98.429700358324	0.104222641411
0	10859	98.533922999735	0.061447780762
0	10865	98.595370780497	0.010819001258
0	10870	98.606189781755	0.028597972272
0	10875	98.634787754027	0.005540801176
0	10877	98.640328555203	0.043415904548
0	10885	98.683744459751	0.192418148621
0	10891	98.876162608372	0.047912201484
0	10897	98.924074809856	0.057734890394
0	10902	98.98180970025	0.166136038517
0	10907	99.147945738767	0.00648087029
0	10909	99.154426609057	0.048539780361
0	10917	99.202966389418	0.051239133465
0	10923	99.254205522883	0.031346393804
0	10928	99.285551916687	0.01520118989
0	10933	99.300753106577	0.016441739922
0	10938	99.317194846499	0.194379113145
0	10943	99.511573959644	0.024266352575
0	10949	99.535840312219	0.163591014526
0	10954	99.699431326745	0.016571595122
0	10959	99.716002921867	0.003407868337
0	10961	99.719410790204	0.00444405239
0	10963	99.723854842594	0.015726207043
0	10971	99.739581049637	0.234123356109
0	10981	99.973704405746	0.013007771049
0	10986	99.986712176795	0.019782397472
0	10991	100.006494574267	0.046920418869
0	10996	100.053414993136	0.05175133495
0	11001	100.105166328086	0.190376714549
0	11006	100.295543042635	0.05371762458
0	11011	100.349260667215	0.08637556674
0	11016	100.435636233955	0.085493987281
0	11022	100.521130221236	0.173158085272
0	11029	100.694288306508	0.013363678307
0	11035	100.707651984815	0.078669689198
0	11041	100.786321674013	0.028058301335
0	11046	100.814379975348	0.002471399355
0	11048	100.816851374703	0.041835059321
0	11057	100.858686434024	0.037217908638
0	11062	100.895904342662	0.046769375039
0	11067	100.942673717701	0.003695054527
0	11069	100.946368772228	0.03336343535
0	11077	100.979732207578	0.023933190724
0	11083	101.003665398302	0.124219394062
0	11089	101.127884792364	0.086396010821
0	11094	101.214280803185	0.005976798774
0	11096	101.220257601959	0.02799295158
0	11104	101.248250553539	0.095257419253
0	11109	101.343507972792	0.158093823225
0	11118	101.501601796017	0.020202890191
0	11123	101.521804686208	0.02283749574
0	11128	101.544642181948	0.006459097518
0	11130	101.551101279466	0.037675361935
0	11138	101.588776641401	0.006080028585
0	11140	101.594856669986	0.005560654121
0	11145	101.600417324107	0.044272156876
0	11153	101.644689480983	0.088250365491
0	11159	101.732939846474	0.022140594737
0	11164	101.755080441211	0.001637173959
0	11166	101.75671761517	0.014210741199
0	11171	101.770928356369	0.066999660115
0	11179	101.837928016484	0.206137763936
0	11184	102.04406578042	0.022132435084
0	11191	102.066198215504	0.056908580632
0	11196	102.123106796136	0.064473026671
0	11201	102.187579822807	0.078981224175
0	11206	102.266561046982	0.050884371898
0	11213	102.31744541888	0.007696855438
0	11216	102.325142274318	0.021091956797
0	11224	102.346234231115	0.054164301226
0	11229	102.400398532341	0.002844287891
0	11231	102.403242820232	0.024815600506
0	11239	102.428058420738	0.051282044712
0	11244	102.47934046545	0.055158154905
0	11252	102.534498620355	0.002287748661
0	11255	102.536786369016	0.099309405192
0	11265	102.636095774208	0.116224331985
0	11271	102.752320106193	0.00898119078
0	11276	102.761301296973	0.012569510539
0	11281	102.773870807512	0.132069643562
0	11288	102.905940451074	0.02150193647
0	11293	102.927442387544	0.049066490726
0	11298	102.97650887827	0.038502416501
0	11303	103.015011294771	0.015989989019
0	11308	103.03100128379	0.059245241772
0	11314	103.090246525562	0.021593086887
0	11319	103.111839612449	0.113380633734
0	11325	103.225220246183	0.023524966298
0	11331	103.248745212481	0.002271910039
0	11333	103.25101712252	0.045008425248
0	11341	103.296025547768	0.048979989425
0	11346	103.345005537193	0.032897792512
0	11351	103.377903329705	0.062434263486
0	11356	103.440337593191	0.002822874629
0	11358	103.44316046782	0.087810539223
0	11366	103.530971007043	0.010054179128
0	11371	103.541025186171	0.018544738568
0	11377	103.559569924739	0.078318127178
0	11384	103.637888051917	0.037622788671
0	11389	103.675510840588	0.099359894867
0	11394	103.774870735455	0.006663085327
0	11396	103.781533820782	0.043534117425
0	11405	103.825067938207	0.010999075913
0	11410	103.83606701412	0.065922505197
0	11415	103.901989519317	0.00333550649
0	11417	103.905325025807	0.030450078389
0	11425	103.935775104196	0.051375107529
0	11431	103.987150211725	0.005877976361
0	11434	103.993028188086	0.050400021843
0	11444	104.043428209929	0.024533799041
0	11449	104.06796200897	0.032745660135
0	11454	104.100707669105	0.312446323819
0	11461	104.413153992924	0.004606555118
0	11463	104.417760548042	0.044232753644
0	11472	104.461993301686	0.005567516911
0	11474	104.467560818597	0.013895254567
0	11482	104.481456073164	0.147523354782
0	11487	104.628979427946	0.01360811666
0	11492	104.642587544606	0.044125351951
0	11497	104.686712896557	0.101460455166
0	11504	104.788173351723	0.070178041301
0	11510	104.858351393024	0.047239057781
0	11516	104.905590450805	0.099749523386
0	11522	105.005339974191	0.046388436931
0	11528	105.051728411122	0.009059869687
0	11533	105.060788280809	0.001325158686
0	11535	105.062113439495	0.096855893985
0	11545	105.15896933348	0.049626107904
0	11550	105.208595441384	0.026570994179
0	11555	105.235166435563	0.030024799832
0	11560	105.265191235395	0.076580586769
0	11566	105.341771822164	0.001755976105
0	11568	105.343527798269	0.182832547101
0	11577	105.52636034537	0.000636660333
0	11579	105.526997005703	0.040497903973
0	11587	105.567494909676	0.074923015167
0	11596	105.642417924843	0.001632421047
0	11598	105.64405034589	0.018501573691
0	11606	105.662551919581	0.009976714086
0	11611	105.672528633667	0.149348008576
0	11619	105.821876642243	0.013899355863
0	11624	105.835775998106	0.05969856186
0	11629	105.895474559966	0.009894738333
0	11634	105.905369298299	0.036345028491
0	11639	105.94171432679	0.021404306865
0	11644	105.963118633655	0.034007998187
0	11649	105.997126631842	0.038356029859
0	11654	106.035482661701	0.032122195706
0	11661	106.067604857407	0.011406331888
0	11666	106.079011189295	0.200114163076
0	11674	106.279125352371	0.003227142844
0	11676	106.282352495215	0.043127803251
0	11684	106.325480298466	0.001889205154
0	11686	106.32736950362	0.016676954888
0	11694	106.344046458508	0.006114787056
0	11696	106.350161245564	0.003456695309
0	11701	106.353617940873	0.061194967505
0	11709	106.414812908378	0.054807433689
0	11714	106.469620342067	0.023287315491
0	11719	106.492907657558	0.013760592887
0	11724	106.506668250445	0.008793791377
0	11729	106.515462041822	0.005093249126
0	11731	106.520555290948	0.045965682886
0	11739	106.566520973834	0.000326737406
0	11741	106.56684771124	0.145152899785
0	11749	106.712000611025	0.001282228784
0	11751	106.713282839809	0.009601343929
0	11756	106.722884183738	0.000323952243
0	11758	106.723208135981	0.017883263623
0	11766	106.741091399604	0.088295997019
0	11774	106.829387396623	0.019020551377
0	11779	106.848407948	0.171646796497
0	11787	107.020054744497	0.005615233002
0	11789	107.025669977499	0.026610158701
0	11797	107.0522801362	0.001800734262
0	11799	107.054080870462	0.009498373445
0	11804	107.063579243907	0.005443293035
0	11809	107.069022536942	0.069977648232
0	11817	107.139000185174	0.027390934789
0	11823	107.166391119963	0.053239380304
0	11828	107.219630500267	0.013301813157
0	11833	107.232932313424	0.049212780258
0	11838	107.282145093682	0.028796604897
0	11843	107.310941698579	0.03617290215
0	11848	107.347114600729	0.049173152078
0	11853	107.396287752807	0.035414904692
0	11858	107.431702657499	0.020276355944
0	11863	107.451979013443	0.014957223228
0	11868	107.466936236671	0.028018217083
0	11873	107.494954453754	0.048569517308
0	11878	107.543523971062	0.019786372614
0	11883	107.563310343676	0.055964546846
[...]
19	17291	156.412017295458	0.30110056093725
19	17323	156.713117856395	4.7119723124848
19	17790	161.42509016888	0.69052773739837
19	17888	162.115617906278	14.623404312647
19	19447	176.739022218925	1.1388757145807
19	19580	177.877897933506	3.7081225536227
19	19969	181.586020487129	1.07225512966
19	20045	182.658275616789	0.93834894328373
19	20168	183.596624560073	2.5541917103829
19	20459	186.150816270456	6.1391056545659
19	21143	192.289921925022	0.44935193276498
19	21173	192.739273857787	4.3129091721829
19	21603	197.05218302997	2.1602698029657
19	21833	199.212452832936	1.9669831577372
19	22049	201.179435990673	0.19000792858243
19	22082	201.369443919255	3.5221563830857
19	22456	204.891600302341	2.717274657997
19	22838	207.608874960338	0.39316269209723
19	22880	208.002037652435	3.159626033406
19	23222	211.161663685841	1.9238754593772
19	23391	213.085539145218	4.0072392057895
19	23827	217.092778351008	2.272257534648
19	24107	219.365035885656	5.3925869515081
19	24661	224.757622837164	0.9434936057227
19	24766	225.701116442887	2.3499777425568
19	24989	228.051094185444	0.56257786692261
19	25043	228.613672052367	3.5968527408782
19	25485	232.210524793245	0.09660675384961
19	25496	232.307131547095	2.3059979026361
19	25818	234.613129449731	0.17534035149045
19	25857	234.788469801221	0.62042892174199
19	25932	235.408898722963	1.2411370561747
19	26050	236.650035779138	2.2449189396215
19	26283	238.894954718759	2.6834649060903
19	26562	241.578419624849	1.4846315521732
19	26753	243.063051177022	3.8363638440458
19	27156	246.899415021068	1.5939447973084
19	27337	248.493359818376	0.65227756126392
19	27418	249.14563737964	1.4801554066918
19	27614	250.625792786332	0.74935757699916
19	27671	251.375150363331	2.4561709995126
19	27963	253.831321362844	0.11341275179492
19	27990	253.944734114639	4.1026869891314
19	28433	258.04742110377	1.0311852628887
19	28593	259.078606366659	5.777313827603
19	29212	264.855920194262	3.8241300435984
19	29624	268.68005023786	1.0357082743612
19	29743	269.715758512221	0.26316966398115
19	29777	269.978928176202	0.38418530690874
19	29836	270.363113483111	1.3612699648077
19	29991	271.724383447919	0.52880679650263
19	30051	272.253190244422	0.80244454183233
19	30154	273.055634786254	3.8903346208119
19	30567	276.945969407066	6.8840962401247
19	31371	283.830065647191	5.8473622088453
19	32050	289.677427856036	1.4959374712016
19	32212	291.173365327238	1.1057145618239
19	32328	292.279079889062	0.18792407155271
19	32350	292.467003960615	5.1902758037997
19	32882	297.657279764415	1.0749047640278
19	33025	298.732184528443	6.0647813445251
19	33689	304.796965872968	0.38609930094376
19	33726	305.183065173912	2.9590137058157
19	34023	308.142078879728	2.9766051554046
19	34415	311.118684035133	0.67718152381705
19	34492	311.79586555895	0.85514893511469
19	34593	312.651014494065	2.7200761101161
19	34881	315.371090604181	0.062732661922366
19	34884	315.433823266103	0.69883207266456
19	34967	316.132655338768	2.385181133819
19	35248	318.517836472587	2.8039968296847
19	35539	321.321833302272	1.4535775079383
19	35692	322.77541081021	1.42435250457
19	35819	324.19976331478	0.78544098605142
19	35910	324.985204300831	7.8907749628957
19	36818	332.875979263727	1.1027185913311
19	36909	333.978697855058	2.2782459864282
19	37169	336.256943841486	0.012488413431851
19	37170	336.269432254918	2.6023740564796
19	37381	338.871806311398	2.6183460870426
19	37692	341.490152398441	1.3000032202796
19	37834	342.790155618721	0.34670560612569
19	37877	343.136861224847	9.3780655698087
19	38757	352.514926794656	1.5142474713514
19	38958	354.029174266007	0.95408903114553
19	39046	354.983263297153	0.010096166126115
19	39054	354.993359463279	2.5927211391895
19	39392	357.586080602468	1.2540308182338
19	39519	358.840111420702	4.7659630419523
19	40097	363.606074462654	0.96726213682873
19	40229	364.573336599483	6.5567783010754
19	40829	371.130114900558	2.6745556932246
19	41066	373.804670593783	2.6370454481625
19	41360	376.441716041945	1.7737900363293
19	41517	378.215506078274	0.8557447298701
19	41601	379.071250808144	2.0973425869488
19	41816	381.168593395093	5.0902801999482
19	42381	386.258873595041	6.5053062352084
19	43137	392.764179830249	1.5439485343752
19	43298	394.308128364624	6.7221284408058
20	1325	12.644472388156	0.17500554275635
20	1343	12.819477930912	1.1089855512298
20	1501	13.928463482142	2.462798305437
20	1716	16.391261787579	4.437178084864
20	2139	20.828439872443	1.8486994340785
20	2319	22.677139306521	5.1651010403555
20	2948	27.842240346877	0.17687197822316
20	2991	28.0191123251	7.1590519759885
20	3793	35.178164301088	2.6703462281744
20	4022	37.848510529262	1.3310373197854
20	4127	39.179547849047	7.053840315703
20	4981	46.23338816475	1.808996400854
20	5259	48.042384565604	0.33590044749248
20	5282	48.378285013096	3.4547513472721
20	5709	51.833036360368	3.6399678930453
20	6120	55.473004253413	0.1335878455274
20	6134	55.60659209894	3.0942703449504
20	6540	58.70086244389	6.3498376952784
20	7173	65.050700139168	0.11306267726856
20	7199	65.163762816437	3.2999691623794
20	7533	68.463731978816	0.53252708191896
20	7600	68.996259060735	3.346230165813
20	7868	72.342489226548	1.0894399424758
20	7974	73.431929169024	1.0298863494315
20	8056	74.461815518456	3.7838520951274
20	8461	78.245667613583	0.77263685647039
20	8543	79.018304470053	4.6789288911124
20	9055	83.697233361165	0.027574679877446
20	9061	83.724808041042	3.1465038077383
20	9406	86.87131184878	0.17596310712394
20	9436	87.047274955904	0.64766684670803
20	9543	87.694941802612	4.6359711093047
20	10029	92.330912911917	1.001312270909
20	10159	93.332225182826	3.5819074619487
20	10683	96.914132644775	3.5518470703496
20	11021	100.465979715125	5.6582339136756
20	11671	106.124213628801	1.5558469911607
20	11893	107.680060619962	0.55511462772077
20	11941	108.235175247683	6.0672583850954
20	12656	114.302433632778	0.93200437307758
20	12763	115.234438005856	1.9862333951781
20	12980	117.220671401034	4.2513345425773
20	13437	121.472005943611	3.3471048256802
20	13749	124.819110769291	0.39548223982576
20	13836	125.214593009117	2.6483092067805
20	14090	127.862902215898	0.85972436395639
20	14188	128.722626579854	2.3951573204218
20	14499	131.117783900276	2.3986889093589
20	14758	133.516472809635	0.040846968757587
20	14764	133.557319778393	5.3845933815297
20	15397	138.941913159923	1.6451508653671
20	15597	140.58706402529	1.9575729029944
20	15840	142.544636928284	2.619367427608
20	16081	145.164004355892	0.010777865223353
20	16082	145.174782221115	1.6473198724969
20	16279	146.822102093612	3.0241476585746
20	16630	149.846249752187	0.67797162377792
20	16685	150.524221375965	2.5135395515769
20	16901	153.037760927542	0.13477882480132
20	16910	153.172539752343	0.60435885155437
20	16956	153.776898603897	0.14207758547813
20	16972	153.918976189375	0.23719680424557
20	17017	154.156172993621	2.2178253833654
20	17290	156.373998376986	3.6507019529649
20	17681	160.024700329951	0.55024361330715
20	17723	160.574943943258	0.018269218507542
20	17727	160.593213161766	0.98040413599579
20	17812	161.573617297762	0.29044927024872
20	17870	161.864066568011	7.0454867743121
20	18632	168.909553342323	1.9198412299208
20	18806	170.829394572244	0.27509887239923
20	18843	171.104493444643	0.043893478833019
20	18844	171.148386923476	0.054963788308561
20	18847	171.203350711785	1.2783197891357
20	18978	172.481670500921	0.72460883676316
20	19046	173.206279337684	0.87391809144863
20	19139	174.080197429133	1.9954767731954
20	19397	176.075674202328	1.5435425029048
20	19558	177.619216705233	1.3285607615903
20	19717	178.947777466823	0.45010319652937
20	19751	179.397880663352	6.5999589651607
20	20434	185.997839628513	5.6296840909974
20	21057	191.62752371951	4.6022744665877
20	21512	196.229798186098	0.98415565692696
20	21625	197.213953843025	1.218518092803
20	21734	198.432471935828	0.20455643559707
20	21764	198.637028371425	0.9501464090628
20	21877	199.587174780488	1.1696330259676
20	22015	200.756807806456	1.6192374270684
20	22229	202.376045233524	0.91697614642433
20	22321	203.293021379948	0.2699601306119
20	22344	203.56298151056	0.52926993471257
20	22392	204.092251445273	4.8173333087403
20	22995	208.909584754013	3.6085221407191
20	23337	212.518106894732	1.0458228409062
20	23430	213.563929735638	0.24832948792918
20	23473	213.812259223567	2.7786691937606
20	23785	216.590928417328	1.1048420147481
20	23906	217.695770432076	0.98698998553624
20	24041	218.682760417612	0.55033896681061
20	24091	219.233099384423	0.78255736599553
20	24178	220.015656750419	0.73777866458389
20	24248	220.753435415003	1.0580706806802
20	24348	221.811506095683	1.7300808049473
20	24546	223.54158690063	0.91733583472582
20	24643	224.458922735356	1.1057788233818
20	24737	225.564701558738	2.0682562500193
20	24947	227.632957808757	1.0211858721365
20	25054	228.654143680894	0.29104264042504
20	25089	228.945186321319	2.9827750856839
20	25450	231.927961407003	1.3858467896346
20	25618	233.313808196638	1.2000536360647
20	25807	234.513861832703	2.5519447322871
20	26086	237.06580656499	0.83199789613095
20	26191	237.897804461121	1.2350771405147
20	26311	239.132881601636	0.9889928359976
20	26400	240.121874437634	1.4542734312252
20	26561	241.576147868859	3.1553748997229
20	26940	244.731522768582	0.39367038877426
20	26986	245.125193157356	2.4890079326856
20	27230	247.614201090042	0.41171533473517
20	27271	248.025916424777	9.834279316949
20	28400	257.860195741726	1.3760610878877
20	28611	259.236256829614	1.624249965991
20	28778	260.860506795605	1.5280871999194
20	28901	262.388593995524	0.74870300240386
20	29001	263.137296997928	0.17363996352685
20	29019	263.310936961455	0.47288859304025
20	29063	263.783825554495	4.4516740781073
20	29575	268.235499632602	3.6949343970353
20	30007	271.930434029637	1.6776665662991
20	30233	273.608100595936	5.1694276169107
20	30765	278.777528212847	0.83527115144573
20	30829	279.612799364293	1.5423012984772
20	31051	281.15510066277	1.3243209278338
20	31213	282.479421590604	4.1896288819137
20	31667	286.669050472518	1.8711829458639
20	31868	288.540233418382	0.94088926417777
20	32032	289.48112268256	5.1898734451894
20	32612	294.670996127749	4.8431849191288
20	33106	299.514181046878	0.1983620837033
20	33118	299.712543130581	1.6360177133819
20	33327	301.348560843963	8.5543407197157
20	34259	309.902901563679	4.0863211780758
20	34760	313.989222741755	0.56986040104298
20	34813	314.559083142798	4.1966731457943
20	35255	318.755756288592	1.05855953484
20	35371	319.814315823432	1.3084503742656
20	35501	321.122766197698	0.63060183706468
20	35588	321.753368034763	0.24800415675455
20	35604	322.001372191518	2.4771543658281
20	35852	324.478526557346	3.1982077502888
20	36220	327.676734307635	5.4947360669421
20	36845	333.171470374577	0.52609802764511
20	36901	333.697568402222	1.7934819330472
20	37077	335.491050335269	0.098440931734751
20	37090	335.589491267004	1.0595271763659
20	37211	336.64901844337	5.863325200789
20	37806	342.512343644159	4.5208101268645
20	38302	347.033153771024	1.0349561151101
20	38407	348.068109886134	0.6927732471746
20	38431	348.760883133309	1.811450438459
20	38593	350.572333571768	2.196938060172
20	38801	352.76927163194	7.3351901184076
20	39644	360.104461750348	1.6544840011253
20	39861	361.758945751473	0.701717149857
20	39981	362.46066290133	2.4751245661044
20	40263	364.935787467434	1.0036408952133
20	40306	365.939428362647	0.64932136547084
20	40339	366.588749728118	6.0469218700318
20	40978	372.63567159815	1.8707843768996
20	41134	374.50645597505	0.11544456715123
20	41142	374.621900542201	0.064650659790399
20	41152	374.686551201991	0.37088957362112
20	41190	375.057440775612	1.231456449891
20	41339	376.288897225503	0.74112563358718
20	41424	377.03002285909	0.89188026146965
20	41491	377.92190312056	3.9943236059317
20	41926	381.916226726492	5.7909970783285
20	42575	387.707223804821	4.0099481717846
20	42997	391.717171976606	2.116750067359
20	43249	393.833922043965	1.6590624830802
20	43490	395.492984527045	0.52998899676937
20	43519	396.022973523814	2.222160065853
20	43747	398.245133589667	1.8906244046907
21	1489	13.851469025302	0.075577795322932
21	1500	13.927046820625	3.7559794134465
21	1815	17.683026234071	0.43750216139251
21	1853	18.120528395464	0.62474377042203
21	1916	18.745272165886	1.6091322746818
21	2054	20.354404440568	4.9217080440561
21	2680	25.276112484624	1.0052691408359
21	2790	26.28138162546	1.1051866754814
21	2922	27.386568300941	0.28465132508645
21	2932	27.671219626027	3.2391507616951
21	3329	30.910370387722	4.96417054203
21	3862	35.874540929752	0.52468926504005
21	3883	36.399230194792	0.057172818837283
21	3884	36.456403013629	0.22298577844128
21	3911	36.67938879207	2.7168546750811
21	4145	39.396243467151	0.13250691339709
21	4162	39.528750380548	7.9695684415344
21	5190	47.498318822082	8.4463041377703
21	6182	55.944622959852	0.034909162432688
21	6188	55.979532122285	3.4208666984977
21	6606	59.400398820783	4.102228240904
21	6992	63.502627061687	1.1543250023761
21	7096	64.656952064063	3.243096787613
21	7462	67.900048851676	1.3024096741187
21	7613	69.202458525795	0.39525242724825
21	7633	69.597710953043	0.075734963045762
21	7640	69.673445916089	5.8605129803471
21	8202	75.533958896436	0.46357490282749
21	8227	75.997533799263	7.9386892179074
21	9083	83.93622301717	0.72615106166129
21	9163	84.662374078831	0.009762404527067
21	9164	84.672136483358	0.31969162118534
21	9181	84.991828104543	0.081910202109573
21	9186	85.073738306653	6.4200846168774
21	9946	91.49382292353	0.46632797975275
21	10006	91.960150903283	0.98594900003859
21	10085	92.946099903322	0.77337963588228
21	10211	93.719479539204	1.0786524980121
21	10364	94.798132037216	0.9162367498361
21	10515	95.714368787052	2.4881810872076
21	10821	98.20254987426	5.3395968875964
21	11373	103.542146761856	0.092368647401006
21	11383	103.634515409257	14.89021065853
21	13134	118.524726067787	0.87847904539322
21	13217	119.40320511318	1.8964811603263
21	13421	121.299686273506	3.3263359168604
21	13736	124.626022190366	1.6509259153952
21	13956	126.276948105761	3.3367568024693
21	14308	129.61370490823	14.474471835242
21	16006	144.088176743472	0.37786956539636
21	16034	144.466046308868	3.3520792888821
21	16396	147.81812559775	3.3536567233585
21	16743	151.171782321109	6.2630029850003
21	17394	157.434785306109	0.10607120750096
21	17413	157.54085651361	0.22106364866142
21	17451	157.761920162271	0.56685688000494
21	17496	158.328777042276	3.7129064496596
21	17879	162.041683491936	1.1215701930135
21	18040	163.163253684949	1.3419955552364
21	18130	164.505249240185	0.46522393948627
21	18170	164.970473179671	4.4156086629225
21	18677	169.386081842593	4.2749465597372
21	19084	173.66102840233	0.67693039281415
21	19153	174.337958795144	0.53132578862677
21	19212	174.869284583771	4.2082500432461
21	19728	179.077534627017	1.7758306454899
21	19893	180.853365272507	2.8785548753427
21	20179	183.73192014785	8.8826673895874
21	21167	192.614587537437	2.5569591548334
21	21425	195.17154669227	2.3365224565881
21	21647	197.508069148858	0.28587394081669
21	21674	197.793943089675	1.5617550229398
21	21849	199.355698112615	0.34039175552364
21	21889	199.696089868139	1.6147024870377
21	22080	201.310792355177	0.68619634042369
21	22190	201.996988695601	2.0650550168872
21	22391	204.062043712488	0.91487547742514
21	22463	204.976919189913	3.9351800047186
21	22997	208.912099194632	3.357372905814
21	23310	212.269472100446	2.2617891817894
21	23534	214.531261282235	3.8743388986237
21	24000	218.405600180859	0.96415117614032
21	24108	219.369751356999	0.40278576719805
21	24157	219.772537124197	0.53624507083311
21	24201	220.30878219503	1.5849163259327
21	24366	221.893698520963	2.1719954931969
21	24610	224.06569401416	0.71442287578717
21	24662	224.780116889947	1.4010162835744
21	24823	226.181133173521	2.5106447605023
21	25055	228.691777934023	2.8587847441886
21	25422	231.550562678212	0.93393234168239
21	25513	232.484495019894	1.7929440260203
21	25770	234.277439045914	0.11377283863288
21	25786	234.391211884547	0.83386355294504
21	25908	235.225075437492	1.9887987737848
21	26111	237.213874211277	3.769963625073
21	26491	240.98383783635	1.3843395384261
21	26694	242.368177374776	0.22859513604858
21	26718	242.596772510825	1.1853770975517
21	26848	243.782149608377	2.9444992645873
21	27138	246.726648872964	0.67717792801092
21	27201	247.403826800975	1.0789444758434
21	27336	248.482771276818	5.1435012538422
21	27940	253.62627253066	4.370781362247
21	28422	257.997053892907	2.8048957068839
21	28767	260.801949599791	0.80936544080119
21	28848	261.611315040592	1.0907227886035
21	28925	262.702037829196	0.95259631612197
21	29060	263.654634145318	3.3877415185858
21	29454	267.042375663904	0.2733454730347
21	29497	267.315721136939	1.8738736584407
21	29693	269.18959479538	0.32486479475554
21	29728	269.514459590136	2.0921392983939
21	29984	271.60659888853	0.70263642536404
21	30058	272.309235313894	2.3013704328897
21	30332	274.610605746784	3.0173082081561
21	30644	277.62791395494	0.071859365717605
21	30651	277.699773320658	0.52202147225679
21	30714	278.221794792915	0.21419048273265
21	30731	278.435985275648	5.4075434465295
21	31372	283.843528722177	3.6086190006813
21	31713	287.452147722858	2.0209471330935
21	32030	289.473094855952	0.84831150607856
21	32109	290.321406362031	1.4421551718097
21	32271	291.763561533841	4.2175937186739
21	32745	295.981155252515	0.082553733382835
21	32747	296.063708985898	1.2250360688887
21	32839	297.288745054787	1.218798284939
21	32986	298.507543339726	0.70456172464816
21	33076	299.212105064374	2.6058370461639
21	33398	301.817942110538	0.036576595025527
21	33409	301.854518705564	1.1184627668119
21	33512	302.972981472376	0.87992134682644
21	33575	303.852902819202	0.38333708004037
21	33639	304.236239899242	0.55965074769028
21	33688	304.795890646932	0.0053355195257059
21	33690	304.801226166458	2.7994462452886
21	33978	307.600672411747	4.3257133375024
21	34521	311.926385749249	0.40316474591079
21	34572	312.32955049516	0.93319742867147
21	34678	313.262747923831	1.9419836961664
21	34869	315.204731619997	0.34818940816868
21	34896	315.552921028166	3.9879046221978
21	35339	319.540825650364	0.43324743428553
21	35402	319.97407308465	0.810480625611
21	35478	320.784553710261	1.0510319394057
21	35589	321.835585649667	1.9771837890863
21	35761	323.812769438753	1.9162728133051
21	36015	325.729042252058	0.98900949633357
21	36133	326.718051748392	0.168215013673
21	36134	326.886266762065	1.3600300243596
21	36271	328.246296786425	2.0249152976613
21	36538	330.271212084086	2.4913864411959
21	36812	332.762598525282	0.58486844252053
21	36861	333.347466967803	0.30944826861192
21	36898	333.656915236415	0.1260000254356
21	36903	333.782915261851	2.6632795587931
21	37204	336.446194820644	2.9199796960894
21	37406	339.366174516733	2.8706824023197
21	37774	342.236856919053	0.44396558695406
21	37828	342.680822506007	0.42592812607207
21	37876	343.106750632079	0.21838386460996
21	37904	343.325134496689	0.60412904886415
21	37964	343.929263545553	3.9874260774748
21	38384	347.916689623028	1.7902850291879
21	38513	349.706974652216	4.4010867783639
21	38959	354.10806143058	0.048640251332568
21	38965	354.156701681913	1.1603770904527
21	39101	355.317078772366	0.83104252903784
21	39211	356.148121301404	0.83949218826952
21	39298	356.987613489674	2.4467189352435
21	39584	359.434332424918	0.090749287833125
21	39590	359.525081712751	0.39815647771218
21	39619	359.923238190463	1.8226738633578
21	39857	361.745912053821	2.4179125234794
21	40171	364.1638245773	0.35127104001378
21	40210	364.515095617314	9.4270626653603
21	41078	373.942158282674	6.1339731577789
21	41692	380.076131440453	1.4692892396161
21	41849	381.545420680069	1.4664729389281
21	42076	383.011893618997	2.3754364495081
21	42302	385.387330068505	1.4899290227466
21	42477	386.877259091252	0.27672147727842
21	42514	387.15398056853	1.7262850299023
21	42734	388.880265598432	0.17352778341859
21	42748	389.053793381851	0.44889740479743
21	42783	389.502690786648	0.28068359009164
21	42800	389.78337437674	6.6046972492982
21	43553	396.388071626038	0.012084888937205
21	43557	396.400156514975	3.0508344641009
21	43870	399.450990979076	0.25072500916736
21	43917	399.701715988243	3.7255637853294

