file 4273166 1614185368                                         
version 2
run Nonmonitoring-exponential-491-20210224-17:49:28-27036
attr configname Nonmonitoring-exponential
attr datetime 20210224-17:49:28
attr experiment Nonmonitoring-exponential
attr inifile aerocom.ini
attr iterationvars $0=20
attr iterationvarsf 20-
attr measurement $0=20
attr network Aerocom
attr processid 27036
attr repetition 91
attr replication #91
attr resultdir results
attr runnumber 491
attr seedset 91
param **.t 2s
param **.k 20ms
param **.X 0.05s
param **.m 1s
param **.tDistribution "\"exponential\""
param **.operationMode 1
param **.s "70 byte"
param **.dimPoolMax 10000
param **.dimPoolMin 8000
param **.nDL 16
param **.nA 1
param **.DLMaxCapacity 0
param **.trasmitting false

vector 0 Aerocom.aircraft[0].linkSelector responseTime:vector ETV
attr "" ""
attr source computeResponseTime
vector 1 Aerocom.aircraft[0].packetGenerator arrivalTime:vector ETV
attr "" ""
attr source computeArrivalTime
vector 2 Aerocom.aircraft[0].linkSelector waitingTime:vector ETV
attr "" ""
attr source computeWaitingTime
vector 3 Aerocom.aircraft[0].linkSelector queueLength:vector ETV
attr "" ""
attr source computeQueueLength
vector 4 Aerocom.aircraft[0].dataLink[5] actualCapacity:vector ETV
attr "" ""
attr source computeActualCapacity
vector 5 Aerocom.aircraft[0].linkSelector serviceTime:vector ETV
attr "" ""
attr source computeServiceTime
vector 6 Aerocom.aircraft[0].dataLink[13] tDistribution:vector ETV
attr "" ""
attr source computeTDistribution
vector 7 Aerocom.aircraft[0].dataLink[14] tDistribution:vector ETV
attr "" ""
attr source computeTDistribution
vector 8 Aerocom.aircraft[0].dataLink[3] tDistribution:vector ETV
attr "" ""
attr source computeTDistribution
vector 9 Aerocom.aircraft[0].dataLink[10] tDistribution:vector ETV
attr "" ""
attr source computeTDistribution
vector 10 Aerocom.aircraft[0].dataLink[12] tDistribution:vector ETV
attr "" ""
attr source computeTDistribution
vector 11 Aerocom.aircraft[0].dataLink[4] tDistribution:vector ETV
attr "" ""
attr source computeTDistribution
vector 12 Aerocom.aircraft[0].dataLink[15] tDistribution:vector ETV
attr "" ""
attr source computeTDistribution
vector 13 Aerocom.aircraft[0].dataLink[7] tDistribution:vector ETV
attr "" ""
attr source computeTDistribution
vector 14 Aerocom.aircraft[0].dataLink[11] tDistribution:vector ETV
attr "" ""
attr source computeTDistribution
vector 15 Aerocom.aircraft[0].dataLink[2] tDistribution:vector ETV
attr "" ""
attr source computeTDistribution
vector 16 Aerocom.aircraft[0].dataLink[8] tDistribution:vector ETV
attr "" ""
attr source computeTDistribution
vector 17 Aerocom.aircraft[0].dataLink[1] tDistribution:vector ETV
attr "" ""
attr source computeTDistribution
vector 18 Aerocom.aircraft[0].dataLink[0] tDistribution:vector ETV
attr "" ""
attr source computeTDistribution
vector 19 Aerocom.aircraft[0].dataLink[6] tDistribution:vector ETV
attr "" ""
attr source computeTDistribution
vector 20 Aerocom.aircraft[0].dataLink[5] tDistribution:vector ETV
attr "" ""
attr source computeTDistribution
vector 21 Aerocom.aircraft[0].dataLink[9] tDistribution:vector ETV
attr "" ""
attr source computeTDistribution
0	3133 777603 2725 104193 10.005404508645 399.999481029032 19678 0.007014028056 0.045441506398 203.77559756765 2.4954105821205
1	780736 777376 2728 104188 10.006104883736 399.982947231552 19677 2.70793e-07 0.216843706405 390.06406746438 15.530486959647
2	1558112 623788 2729 104190 10.006104883736 399.991147695699 19677 0 0.036887186466 49.518287305361 0.50045683268532
3	2181900 523906 2729 104190 10.006104883736 399.991147695699 19677 0 4 2459 3533
4	2705806 582937 2729 104190 10.006104883736 399.991147695699 19677 8050 9980 176223694 1582808668622
5	3288743 855756 2729 104190 10.006104883736 399.991147695699 19677 0.0070140280561122 0.008695652173913 154.24754491697 1.2126865780062
6	4144499 7734 2738 103919 10.051244140671 398.881622781729 189 0.041755080309986 13.931525195822 390.65754838648 1600.3116655545
7	4152233 7833 2905 102491 10.570554162264 393.461029862154 192 0.018918057856171 11.790285243473 391.32594906307 1556.1541460019
8	4160066 7844 2921 103824 10.62693823241 398.480778124263 191 0.010837955769049 17.76951236902 394.9956247799 1766.5517727383
9	4167910 7541 2954 103857 10.765615749513 398.685105574353 184 0.001339657836626 15.843177953839 392.2927132764 1847.4089261237
10	4175451 7600 3187 104088 11.71503762937 399.656351452064 181 0.018320834419305 12.684672990814 389.75255962186 1622.8796989907
11	4183051 8312 3205 103858 11.755186839678 398.693042902286 198 0.018358895281492 9.7090740137458 390.04750407544 1457.7169410739
12	4191363 8665 3273 103584 11.949776815039 397.662402762976 206 0.0014564966000876 12.576115893729 388.71399839073 1517.7758878177
13	4200028 8937 3315 103856 12.138168594872 398.633256899914 212 0.0063651363585766 13.680773466313 388.57699175869 1471.1298060807
14	4208965 8460 3336 104151 12.223492327402 399.845957792879 202 0.025292761560027 9.8356838476984 392.68452939494 1499.7323411176
15	4217425 8421 3507 103635 12.756039490153 397.875756521993 200 0.027023921142983 10.894678172921 390.92763767227 1527.0946680461
16	4225846 7531 3659 104180 13.196828793024 399.918243662818 180 0.018596498677236 13.03666960984 386.92702826858 1662.6861167268
17	4233377 7878 3747 103661 13.483088035721 397.949064334435 188 0.017150104675728 10.480642400861 386.86439158997 1497.9243898783
18	4241255 7904 3818 103677 13.6469098424 397.98073576873 188 0.0079038327073994 13.413930096262 386.93584189794 1656.9543874897
19	4249159 7957 3923 102294 14.089363459273 392.687384268634 190 0.010967477662809 11.676016570627 387.52941669975 1684.5578574872
20	4257116 8068 4286 103493 15.338338570782 397.111598357064 192 0.011168463101257 11.368596218897 389.56476528223 1586.1688201044
21	4265184 7981 4566 103551 16.366081184591 397.357947522918 190 0.0012394047948041 13.305087131927 384.86827342807 1529.0791019407

