version 2
run Nonmonitoring-exponential-565-20210224-17:49:33-27085
attr configname Nonmonitoring-exponential
attr datetime 20210224-17:49:33
attr experiment Nonmonitoring-exponential
attr inifile aerocom.ini
attr iterationvars $0=50
attr iterationvarsf 50-
attr measurement $0=50
attr network Aerocom
attr processid 27085
attr repetition 65
attr replication #65
attr resultdir results
attr runnumber 565
attr seedset 65
param **.t 2s
param **.k 50ms
param **.X 0.05s
param **.m 1s
param **.tDistribution "\"exponential\""
param **.operationMode 1
param **.s "70 byte"
param **.dimPoolMax 10000
param **.dimPoolMin 8000
param **.nDL 16
param **.nA 1
param **.DLMaxCapacity 0
param **.trasmitting false

vector 0 Aerocom.aircraft[0].packetGenerator arrivalTime:vector ETV
attr "" ""
attr source computeArrivalTime
vector 1 Aerocom.aircraft[0].linkSelector waitingTime:vector ETV
attr "" ""
attr source computeWaitingTime
vector 2 Aerocom.aircraft[0].linkSelector queueLength:vector ETV
attr "" ""
attr source computeQueueLength
vector 3 Aerocom.aircraft[0].dataLink[8] actualCapacity:vector ETV
attr "" ""
attr source computeActualCapacity
vector 4 Aerocom.aircraft[0].linkSelector serviceTime:vector ETV
attr "" ""
attr source computeServiceTime
vector 5 Aerocom.aircraft[0].linkSelector responseTime:vector ETV
attr "" ""
attr source computeResponseTime
vector 6 Aerocom.aircraft[0].dataLink[9] tDistribution:vector ETV
attr "" ""
attr source computeTDistribution
vector 7 Aerocom.aircraft[0].dataLink[14] tDistribution:vector ETV
attr "" ""
attr source computeTDistribution
vector 8 Aerocom.aircraft[0].dataLink[2] tDistribution:vector ETV
attr "" ""
attr source computeTDistribution
vector 9 Aerocom.aircraft[0].dataLink[4] tDistribution:vector ETV
attr "" ""
attr source computeTDistribution
vector 10 Aerocom.aircraft[0].dataLink[13] tDistribution:vector ETV
attr "" ""
attr source computeTDistribution
vector 11 Aerocom.aircraft[0].dataLink[11] tDistribution:vector ETV
attr "" ""
attr source computeTDistribution
vector 12 Aerocom.aircraft[0].dataLink[12] tDistribution:vector ETV
attr "" ""
attr source computeTDistribution
vector 13 Aerocom.aircraft[0].dataLink[15] tDistribution:vector ETV
attr "" ""
attr source computeTDistribution
vector 14 Aerocom.aircraft[0].dataLink[6] tDistribution:vector ETV
attr "" ""
attr source computeTDistribution
vector 15 Aerocom.aircraft[0].dataLink[7] tDistribution:vector ETV
attr "" ""
attr source computeTDistribution
vector 16 Aerocom.aircraft[0].dataLink[1] tDistribution:vector ETV
attr "" ""
attr source computeTDistribution
vector 17 Aerocom.aircraft[0].dataLink[3] tDistribution:vector ETV
attr "" ""
attr source computeTDistribution
vector 18 Aerocom.aircraft[0].dataLink[8] tDistribution:vector ETV
attr "" ""
attr source computeTDistribution
vector 19 Aerocom.aircraft[0].dataLink[10] tDistribution:vector ETV
attr "" ""
attr source computeTDistribution
vector 20 Aerocom.aircraft[0].dataLink[5] tDistribution:vector ETV
attr "" ""
attr source computeTDistribution
vector 21 Aerocom.aircraft[0].dataLink[0] tDistribution:vector ETV
attr "" ""
attr source computeTDistribution
0	1120	10.000519135614	0.089124041002
0	1125	10.089643176616	0.010737263834
0	1130	10.10038044045	0.057023604091
0	1137	10.157404044541	0.128585246264
0	1142	10.285989290805	0.00521842295
0	1144	10.291207713755	0.014531458303
0	1152	10.305739172058	0.080151224385
0	1157	10.385890396443	0.036280947278
0	1163	10.422171343721	0.004612489784
0	1165	10.426783833505	0.010066913377
0	1170	10.436850746882	0.009712862748
0	1178	10.44656360963	0.000996844642
0	1180	10.447560454272	0.229380581354
0	1190	10.676941035626	0.026174109938
0	1195	10.703115145564	0.196819449026
0	1200	10.89993459459	0.019587503819
0	1205	10.919522098409	0.01682373695
0	1210	10.936345835359	0.039625893483
0	1215	10.975971728842	0.010574916339
0	1220	10.986546645181	0.202689833296
0	1226	11.189236478477	0.049911320309
0	1231	11.239147798786	0.02304623124
0	1236	11.262194030026	0.191906888232
0	1241	11.454100918258	0.024304384222
0	1246	11.47840530248	0.020821034625
0	1251	11.499226337105	0.005190303549
0	1253	11.504416640654	0.034971236417
0	1261	11.539387877071	0.001496797621
0	1263	11.540884674692	0.015570109992
0	1271	11.556454784684	0.067019407418
0	1276	11.623474192102	0.097551599045
0	1281	11.721025791147	0.017964394318
0	1286	11.738990185465	0.000138254299
0	1288	11.739128439764	0.059291692292
0	1297	11.798420132056	0.097427813575
0	1303	11.895847945631	0.018537477896
0	1308	11.914385423527	0.074305076298
0	1313	11.988690499825	0.094593731335
0	1319	12.08328423116	0.087337828503
0	1326	12.170622059663	0.039942860568
0	1331	12.210564920231	0.042628760089
0	1336	12.25319368032	0.072190963686
0	1341	12.325384644006	0.015815079899
0	1346	12.341199723905	0.047340481605
0	1354	12.38854020551	0.103285947617
0	1360	12.491826153127	0.041182016548
0	1365	12.533008169675	0.014337031009
0	1370	12.547345200684	0.039063798134
0	1375	12.586408998818	0.028822320199
0	1380	12.615231319017	0.114282586426
0	1388	12.729513905443	0.031816108862
0	1393	12.761330014305	0.033987408789
0	1398	12.795317423094	0.086882592336
0	1404	12.88220001543	0.011892659913
0	1409	12.894092675343	0.001877959773
0	1411	12.895970635116	0.065899368217
0	1420	12.961870003333	0.07686657805
0	1426	13.038736581383	0.115701405145
0	1433	13.154437986528	0.014955547726
0	1438	13.169393534254	0.028467691589
0	1444	13.197861225843	0.011951227648
0	1450	13.209812453491	0.056565480845
0	1455	13.266377934336	0.0139199773
0	1460	13.280297911636	0.00492801824
0	1462	13.285225929876	0.039025170173
0	1471	13.324251100049	0.026059647025
0	1477	13.350310747074	0.01581013404
0	1483	13.366120881114	0.053915091482
0	1489	13.420035972596	0.022628385266
0	1494	13.442664357862	0.020778737179
0	1499	13.463443095041	0.004098141898
0	1501	13.467541236939	0.065003428019
0	1510	13.532544664958	0.103028543712
0	1516	13.63557320867	0.024596391649
0	1521	13.660169600319	0.058044706111
0	1527	13.71821430643	0.077248227907
0	1534	13.795462534337	0.101382882033
0	1539	13.89684541637	0.040773302782
0	1544	13.937618719152	0.010389746562
0	1549	13.948008465714	0.067110908706
0	1555	14.01511937442	0.11340268204
0	1560	14.12852205646	0.097187061534
0	1565	14.225709117994	0.036197498619
0	1570	14.261906616613	0.012262354168
0	1575	14.274168970781	0.02851454558
0	1581	14.302683516361	0.038495206368
0	1586	14.341178722729	0.082323033908
0	1591	14.423501756637	0.006429527257
0	1593	14.429931283894	0.05496773966
0	1601	14.484899023554	0.101857127528
0	1606	14.586756151082	0.012363892907
0	1611	14.599120043989	0.06707964403
0	1617	14.666199688019	0.020355211507
0	1622	14.686554899526	0.055367320267
0	1627	14.741922219793	0.008444664442
0	1632	14.750366884235	0.047171852959
0	1637	14.797538737194	0.005791594711
0	1639	14.803330331905	0.010778191917
0	1647	14.814108523822	0.035428446168
0	1652	14.84953696999	0.036385073717
0	1658	14.885922043707	0.07963388612
0	1663	14.965555929827	0.038876890144
0	1668	15.004432819971	0.009852157949
0	1673	15.01428497792	0.031835658485
0	1678	15.046120636405	0.063451124529
0	1684	15.109571760934	0.056038327948
0	1690	15.165610088882	0.012168979986
0	1695	15.177779068868	0.029304023791
0	1700	15.207083092659	0.010770615839
0	1705	15.217853708498	0.111823359343
0	1712	15.329677067841	0.02891866645
0	1717	15.358595734291	0.009015370908
0	1722	15.367611105199	0.01211488603
0	1727	15.379725991229	0.023478332827
0	1732	15.403204324056	0.013478711236
0	1737	15.416683035292	0.002135817155
0	1739	15.418818852447	0.048190520284
0	1747	15.467009372731	0.036293038884
0	1752	15.503302411615	0.0259161789
0	1757	15.529218590515	0.054367359264
0	1762	15.583585949779	0.020677101352
0	1767	15.604263051131	0.122571772416
0	1774	15.726834823547	0.026155278358
0	1779	15.752990101905	0.008270597681
0	1784	15.761260699586	0.0124848562
0	1789	15.773745555786	0.037343534927
0	1794	15.811089090713	0.07258829682
0	1799	15.883677387533	0.012495714068
0	1804	15.896173101601	0.000687394671
0	1806	15.896860496272	0.003172451703
0	1808	15.900032947975	0.066863777183
0	1819	15.966896725158	0.002093724776
0	1821	15.968990449934	0.025241549453
0	1829	15.994231999387	0.016073752703
0	1834	16.01030575209	0.005464306618
0	1836	16.015770058708	0.126264607314
0	1845	16.142034666022	0.011312434588
0	1850	16.15334710061	0.021221351519
0	1855	16.174568452129	0.141542552233
0	1862	16.316111004362	0.175011856451
0	1870	16.491122860813	0.114036178171
0	1875	16.605159038984	0.018494638763
0	1880	16.623653677747	0.060227366838
0	1885	16.683881044585	0.225591365564
0	1892	16.909472410149	0.041238732879
0	1899	16.950711143028	0.108391514794
0	1905	17.059102657822	0.068966141427
0	1911	17.128068799249	0.147571728285
0	1917	17.275640527534	0.008081971285
0	1922	17.283722498819	0.01352025444
0	1927	17.297242753259	0.027123455766
0	1932	17.324366209025	0.030750888975
0	1937	17.355117098	0.03819904634
0	1942	17.39331614434	0.041369887205
0	1947	17.434686031545	0.042547197686
0	1952	17.477233229231	0.080002563667
0	1957	17.557235792898	0.01350666827
0	1962	17.570742461168	0.003203514873
0	1964	17.573945976041	0.007439946881
0	1969	17.581385922922	0.132407766723
0	1978	17.713793689645	0.001783809945
0	1980	17.71557749959	0.207027987448
0	1992	17.922605487038	0.003417468006
0	1994	17.926022955044	0.014115288872
0	2002	17.940138243916	0.064658973321
0	2007	18.004797217237	0.046862288612
0	2014	18.051659505849	0.016882428277
0	2019	18.068541934126	0.00711890741
0	2021	18.075660841536	0.023392992897
0	2029	18.099053834433	0.084580244262
0	2034	18.183634078695	0.025948854607
0	2039	18.209582933302	0.076858826978
0	2044	18.28644176028	0.036980061855
0	2049	18.323421822135	0.242574711701
0	2055	18.565996533836	0.00118940809
0	2057	18.567185941926	0.040277609213
0	2066	18.607463551139	0.031514855606
0	2071	18.638978406745	0.026005090191
0	2077	18.664983496936	0.000705697574
0	2079	18.66568919451	0.033667568464
0	2088	18.699356762974	0.036171693832
0	2093	18.735528456806	0.034890563402
0	2098	18.770419020208	0.04746121438
0	2103	18.817880234588	0.108668815069
0	2108	18.926549049657	0.046311347927
0	2113	18.972860397584	0.037335882027
0	2118	19.010196279611	0.029976583118
0	2123	19.040172862729	0.005190160827
0	2125	19.045363023556	0.002489384618
0	2127	19.047852408174	0.026402049007
0	2138	19.074254457181	0.037547452414
0	2144	19.111801909595	0.062733937579
0	2149	19.174535847174	0.076923875056
0	2154	19.25145972223	0.017299608979
0	2159	19.268759331209	0.000542049704
0	2161	19.269301380913	0.021021329927
0	2169	19.29032271084	0.123410159447
0	2175	19.413732870287	0.043911559305
0	2180	19.457644429592	0.053057289432
0	2185	19.510701719024	0.052109584182
0	2192	19.562811303206	0.006530953646
0	2194	19.569342256852	0.005429314349
0	2199	19.574771571201	0.045313034183
0	2208	19.620084605384	0.091371594406
0	2213	19.71145619979	0.045447057456
0	2218	19.756903257246	0.045723581554
0	2223	19.8026268388	0.00907203692
0	2228	19.81169887572	0.027296215596
0	2234	19.838995091316	0.025664848945
0	2240	19.864659940261	0.037336259337
0	2246	19.901996199598	0.005401171519
0	2248	19.907397371117	0.105319773753
0	2256	20.01271714487	0.053571395361
0	2262	20.066288540231	0.025908199318
0	2267	20.092196739549	0.027280951523
0	2272	20.119477691072	0.03592682516
0	2277	20.155404516232	0.135077092191
0	2283	20.290481608423	0.014575991859
0	2289	20.305057600282	0.014835922603
0	2294	20.319893522885	0.068622397684
0	2300	20.388515920569	0.001321158769
0	2302	20.389837079338	0.030061380036
0	2310	20.419898459374	0.132340068112
0	2316	20.552238527486	0.129115873664
0	2324	20.68135440115	0.10300057749
0	2330	20.78435497864	0.051881692231
0	2335	20.836236670871	0.00408690742
0	2337	20.840323578291	0.045683319199
0	2346	20.88600689749	0.21759429123
0	2354	21.10360118872	0.005296429712
0	2356	21.108897618432	0.003634229619
0	2361	21.112531848051	0.003921129006
0	2363	21.116452977057	0.046884638781
0	2374	21.163337615838	0.100824586712
0	2381	21.26416220255	0.081566976884
0	2387	21.345729179434	0.093044573438
0	2393	21.438773752872	0.023199252211
0	2398	21.461973005083	0.216881486126
0	2404	21.678854491209	0.014726315668
0	2409	21.693580806877	0.013317007486
0	2415	21.706897814363	0.022583675277
0	2420	21.72948148964	0.051194909883
0	2425	21.780676399523	0.000326652322
0	2427	21.781003051845	0.071909421254
0	2436	21.852912473099	0.008263144297
0	2441	21.861175617396	0.008590621204
0	2446	21.8697662386	0.002466337264
0	2448	21.872232575864	0.038833412661
0	2456	21.911065988525	0.015785236864
0	2461	21.926851225389	0.112742245825
0	2467	22.039593471214	0.04440210972
0	2472	22.083995580934	0.031007103861
0	2477	22.115002684795	0.123057042251
0	2484	22.238059727046	0.069617506233
0	2489	22.307677233279	0.055325774995
0	2494	22.363003008274	0.080370470443
0	2501	22.443373478717	0.065501836221
0	2507	22.508875314938	0.034072364554
0	2513	22.542947679492	0.000690964579
0	2515	22.543638644071	0.252608286686
0	2523	22.796246930757	0.006151288691
0	2525	22.802398219448	0.028670607241
0	2533	22.831068826689	0.062998455606
0	2540	22.894067282295	0.059985718429
0	2547	22.954053000724	0.091052295501
0	2552	23.045105296225	0.247582544644
0	2559	23.292687840869	0.000876544838
0	2561	23.293564385707	0.079786476847
0	2569	23.373350862554	0.096150643224
0	2575	23.469501505778	0.027545360675
0	2580	23.497046866453	0.001345844152
0	2582	23.498392710605	0.026204469583
0	2590	23.524597180188	0.009463208043
0	2595	23.534060388231	0.035966695267
0	2600	23.570027083498	0.057963004821
0	2605	23.627990088319	0.065916629727
0	2610	23.693906718046	0.003160712886
0	2612	23.697067430932	0.037043389001
0	2620	23.734110819933	0.032021309329
0	2625	23.766132129262	0.025136743657
0	2630	23.791268872919	0.108167255954
0	2636	23.899436128873	0.019609291777
0	2641	23.91904542065	0.018704008328
0	2646	23.937749428978	0.047084310474
0	2651	23.984833739452	0.02671533516
0	2657	24.011549074612	0.005795188713
0	2659	24.017344263325	0.001204563939
0	2661	24.018548827264	0.077370577165
0	2673	24.095919404429	0.044606296114
0	2678	24.140525700543	0.015631882477
0	2683	24.15615758302	0.04295074488
0	2688	24.1991083279	0.033946294295
0	2693	24.233054622195	0.015978898651
0	2698	24.249033520846	0.001085923902
0	2700	24.250119444748	0.071033382042
0	2708	24.32115282679	0.002354949397
0	2710	24.323507776187	0.10946344624
0	2718	24.432971222427	0.048798679795
0	2723	24.481769902222	0.040085571344
0	2729	24.521855473566	0.136580486474
0	2734	24.65843596004	0.01435120255
0	2739	24.67278716259	0.19782008048
0	2745	24.87060724307	0.11373450113
0	2751	24.9843417442	0.129849670915
0	2757	25.114191415115	0.002130268442
0	2759	25.116321683557	0.022225717419
0	2767	25.138547400976	0.007479811205
0	2769	25.146027212181	0.03321125762
0	2777	25.179238469801	0.013545719478
0	2782	25.192784189279	0.02644612943
0	2787	25.219230318709	0.003323967456
0	2789	25.222554286165	0.078713180129
0	2798	25.301267466294	0.023744640437
0	2803	25.325012106731	0.208882480821
0	2808	25.533894587552	0.078302304029
0	2813	25.612196891581	0.247293387956
0	2818	25.859490279537	0.005251157635
0	2820	25.864741437172	0.005751362313
0	2825	25.870492799485	0.11174469893
0	2835	25.982237498415	0.03166303431
0	2840	26.013900532725	0.005515589647
0	2842	26.019416122372	0.068236561082
0	2850	26.087652683454	0.093243730777
0	2855	26.180896414231	0.048125622956
0	2861	26.229022037187	0.029049300381
0	2866	26.258071337568	0.005750656375
0	2868	26.263821993943	0.08470796115
0	2876	26.348529955093	0.077815194227
0	2881	26.42634514932	0.032598506752
0	2887	26.458943656072	0.011995357404
0	2892	26.470939013476	0.044819746744
0	2898	26.51575876022	0.003658258489
0	2900	26.519417018709	0.065559451096
0	2908	26.584976469805	0.089315279566
0	2914	26.674291749371	0.062062497742
0	2919	26.736354247113	0.015067476108
0	2924	26.751421723221	0.057280546801
0	2930	26.808702270022	0.021065106209
0	2935	26.829767376231	0.103244010105
0	2941	26.933011386336	0.011610707035
0	2946	26.944622093371	0.003260358015
0	2948	26.947882451386	0.034346793711
0	2956	26.982229245097	0.248737033013
0	2964	27.23096627811	0.034195774557
0	2969	27.265162052667	0.000267009159
0	2971	27.265429061826	0.016778927522
0	2979	27.282207989348	0.001997573455
0	2981	27.284205562803	0.011780618548
0	2986	27.295986181351	0.051352911598
0	2995	27.347339092949	0.006434736426
0	2997	27.353773829375	0.014353682426
0	3005	27.368127511801	0.008018938801
0	3010	27.376146450602	0.02310801104
0	3016	27.399254461642	0.021068580772
0	3022	27.420323042414	0.212005859881
0	3028	27.632328902295	0.047407346948
0	3033	27.679736249243	0.013177736213
0	3038	27.692913985456	0.06832534246
0	3043	27.761239327916	0.037003509771
0	3048	27.798242837687	0.067298641181
0	3054	27.865541478868	0.111673408433
0	3060	27.977214887301	0.075647508868
0	3067	28.052862396169	0.004406787536
0	3069	28.057269183705	0.114597042694
0	3077	28.171866226399	0.077620541235
0	3082	28.249486767634	0.12349427846
0	3090	28.372981046094	0.186610479896
0	3096	28.55959152599	0.028984643943
0	3101	28.588576169933	0.085460179503
0	3106	28.674036349436	0.013444761538
0	3112	28.687481110974	0.01151113166
0	3117	28.698992242634	0.031123595821
0	3122	28.730115838455	0.028487782392
0	3128	28.758603620847	0.081235736192
0	3134	28.839839357039	0.035013985652
0	3139	28.874853342691	0.072088023405
0	3144	28.946941366096	0.132212402718
0	3151	29.079153768814	0.028775534
0	3156	29.107929302814	0.076725686711
0	3161	29.184654989525	0.106652390071
0	3167	29.291307379596	0.008137302334
0	3172	29.29944468193	0.03427339592
0	3178	29.33371807785	0.049433247533
0	3183	29.383151325383	0.168095904075
0	3189	29.551247229458	0.111452232822
0	3195	29.66269946228	0.070812548939
0	3200	29.733512011219	0.03210517339
0	3206	29.765617184609	0.03590796312
0	3211	29.801525147729	0.008180005979
0	3216	29.809705153708	0.021902189745
0	3221	29.831607343453	0.007686162814
0	3226	29.839293506267	0.080488720361
0	3231	29.919782226628	0.053716529087
0	3236	29.973498755715	0.056757773756
0	3241	30.030256529471	0.004045195855
0	3243	30.034301725326	0.051480110827
0	3252	30.085781836153	0.029368713306
0	3257	30.115150549459	0.120325388203
0	3264	30.235475937662	0.011377927938
0	3269	30.2468538656	0.030585917698
0	3275	30.277439783298	0.004221435844
0	3277	30.281661219142	0.027830125913
0	3286	30.309491345055	0.022836418411
0	3291	30.332327763466	0.034368964206
0	3296	30.366696727672	0.048229024707
0	3301	30.414925752379	0.161352940197
0	3307	30.576278692576	0.037353023373
0	3312	30.613631715949	0.041234915306
0	3317	30.654866631255	0.028977197825
0	3322	30.68384382908	0.193182129378
0	3328	30.877025958458	0.047444294059
0	3333	30.924470252517	0.044216356991
0	3339	30.968686609508	0.185954725089
0	3347	31.154641334597	0.006481672068
0	3349	31.161123006665	0.003048345322
0	3354	31.164171351987	0.151658716219
0	3363	31.315830068206	0.038011925438
0	3368	31.353841993644	0.068198657181
0	3373	31.422040650825	0.020172470136
0	3378	31.442213120961	0.083229491007
0	3383	31.525442611968	0.037860680885
0	3388	31.563303292853	0.008394336208
0	3390	31.571697629061	0.006082643109
0	3395	31.57778027217	0.038418636621
0	3406	31.616198908791	0.04961368522
0	3412	31.665812594011	0.032184254323
0	3417	31.697996848334	0.030183731008
0	3422	31.728180579342	0.021179873146
0	3427	31.749360452488	0.045359459125
0	3432	31.794719911613	0.017959779309
0	3437	31.812679690922	0.055813014703
0	3442	31.868492705625	0.007425977168
0	3444	31.875918682793	0.115959458575
0	3454	31.991878141368	0.293484725592
0	3462	32.28536286696	0.138263993575
0	3467	32.423626860535	0.08856407986
0	3473	32.512190940395	0.037082150195
0	3478	32.54927309059	0.001058556955
0	3480	32.550331647545	0.004234053331
0	3482	32.554565700876	0.011233170509
0	3490	32.565798871385	0.032332587358
0	3498	32.598131458743	0.111600695337
0	3504	32.70973215408	0.113190725211
0	3509	32.822922879291	0.145231394488
0	3516	32.968154273779	0.06713417058
0	3521	33.035288444359	0.000804203288
0	3523	33.036092647647	0.014358132057
0	3531	33.050450779704	0.029945162373
0	3536	33.080395942077	0.05299789005
0	3541	33.133393832127	0.125846501865
0	3548	33.259240333992	0.002533120057
0	3550	33.261773454049	0.023100585456
0	3558	33.284874039505	0.047878499897
0	3563	33.332752539402	0.007241637708
0	3568	33.33999417711	0.057687988772
0	3573	33.397682165882	0.047586175689
0	3579	33.445268341571	0.035135021037
0	3584	33.480403362608	0.069155152351
0	3590	33.549558514959	0.136663313227
0	3596	33.686221828186	0.004230300392
0	3598	33.690452128578	0.136287451852
0	3608	33.82673958043	0.022331403013
0	3613	33.849070983443	0.000652928328
0	3615	33.849723911771	0.01532542636
0	3623	33.865049338131	0.025754173162
0	3628	33.890803511293	0.011193535001
0	3633	33.901997046294	0.104979976067
0	3638	34.006977022361	0.010323733953
0	3643	34.017300756314	0.010532244409
0	3648	34.027833000723	0.056126804869
0	3654	34.083959805592	0.019380529248
0	3659	34.10334033484	0.145146829518
0	3667	34.248487164358	0.020063303971
0	3672	34.268550468329	0.025093720535
0	3677	34.293644188864	0.038926862606
0	3682	34.33257105147	0.027416746602
0	3687	34.359987798072	0.145923839403
0	3692	34.505911637475	0.095175691328
0	3698	34.601087328803	0.110462378561
0	3704	34.711549707364	0.027269020738
0	3709	34.738818728102	0.011246140748
0	3714	34.75006486885	0.066083116132
0	3719	34.816147984982	0.091376349587
0	3724	34.907524334569	0.076486969821
0	3729	34.98401130439	0.195849650453
0	3735	35.179860954843	0.003082479636
0	3737	35.182943434479	0.000401978095
0	3739	35.183345412574	0.022199581337
0	3750	35.205544993911	0.006055129023
0	3752	35.211600122934	0.026122766591
0	3760	35.237722889525	0.095887210107
0	3766	35.333610099632	0.201287911524
0	3772	35.534898011156	0.024336769591
0	3777	35.559234780747	0.058047662057
0	3782	35.617282442804	0.099961370256
0	3787	35.71724381306	0.039910419228
0	3792	35.757154232288	0.00678642225
0	3794	35.763940654538	0.05995341043
0	3802	35.823894064968	0.043372674088
0	3807	35.867266739056	0.024876193852
0	3812	35.892142932908	0.034466432994
0	3818	35.926609365902	0.046719332578
0	3824	35.97332869848	0.004029993766
0	3826	35.977358692246	0.010427000693
0	3831	35.987785692939	0.045189463807
0	3840	36.032975156746	0.018297516923
0	3846	36.051272673669	0.044496009407
0	3851	36.095768683076	0.021229542691
0	3856	36.116998225767	0.029974472472
0	3861	36.146972698239	0.239041865179
0	3869	36.386014563418	0.086908055042
0	3874	36.47292261846	0.00929602928
0	3879	36.48221864774	0.101644970902
0	3885	36.583863618642	0.004095550267
0	3887	36.587959168909	0.050308788727
0	3895	36.638267957636	0.096265860133
0	3900	36.734533817769	0.055078805438
0	3906	36.789612623207	0.059146118159
0	3912	36.848758741366	0.0370771442
0	3918	36.885835885566	0.056694870049
0	3923	36.942530755615	0.091832062351
0	3928	37.034362817966	0.054782199622
0	3935	37.089145017588	0.01090309316
0	3940	37.100048110748	0.126521181339
0	3946	37.226569292087	0.063274291596
0	3951	37.289843583683	0.004380453633
0	3953	37.294224037316	0.010513275681
0	3961	37.304737312997	0.015910730771
0	3966	37.320648043768	0.077688810046
0	3971	37.398336853814	0.063806473598
0	3977	37.462143327412	0.074559917812
0	3983	37.536703245224	0.021201761042
0	3988	37.557905006266	0.050581055465
0	3994	37.608486061731	0.002379149562
0	3996	37.610865211293	0.069562816267
0	4005	37.68042802756	0.108186508704
0	4015	37.788614536264	0.080258196264
0	4020	37.868872732528	0.058653151192
0	4027	37.92752588372	0.026184844592
0	4032	37.953710728312	0.065151635183
0	4040	38.018862363495	0.007887102802
0	4045	38.026749466297	0.076997439382
0	4051	38.103746905679	0.025625889672
0	4056	38.129372795351	0.028083746814
0	4061	38.157456542165	0.150879801081
0	4066	38.308336343246	0.015610221932
0	4071	38.323946565178	0.058430168055
0	4076	38.382376733233	0.034901242553
0	4081	38.417277975786	0.008086592367
0	4086	38.425364568153	0.06612961721
0	4092	38.491494185363	0.008705809188
0	4097	38.500199994551	0.147341942005
0	4103	38.647541936556	0.001872953526
0	4105	38.649414890082	0.058907314072
0	4113	38.708322204154	0.001273632828
0	4115	38.709595836982	0.077002890767
0	4124	38.786598727749	0.074469980958
0	4130	38.861068708707	0.144582750442
0	4135	39.005651459149	0.033747284956
0	4141	39.039398744105	0.116042700737
0	4146	39.155441444842	0.076179462762
0	4153	39.231620907604	0.040636526016
0	4158	39.27225743362	0.001979583748
0	4160	39.274237017368	0.025658263243
0	4168	39.299895280611	0.026641373185
0	4173	39.326536653796	0.07849896287
0	4179	39.405035616666	0.086815466212
0	4185	39.491851082878	0.007709546954
0	4190	39.499560629832	0.155838301001
0	4196	39.655398930833	0.042954413103
0	4201	39.698353343936	0.025852203935
0	4206	39.724205547871	0.071834351105
0	4211	39.796039898976	0.041321393431
0	4217	39.837361292407	0.076018493911
0	4222	39.913379786318	0.101610191024
0	4227	40.014989977342	0.025505327732
0	4232	40.040495305074	0.030842034478
0	4237	40.071337339552	0.000662136155
0	4239	40.071999475707	0.001981452519
0	4241	40.073980928226	0.052184315851
0	4252	40.126165244077	0.066584452877
0	4257	40.192749696954	0.035517331945
0	4264	40.228267028899	0.184989379101
0	4269	40.413256408	0.024343141354
0	4274	40.437599549354	0.014751732223
0	4279	40.452351281577	0.048770592233
0	4286	40.50112187381	0.033235159621
0	4291	40.534357033431	7.62256e-06
0	4293	40.534364655991	0.048995760417
0	4302	40.583360416408	0.005162622179
0	4304	40.588523038587	0.015779699278
0	4312	40.604302737865	0.009906575541
0	4317	40.614209313406	0.002367786283
0	4319	40.616577099689	0.036550997446
0	4328	40.653128097135	0.031834513288
0	4333	40.684962610423	0.038006169403
0	4338	40.722968779826	0.002566855241
0	4340	40.725535635067	0.023543631204
0	4350	40.749079266271	0.032304325979
0	4355	40.78138359225	0.006201008626
0	4358	40.787584600876	0.151621598205
0	4366	40.939206199081	0.102438817219
0	4371	41.0416450163	0.077272235198
0	4377	41.118917251498	0.000187102853
0	4379	41.119104354351	0.05609845179
0	4388	41.175202806141	0.004177514794
0	4390	41.179380320935	0.007420261134
0	4395	41.186800582069	0.054005902454
0	4404	41.240806484523	0.031928430392
0	4410	41.272734914915	0.007658003403
0	4415	41.280392918318	0.008955292384
0	4421	41.289348210702	0.063102391906
0	4426	41.352450602608	0.01513781953
0	4431	41.367588422138	0.040394705367
0	4437	41.407983127505	0.009273681438
0	4442	41.417256808943	0.011147167502
0	4448	41.428403976445	0.004644048759
0	4450	41.433048025204	0.019441790263
0	4458	41.452489815467	0.026663541522
0	4463	41.479153356989	0.035031883973
0	4468	41.514185240962	0.015373155022
0	4473	41.529558395984	0.013676061082
0	4478	41.543234457066	0.0033315641
0	4480	41.546566021166	0.028283762689
0	4488	41.574849783855	0.149507825567
0	4493	41.724357609422	0.048140138356
0	4498	41.772497747778	0.01653680915
0	4503	41.789034556928	0.027890965512
0	4508	41.81692552244	0.038906452827
0	4513	41.855831975267	0.047130022553
0	4518	41.90296199782	0.029319264522
0	4523	41.932281262342	0.011756173924
0	4528	41.944037436266	0.047999840535
0	4533	41.992037276801	0.017330334743
0	4538	42.009367611544	0.013840930796
0	4543	42.02320854234	0.012483525918
0	4548	42.035692068258	0.022827276537
0	4554	42.058519344795	0.017483972307
0	4559	42.076003317102	0.139488624214
0	4565	42.215491941316	0.057998921874
0	4572	42.27349086319	0.046810875946
0	4577	42.320301739136	0.075372908317
0	4582	42.395674647453	0.040342509812
0	4588	42.436017157265	0.027587879991
0	4594	42.463605037256	0.011876717384
0	4599	42.47548175464	0.087895186425
0	4604	42.563376941065	0.006794399208
0	4606	42.570171340273	0.005672440304
0	4611	42.575843780577	0.017867411706
0	4620	42.593711192283	0.048584530197
0	4625	42.64229572248	0.185088956773
0	4630	42.827384679253	0.057538515966
0	4637	42.884923195219	0.00835613302
0	4642	42.893279328239	0.138198599046
0	4650	43.031477927285	0.137676161105
0	4655	43.16915408839	0.157370944891
0	4661	43.326525033281	0.027763410798
0	4666	43.354288444079	0.113794272094
0	4671	43.468082716173	0.079189778268
0	4676	43.547272494441	0.017365097509
0	4681	43.56463759195	0.040765519143
0	4686	43.605403111093	0.012009900348
0	4691	43.617413011441	0.002166454039
0	4693	43.61957946548	0.024558939512
0	4701	43.644138404992	0.005303119794
0	4703	43.649441524786	0.002964103742
0	4708	43.652405628528	0.017757050422
0	4716	43.67016267895	0.117094097876
0	4721	43.787256776826	0.010212743578
0	4726	43.797469520404	0.052981408765
0	4731	43.850450929169	0.017173853429
0	4736	43.867624782598	0.056721042972
0	4741	43.92434582557	0.01422537021
0	4746	43.93857119578	0.131710210884
0	4752	44.070281406664	0.024868889201
0	4757	44.095150295865	0.12011959689
0	4764	44.215269892755	0.003779557879
0	4766	44.219049450634	0.01545538767
0	4774	44.234504838304	0.020576737157
0	4779	44.255081575461	0.00010204969
0	4781	44.255183625151	0.009986203995
0	4786	44.265169829146	0.118022785491
0	4795	44.383192614637	0.052473565467
0	4801	44.435666180104	0.044849200842
0	4806	44.480515380946	0.072685901989
0	4811	44.553201282935	0.050228072272
0	4818	44.603429355207	0.081795045386
0	4823	44.685224400593	0.011828647039
0	4828	44.697053047632	0.095796599686
0	4833	44.792849647318	0.014721353179
0	4838	44.807571000497	0.029985809185
0	4845	44.837556809682	0.046011451191
0	4850	44.883568260873	0.161304178078
0	4855	45.044872438951	0.000500502907
0	4857	45.045372941858	0.206867505357
0	4867	45.252240447215	0.020633547531
0	4872	45.272873994746	0.006542542316
0	4874	45.279416537062	0.059555025732
0	4882	45.338971562794	0.050388077069
0	4888	45.389359639863	0.023649962521
0	4893	45.413009602384	0.074628805426
0	4899	45.48763840781	0.016548068433
0	4904	45.504186476243	0.004268568084
0	4906	45.508455044327	0.025729658389
0	4914	45.534184702716	0.059096016207
0	4919	45.593280718923	0.054895517174
0	4925	45.648176236097	0.072309747835
0	4931	45.720485983932	0.037134765613
0	4936	45.757620749545	0.002811532307
0	4938	45.760432281852	0.021176197263
0	4947	45.781608479115	0.01021594216
0	4952	45.791824421275	0.006469434083
0	4954	45.798293855358	0.010343537214
0	4962	45.808637392572	0.005604571018
0	4964	45.81424196359	0.003670190712
0	4969	45.817912154302	0.166890947768
0	4977	45.98480310207	0.006506587958
0	4979	45.991309690028	0.068544598904
0	4988	46.059854288932	0.053216468216
0	4994	46.113070757148	0.043678412671
0	4999	46.156749169819	0.034114566492
0	5004	46.190863736311	0.013364681772
0	5009	46.204228418083	0.052517217435
0	5017	46.256745635518	0.158190707932
0	5022	46.41493634345	0.041491229845
0	5027	46.456427573295	0.133528799504
0	5032	46.589956372799	0.043259571032
0	5037	46.633215943831	0.104540041772
0	5042	46.737755985603	0.039616575669
0	5047	46.777372561272	0.025354864335
0	5052	46.802727425607	0.045298306522
0	5057	46.848025732129	0.096130154584
0	5064	46.944155886713	0.071726448641
0	5069	47.015882335354	0.093385270563
0	5075	47.109267605917	0.01807679352
0	5080	47.127344399437	0.018482003637
0	5085	47.145826403074	0.006131203059
0	5087	47.151957606133	0.01219860288
0	5095	47.164156209013	0.080401236373
0	5100	47.244557445386	0.066077037614
0	5105	47.310634483	0.055182865685
0	5110	47.365817348685	0.032038465422
0	5115	47.397855814107	0.056749788567
0	5122	47.454605602674	0.054528492144
0	5129	47.509134094818	0.010370952651
0	5135	47.519505047469	0.037551488595
0	5140	47.557056536064	0.14808161057
0	5145	47.705138146634	0.008601135957
0	5150	47.713739282591	0.018326316948
0	5155	47.732065599539	0.003215673035
0	5157	47.735281272574	0.045119018706
0	5165	47.78040029128	0.140189672944
0	5174	47.920589964224	0.068272184876
0	5181	47.9888621491	0.039646999086
0	5186	48.028509148186	0.009240602201
0	5191	48.037749750387	0.03399561463
0	5196	48.071745365017	0.249233605194
0	5202	48.320978970211	0.056065932441
0	5207	48.377044902652	0.036892697649
0	5213	48.413937600301	0.00603869473
0	5215	48.419976295031	0.009407017623
0	5220	48.429383312654	0.057365328501
0	5228	48.486748641155	0.046841512788
0	5233	48.533590153943	0.020000338879
0	5238	48.553590492822	0.009873881916
0	5243	48.563464374738	0.014252472933
0	5249	48.577716847671	0.038248598841
0	5254	48.615965446512	0.020809009364
0	5259	48.636774455876	0.003148775228
0	5261	48.639923231104	0.001699853467
0	5263	48.641623084571	0.003401053998
0	5265	48.645024138569	0.095625812444
0	5279	48.740649951013	0.12606051103
0	5286	48.866710462043	0.016726429909
0	5292	48.883436891952	0.007015421863
0	5295	48.890452313815	0.042654090562
0	5303	48.933106404377	0.053157798246
0	5308	48.986264202623	0.002619801554
0	5310	48.988884004177	0.006554763928
0	5315	48.995438768105	0.031536807023
0	5323	49.026975575128	0.01952270691
0	5328	49.046498282038	0.22730772317
0	5336	49.273806005208	0.012938429872
0	5341	49.28674443508	0.070935098562
0	5348	49.357679533642	0.192941814571
0	5357	49.550621348213	0.013907634385
0	5362	49.564528982598	0.008869095285
0	5367	49.573398077883	0.006436788322
0	5369	49.579834866205	0.002473625692
0	5374	49.582308491897	0.056628625426
0	5382	49.638937117323	0.004913781638
0	5384	49.643850898961	0.023574013403
0	5393	49.667424912364	0.033203526415
0	5398	49.700628438779	0.084931434902
0	5405	49.785559873681	0.053710658767
0	5410	49.839270532448	0.024457465601
0	5415	49.863727998049	0.025650988469
0	5420	49.889378986518	0.023961798796
0	5425	49.913340785314	0.011124277763
0	5430	49.924465063077	0.033957956848
0	5435	49.958423019925	0.035141187799
0	5440	49.993564207724	0.042677323138
0	5445	50.036241530862	0.058705472905
0	5451	50.094947003767	0.014253518872
0	5456	50.109200522639	0.027943325938
0	5461	50.137143848577	0.011770916234
0	5466	50.148914764811	0.001001080441
0	5468	50.149915845252	0.017243460325
0	5476	50.167159305577	0.043020352609
0	5481	50.210179658186	0.020950344379
0	5486	50.231130002565	0.016693713137
0	5492	50.247823715702	0.019740666642
0	5497	50.267564382344	0.029102210821
0	5502	50.296666593165	0.007034981822
0	5504	50.303701574987	0.006854764798
0	5510	50.310556339785	0.007955620489
0	5515	50.318511960274	0.009792491998
0	5520	50.328304452272	0.022637529126
0	5528	50.350941981398	0.014998696994
0	5533	50.365940678392	0.026286267505
0	5539	50.392226945897	0.020855902993
0	5544	50.41308284889	0.064089671225
0	5549	50.477172520115	0.092218011697
0	5555	50.569390531812	0.009672966366
0	5560	50.579063498178	0.075248723436
0	5566	50.654312221614	0.022294732131
0	5571	50.676606953745	0.011407809946
0	5576	50.688014763691	0.048342576637
0	5581	50.736357340328	0.068638554694
0	5586	50.804995895022	0.060325658369
0	5591	50.865321553391	0.011477041556
0	5596	50.876798594947	0.274353372748
0	5603	51.151151967695	0.043641397869
0	5609	51.194793365564	0.031818419315
0	5614	51.226611784879	0.24566661492
0	5623	51.472278399799	0.125165336841
0	5628	51.59744373664	0.064553496187
0	5633	51.661997232827	0.128919662384
0	5640	51.790916895211	0.068891963938
0	5645	51.859808859149	0.012129904957
0	5650	51.871938764106	0.017474553996
0	5655	51.889413318102	0.010423181098
0	5660	51.8998364992	0.047627753153
0	5667	51.947464252353	0.071541285228
0	5673	52.019005537581	0.11243945128
0	5680	52.131444988861	0.078455393015
0	5687	52.209900381876	0.005835938791
0	5689	52.215736320667	0.112293855251
0	5697	52.328030175918	0.082531845015
0	5702	52.410562020933	0.069325757729
0	5709	52.479887778662	0.024495710669
0	5714	52.504383489331	0.047355546276
0	5719	52.551739035607	0.033840997163
0	5724	52.58558003277	0.013080524359
0	5729	52.598660557129	0.043939633629
0	5734	52.642600190758	0.010392453982
0	5739	52.65299264474	0.135439053847
0	5747	52.788431698587	0.02433927805
0	5752	52.812770976637	0.018092351516
0	5757	52.830863328153	0.077025664716
0	5764	52.907888992869	0.08809934493
0	5770	52.995988337799	0.096044937114
0	5775	53.092033274913	0.027055446124
0	5780	53.119088721037	0.015918457096
0	5785	53.135007178133	0.044058601832
0	5791	53.179065779965	0.0791512285
0	5797	53.258217008465	0.086315549696
0	5802	53.344532558161	0.065439141522
0	5807	53.409971699683	0.074202858511
0	5813	53.484174558194	0.016149626248
0	5818	53.500324184442	0.030754258413
0	5823	53.531078442855	0.182221513772
0	5831	53.713299956627	0.012449419708
0	5836	53.725749376335	0.00878125371
0	5841	53.734530630045	0.041669620314
0	5846	53.776200250359	0.012771198118
0	5851	53.788971448477	0.005235954238
0	5853	53.794207402715	0.003918634428
0	5858	53.798126037143	0.071536072718
0	5867	53.869662109861	0.024902317571
0	5872	53.894564427432	0.005438730106
0	5874	53.900003157538	0.034253916233
0	5882	53.934257073771	0.016586494065
0	5888	53.950843567836	0.13401104689
0	5894	54.084854614726	0.047157558815
0	5900	54.132012173541	0.003665973668
0	5902	54.135678147209	0.018693988894
0	5910	54.154372136103	0.077410495408
0	5915	54.231782631511	0.017194173984
0	5920	54.248976805495	0.076779297801
0	5925	54.325756103296	0.177397297638
0	5931	54.503153400934	0.026038720254
0	5936	54.529192121188	0.110974864803
0	5941	54.640166985991	0.028059898016
0	5946	54.668226884007	0.030173225199
0	5952	54.698400109206	0.015676262884
0	5957	54.71407637209	0.024451945485
0	5962	54.738528317575	0.130632660503
0	5968	54.869160978078	0.004948133629
0	5970	54.874109111707	0.08660663184
0	5978	54.960715743547	0.068671235094
0	5983	55.029386978641	0.016346965605
0	5988	55.045733944246	0.027159163774
0	5993	55.07289310802	0.017872243799
0	5999	55.090765351819	0.002673038765
0	6002	55.093438390584	0.029510444168
0	6011	55.122948834752	0.01524284476
0	6016	55.138191679512	0.000311493217
0	6018	55.138503172729	0.106513399231
0	6027	55.24501657196	0.003795726787
0	6029	55.248812298747	0.021208936176
0	6037	55.270021234923	0.032749568824
0	6042	55.302770803747	0.012732941148
0	6048	55.315503744895	0.005372482054
0	6050	55.320876226949	0.056542629568
0	6059	55.377418856517	0.083662435855
0	6064	55.461081292372	0.014718421575
0	6069	55.475799713947	0.345743913279
0	6077	55.821543627226	0.020848402528
0	6082	55.842392029754	0.019235181408
0	6087	55.861627211162	0.002162647926
0	6089	55.863789859088	0.065353447189
0	6097	55.929143306277	0.16398540774
0	6105	56.093128714017	0.030362902491
0	6110	56.123491616508	0.142978160706
0	6115	56.266469777214	0.008385111803
0	6120	56.274854889017	0.117988381016
0	6126	56.392843270033	0.008028555888
0	6131	56.400871825921	0.042125713354
0	6137	56.442997539275	0.108075787327
0	6143	56.551073326602	0.008150443418
0	6148	56.55922377002	0.021446720599
0	6153	56.580670490619	0.043288384572
0	6158	56.623958875191	0.00167730124
0	6160	56.625636176431	0.00312424695
0	6162	56.628760423381	0.040032621592
0	6174	56.668793044973	0.205096339306
0	6183	56.873889384279	0.002604996541
0	6185	56.87649438082	0.06111855256
0	6193	56.93761293338	0.002784747192
0	6195	56.940397680572	0.0006282532
0	6197	56.941025933772	0.008011667693
0	6202	56.949037601465	0.017220074436
0	6210	56.966257675901	0.031171581426
0	6218	56.997429257327	0.024708413917
0	6223	57.022137671244	0.137731094662
0	6230	57.159868765906	0.039510474292
0	6236	57.199379240198	0.010237076144
0	6241	57.209616316342	0.058442096702
0	6246	57.268058413044	0.029906706349
0	6252	57.297965119393	0.020768290452
0	6257	57.318733409845	0.011903386026
0	6263	57.330636795871	0.029038098577
0	6268	57.359674894448	0.014887988558
0	6273	57.374562883006	0.079371587718
0	6278	57.453934470724	0.012660718426
0	6283	57.46659518915	0.098460341108
0	6289	57.565055530258	0.018735723472
0	6294	57.58379125373	0.003852325858
0	6296	57.587643579588	0.032289102647
0	6305	57.619932682235	0.005197232949
0	6307	57.625129915184	0.105092707653
0	6315	57.730222622837	0.066239314504
0	6320	57.796461937341	0.035583039329
0	6326	57.83204497667	0.009576042853
0	6331	57.841621019523	0.012553812479
0	6336	57.854174832002	0.043685825236
0	6342	57.897860657238	0.112208163579
0	6347	58.010068820817	0.073790906104
0	6354	58.083859726921	0.013065971832
0	6359	58.096925698753	0.168455084445
0	6367	58.265380783198	0.002762390812
0	6369	58.26814317401	0.024710985268
0	6377	58.292854159278	0.0355198772
0	6382	58.328374036478	0.000527769231
0	6384	58.328901805709	0.107391568557
0	6394	58.436293374266	0.027589726361
0	6399	58.463883100627	0.006555824272
0	6401	58.470438924899	0.039159858993
0	6409	58.509598783892	0.123806485051
0	6414	58.633405268943	0.000353534474
0	6416	58.633758803417	0.060712111829
0	6424	58.694470915246	0.020776982021
0	6429	58.715247897267	0.069810157663
0	6434	58.78505805493	0.01198518397
0	6439	58.7970432389	0.024336057103
0	6444	58.821379296003	0.005855012863
0	6446	58.827234308866	0.044385311874
0	6455	58.87161962074	0.011034691811
0	6460	58.882654312551	0.045894250168
0	6465	58.928548562719	0.071966949804
0	6474	59.000515512523	0.020398039981
0	6479	59.020913552504	0.062878250421
0	6486	59.083791802925	0.073106721557
0	6492	59.156898524482	0.039103494928
0	6498	59.19600201941	0.126631932649
0	6506	59.322633952059	9.674956e-06
0	6508	59.322643627015	0.017346429796
0	6516	59.339990056811	0.041112427383
0	6521	59.381102484194	0.005444880596
0	6523	59.38654736479	0.147602165871
0	6531	59.534149530661	0.064123755928
0	6536	59.598273286589	0.004495330192
0	6538	59.602768616781	0.060048842187
0	6548	59.662817458968	0.006579101243
0	6550	59.669396560211	0.0162477045
0	6558	59.685644264711	0.006714597137
0	6561	59.692358861848	0.001831208114
0	6566	59.694190069962	0.039016120394
0	6575	59.733206190356	0.031706022141
0	6580	59.764912212497	0.033688980054
0	6585	59.798601192551	0.017656091835
0	6590	59.816257284386	0.06526685028
0	6596	59.881524134666	0.077552702471
0	6601	59.959076837137	0.071288634789
0	6606	60.030365471926	0.002190579614
0	6608	60.03255605154	0.117559452682
0	6616	60.150115504222	0.009100352877
0	6621	60.159215857099	0.064714916739
0	6627	60.223930773838	0.017634550502
0	6632	60.24156532434	0.009826451828
0	6637	60.251391776168	0.051789159164
0	6642	60.303180935332	0.079055534111
0	6648	60.382236469443	0.157950044342
0	6653	60.540186513785	0.017000218407
0	6658	60.557186732192	0.002492096502
0	6660	60.559678828694	0.069539173404
0	6669	60.629218002098	0.027777534196
0	6674	60.656995536294	0.061521181939
0	6679	60.718516718233	0.05616708263
0	6684	60.774683800863	0.006275995449
0	6686	60.780959796312	0.020532903579
0	6694	60.801492699891	0.006007909805
0	6696	60.807500609696	0.031435296295
0	6704	60.838935905991	0.039479265698
0	6709	60.878415171689	0.060929093136
0	6715	60.939344264825	0.024459711527
0	6720	60.963803976352	0.023467542705
0	6726	60.987271519057	0.021618270239
0	6731	61.008889789296	0.080288772942
0	6736	61.089178562238	0.005726907375
0	6738	61.094905469613	0.007462608293
0	6743	61.102368077906	0.111746464065
0	6751	61.214114541971	0.034220719618
0	6756	61.248335261589	0.046973649657
0	6761	61.295308911246	0.030350614773
0	6766	61.325659526019	0.089223362671
0	6771	61.41488288869	0.143056129245
0	6776	61.557939017935	0.060656309836
0	6781	61.618595327771	0.021944767457
0	6786	61.640540095228	0.051865190583
0	6792	61.692405285811	0.058831061374
0	6797	61.751236347185	0.136876538463
0	6805	61.888112885648	0.026805568249
0	6810	61.914918453897	0.081096583953
0	6815	61.99601503785	0.048506764215
0	6820	62.044521802065	0.000827977552
0	6822	62.045349779617	0.034903467859
0	6830	62.080253247476	0.055244250731
0	6835	62.135497498207	0.019247282328
0	6840	62.154744780535	0.169138325652
0	6847	62.323883106187	0.048511477204
0	6853	62.372394583391	0.046446032778
0	6858	62.418840616169	0.086999980794
0	6863	62.505840596963	0.069035640711
0	6868	62.574876237674	0.077798754993
0	6873	62.652674992667	0.027508249817
0	6878	62.680183242484	0.024760032117
0	6883	62.704943274601	0.010694788171
0	6888	62.715638062772	0.191963070211
0	6893	62.907601132983	0.008340882648
0	6898	62.915942015631	0.002491406345
0	6900	62.918433421976	0.000951447416
0	6902	62.919384869392	0.075557112834
0	6913	62.994941982226	0.040402891562
0	6918	63.035344873788	0.005343643715
0	6920	63.040688517503	0.177309344749
0	6931	63.217997862252	0.042911039194
0	6936	63.260908901446	0.003199371097
0	6938	63.264108272543	0.005009238476
0	6943	63.269117511019	0.00815555509
0	6948	63.277273066109	0.018415473378
0	6957	63.295688539487	0.060573213814
0	6962	63.356261753301	0.000416231075
0	6964	63.356677984376	0.074797489793
0	6972	63.431475474169	0.078694023941
0	6977	63.51016949811	0.0385240909
0	6982	63.54869358901	0.067393508981
0	6989	63.616087097991	0.077376351597
0	6995	63.693463449588	0.041656611411
0	7000	63.735120060999	0.004273134307
0	7002	63.739393195306	0.009137000071
0	7007	63.748530195377	0.046031134193
0	7015	63.79456132957	0.024680627376
0	7020	63.819241956946	0.102901924012
0	7027	63.922143880958	0.01333745755
0	7032	63.935481338508	0.011075582423
0	7037	63.946556920931	0.002343833339
0	7039	63.94890075427	0.026556565426
0	7047	63.975457319696	0.027876530988
0	7052	64.003333850684	0.046976039507
0	7057	64.050309890191	0.156236181593
0	7064	64.206546071784	0.057652832323
0	7069	64.264198904107	0.09536881993
0	7075	64.359567724037	0.012144431555
0	7080	64.371712155592	0.047019003043
0	7085	64.418731158635	0.013142714362
0	7090	64.431873872997	0.052417865492
0	7096	64.484291738489	0.018575596211
0	7101	64.5028673347	0.023252267072
0	7106	64.526119601772	0.030781190744
0	7111	64.556900792516	0.022986595117
0	7116	64.579887387633	0.070032342659
0	7121	64.649919730292	0.019862264251
0	7127	64.669781994543	0.027356061699
0	7132	64.697138056242	0.026760284058
0	7137	64.7238983403	0.042212228634
0	7142	64.766110568934	0.149337977983
0	7147	64.915448546917	0.121781645065
0	7152	65.037230191982	0.007740921747
0	7157	65.044971113729	0.050728444639
0	7163	65.095699558368	0.085010941676
0	7168	65.180710500044	0.119756161548
0	7173	65.300466661592	0.231075479584
0	7179	65.531542141176	0.166555002417
0	7186	65.698097143593	0.009944632005
0	7191	65.708041775598	0.100885997565
0	7196	65.808927773163	0.005499029123
0	7198	65.814426802286	0.004670754325
0	7203	65.819097556611	0.002529536058
0	7205	65.821627092669	0.019652431583
0	7216	65.841279524252	0.10598904872
0	7222	65.947268572972	0.00151876828
0	7224	65.948787341252	0.002427633659
0	7226	65.951214974911	0.229794347867
0	7237	66.181009322778	0.017322393871
0	7242	66.198331716649	0.030087668229
0	7247	66.228419384878	0.009265054345
0	7252	66.237684439223	0.038342565801
0	7258	66.276027005024	0.004132098797
0	7260	66.280159103821	0.006861529113
0	7265	66.287020632934	0.000192174653
0	7267	66.287212807587	0.043503753806
0	7278	66.330716561393	0.010990295101
0	7283	66.341706856494	0.019042851733
0	7288	66.360749708227	0.134763805066
0	7294	66.495513513293	0.027913852438
0	7299	66.523427365731	0.002163718745
0	7301	66.525591084476	0.137566835224
0	7310	66.6631579197	0.062142903237
0	7315	66.725300822937	0.008408618777
0	7320	66.733709441714	0.090189034081
0	7325	66.823898475795	0.007838957676
0	7330	66.831737433471	0.029596992561
0	7335	66.861334426032	0.020807740244
0	7340	66.882142166276	0.028284411859
0	7345	66.910426578135	0.047447281986
0	7351	66.957873860121	0.042068335541
0	7356	66.999942195662	0.136250525554
0	7361	67.136192721216	0.039188755512
0	7366	67.175381476728	0.132997674486
0	7373	67.308379151214	0.003716715323
0	7375	67.312095866537	0.043795448697
0	7383	67.355891315234	0.007421986405
0	7385	67.363313301639	0.042310510778
0	7394	67.405623812417	0.091460278511
0	7399	67.497084090928	0.044600952728
0	7405	67.541685043656	0.109336471022
0	7411	67.651021514678	0.004868296634
0	7413	67.655889811312	0.082331451239
0	7422	67.738221262551	0.034782433094
0	7427	67.773003695645	0.018071418042
0	7432	67.791075113687	0.04049585022
0	7437	67.831570963907	0.054862814062
0	7443	67.886433777969	0.004509073285
0	7445	67.890942851254	0.04342174079
0	7453	67.934364592044	0.022303973553
0	7458	67.956668565597	0.073613555813
0	7463	68.03028212141	0.022213139309
0	7468	68.052495260719	0.008968389673
0	7473	68.061463650392	0.073247408419
0	7478	68.134711058811	0.035375820529
0	7483	68.17008687934	0.041586481173
0	7491	68.211673360513	0.021568110308
0	7496	68.233241470821	0.025396806704
0	7501	68.258638277525	0.142242494384
0	7506	68.400880771909	0.029132711122
0	7512	68.430013483031	0.031195248039
0	7517	68.46120873107	0.021652550225
0	7522	68.482861281295	0.047170352692
0	7527	68.530031633987	0.041210121092
0	7532	68.571241755079	0.039815204466
0	7537	68.611056959545	0.021757840219
0	7542	68.632814799764	0.09670618454
0	7547	68.729520984304	0.015725969553
0	7552	68.745246953857	0.012400290181
0	7557	68.757647244038	0.010556749805
0	7562	68.768203993843	0.000254285972
0	7564	68.768458279815	0.003139365006
0	7566	68.771597644821	0.07433119737
0	7577	68.845928842191	0.091489672216
0	7583	68.937418514407	0.023972741079
0	7588	68.961391255486	0.039858665086
0	7594	69.001249920572	0.019285354921
0	7599	69.020535275493	0.028292209827
0	7604	69.04882748532	0.111804743814
0	7610	69.160632229134	0.004233294475
0	7612	69.164865523609	0.003515579516
0	7617	69.168381103125	0.097544111222
0	7625	69.265925214347	0.028828934945
0	7630	69.294754149292	0.044637100755
0	7636	69.339391250047	0.038878453659
0	7641	69.378269703706	0.012313844585
0	7646	69.390583548291	0.014227811699
0	7651	69.40481135999	0.027295527385
0	7656	69.432106887375	0.0941851305
0	7661	69.526292017875	0.057346206232
0	7666	69.583638224107	0.017186864412
0	7671	69.600825088519	0.029577826581
0	7676	69.6304029151	0.094241936777
0	7682	69.724644851877	0.031274546357
0	7687	69.755919398234	0.043849641109
0	7692	69.799769039343	0.086508979818
0	7697	69.886278019161	0.045884557011
0	7702	69.932162576172	0.079574466369
0	7707	70.011737042541	0.033209736607
0	7713	70.044946779148	0.007423949004
0	7715	70.052370728152	0.18217757495
0	7724	70.234548303102	0.029479452757
0	7729	70.264027755859	0.057427368133
0	7734	70.321455123992	0.007603201194
0	7739	70.329058325186	0.074729703835
0	7744	70.403788029021	0.078029788324
0	7749	70.481817817345	0.085187720626
0	7755	70.567005537971	0.010360103231
0	7760	70.577365641202	0.016215555483
0	7765	70.593581196685	0.018961329789
0	7770	70.612542526474	0.004394980685
0	7772	70.616937507159	0.070327062631
0	7780	70.68726456979	0.047255790247
0	7785	70.734520360037	0.015760327588
0	7790	70.750280687625	0.020423555191
0	7795	70.770704242816	0.020076940298
0	7800	70.790781183114	0.0091241444
0	7805	70.799905327514	0.012498405212
0	7810	70.812403732726	0.091164110944
0	7815	70.90356784367	0.146238627976
0	7820	71.049806471646	0.001007511078
0	7822	71.050813982724	0.035505363278
0	7830	71.086319346002	0.04171371235
0	7835	71.128033058352	0.024757062457
0	7840	71.152790120809	0.130706386634
0	7846	71.283496507443	0.216969644129
0	7853	71.500466151572	0.000129880042
0	7855	71.500596031614	0.101729778346
0	7863	71.60232580996	0.005587641686
0	7865	71.607913451646	0.000255241089
0	7867	71.608168692735	0.020369720514
0	7878	71.628538413249	0.028006396515
0	7884	71.656544809764	0.071659182945
0	7889	71.728203992709	0.02925887398
0	7894	71.757462866689	0.05567077891
0	7899	71.813133645599	0.004251336786
0	7901	71.817384982385	0.052292104463
0	7909	71.869677086848	0.072068619648
0	7914	71.941745706496	0.119197075795
0	7920	72.060942782291	0.061240739586
0	7925	72.122183521877	0.049346018034
0	7930	72.171529539911	0.045716835743
0	7935	72.217246375654	0.123079402393
0	7940	72.340325778047	0.058828295518
0	7945	72.399154073565	0.020669641353
0	7950	72.419823714918	0.080428893023
0	7956	72.500252607941	0.001285382345
0	7958	72.501537990286	0.050931060886
0	7968	72.552469051172	0.054422207167
0	7973	72.606891258339	0.069819217371
0	7979	72.67671047571	0.075182777032
0	7984	72.751893252742	0.023332724145
0	7989	72.775225976887	0.019221579209
0	7994	72.794447556096	0.030077470157
0	7999	72.824525026253	0.05663967374
0	8004	72.881164699993	0.036138494631
0	8010	72.917303194624	0.083700791092
0	8017	73.001003985716	0.010248739167
0	8022	73.011252724883	0.036094596027
0	8027	73.04734732091	0.061577654627
0	8034	73.108924975537	0.072081170261
0	8040	73.181006145798	0.043926952683
0	8045	73.224933098481	0.029011847534
0	8050	73.253944946015	0.239274101338
0	8057	73.493219047353	0.008352614126
0	8062	73.501571661479	0.064754680404
0	8067	73.566326341883	0.03502319577
0	8073	73.601349537653	0.046045270971
0	8078	73.647394808624	0.059641569789
0	8084	73.707036378413	0.035733093799
0	8089	73.742769472212	0.135721845265
0	8097	73.878491317477	0.044180494945
0	8102	73.922671812422	0.011439797757
0	8107	73.934111610179	0.007752728284
0	8112	73.941864338463	0.117540199357
0	8119	74.05940453782	0.011786546528
0	8124	74.071191084348	0.145722343155
0	8130	74.216913427503	0.062071887567
0	8135	74.27898531507	0.052469183627
0	8140	74.331454498697	0.004499296933
0	8142	74.33595379563	0.019720835134
0	8150	74.355674630764	0.013937150915
0	8155	74.369611781679	0.036825189676
0	8161	74.406436971355	0.030601615685
0	8166	74.43703858704	0.004837538912
0	8168	74.441876125952	0.042360308445
0	8176	74.484236434397	0.078485411647
0	8182	74.562721846044	0.066056414599
0	8188	74.628778260643	0.016501239548
0	8193	74.645279500191	0.004522542129
0	8195	74.64980204232	0.099158627058
0	8203	74.748960669378	0.065220245569
0	8208	74.814180914947	0.04357255239
0	8213	74.857753467337	0.032583943816
0	8219	74.890337411153	0.019530911468
0	8224	74.909868322621	0.119682757224
0	8230	75.029551079845	0.009782849964
0	8235	75.039333929809	0.021239498831
0	8240	75.06057342864	0.03019508712
0	8245	75.09076851576	0.006825758533
0	8247	75.097594274293	0.027352303276
0	8257	75.124946577569	0.050067074567
0	8262	75.175013652136	0.162555178819
0	8268	75.337568830955	0.001624040661
0	8270	75.339192871616	0.090691306246
0	8278	75.429884177862	0.009773067803
0	8283	75.439657245665	0.032776796581
0	8290	75.472434042246	0.022563385488
0	8295	75.494997427734	0.023508235499
0	8300	75.518505663233	0.0086575745
0	8305	75.527163237733	0.043475761252
0	8310	75.570638998985	0.066835041156
0	8315	75.637474040141	0.014815810388
0	8320	75.652289850529	0.036788756127
0	8325	75.689078606656	0.137767826693
0	8332	75.826846433349	0.017708932384
0	8337	75.844555365733	0.034104783962
0	8342	75.878660149695	0.057080298271
0	8347	75.935740447966	0.040926971523
0	8352	75.976667419489	0.031274304344
0	8357	76.007941723833	0.07001882106
0	8362	76.077960544893	0.117161090444
0	8371	76.195121635337	0.047974491655
0	8376	76.243096126992	0.000729741295
0	8378	76.243825868287	0.049803570889
0	8386	76.293629439176	0.057258027127
0	8392	76.350887466303	0.14120763884
0	8400	76.492095105143	0.06861922546
0	8405	76.560714330603	0.001435600454
0	8407	76.562149931057	0.145933376015
0	8416	76.708083307072	0.090357360183
0	8422	76.798440667255	0.087296050134
0	8427	76.885736717389	0.139327887414
0	8435	77.025064604803	0.172487063324
0	8441	77.197551668127	0.127513868125
0	8447	77.325065536252	0.010558346948
0	8452	77.3356238832	0.021660699833
0	8457	77.357284583033	0.012380232554
0	8462	77.369664815587	0.008543403986
0	8467	77.378208219573	0.053835047719
0	8472	77.432043267292	0.001458304778
0	8474	77.43350157207	0.191172091582
0	8484	77.624673663652	0.011564372067
0	8489	77.636238035719	0.087168257034
0	8495	77.723406292753	0.01368928945
0	8500	77.737095582203	0.001438051056
0	8502	77.738533633259	0.278376599199
0	8513	78.016910232458	0.009505011825
0	8518	78.026415244283	0.105650389716
0	8526	78.132065633999	0.066741394558
0	8532	78.198807028557	0.058476474401
0	8537	78.257283502958	0.026228925474
0	8542	78.283512428432	0.046802229036
0	8548	78.330314657468	0.092636049775
0	8555	78.422950707243	0.014238271646
0	8560	78.437188978889	0.134645459715
0	8565	78.571834438604	0.094189662234
0	8571	78.666024100838	0.034188083768
0	8576	78.700212184606	0.018734527321
0	8581	78.718946711927	0.025166598276
0	8586	78.744113310203	0.075925024959
0	8592	78.820038335162	0.062088935012
0	8597	78.882127270174	0.097138872697
0	8602	78.979266142871	0.021773447926
0	8607	79.001039590797	0.025529396162
0	8612	79.026568986959	0.117116496367
0	8618	79.143685483326	0.052248318554
0	8626	79.19593380188	0.022870017474
0	8631	79.218803819354	0.018322917169
0	8636	79.237126736523	0.003853885024
0	8638	79.240980621547	0.053990766984
0	8646	79.294971388531	0.026571153976
0	8651	79.321542542507	0.058573136859
0	8656	79.380115679366	0.071052811947
0	8661	79.451168491313	0.015996728646
0	8666	79.467165219959	0.001344417195
0	8668	79.468509637154	0.03821210657
0	8676	79.506721743724	0.002378847515
0	8678	79.509100591239	0.149627099032
0	8687	79.658727690271	0.210493461129
0	8693	79.8692211514	0.043189231692
0	8698	79.912410383092	0.021055997098
0	8703	79.93346638019	0.081730013587
0	8708	80.015196393777	0.014985750291
0	8713	80.030182144068	0.220194545791
0	8721	80.250376689859	0.122148287608
0	8728	80.372524977467	0.125508267359
0	8733	80.498033244826	0.027062026766
0	8738	80.525095271592	0.023353611977
0	8743	80.548448883569	0.050019149431
0	8748	80.598468033	1.4751531e-05
0	8750	80.598482784531	0.014455954668
0	8755	80.612938739199	0.070551232255
0	8763	80.683489971454	0.036497947921
0	8768	80.719987919375	0.028569332207
0	8773	80.748557251582	0.033912853088
0	8778	80.78247010467	0.001328522805
0	8780	80.783798627475	0.02035057489
0	8789	80.804149202365	0.006223867672
0	8791	80.810373070037	0.02478713737
0	8800	80.835160207407	0.00327191673
0	8802	80.838432124137	0.003688781458
0	8804	80.842120905595	0.019638830884
0	8815	80.861759736479	0.033050757805
0	8820	80.894810494284	0.051934755639
0	8825	80.946745249923	0.197448952124
0	8832	81.144194202047	0.118864397037
0	8839	81.263058599084	0.017919033934
0	8844	81.280977633018	0.029050466886
0	8849	81.310028099904	0.137309536628
0	8855	81.447337636532	0.03948896279
0	8862	81.486826599322	0.027912584018
0	8867	81.51473918334	0.039290973586
0	8873	81.554030156926	0.05669805176
0	8878	81.610728208686	0.05819403919
0	8884	81.668922247876	0.165481951906
0	8891	81.834404199782	0.003049469306
0	8893	81.837453669088	0.00234998209
0	8895	81.839803651178	0.11058540235
0	8907	81.950389053528	0.049747326621
0	8915	82.000136380149	0.031902313949
0	8920	82.032038694098	0.024009892316
0	8925	82.056048586414	0.043424699952
0	8930	82.099473286366	0.006733392388
0	8932	82.106206678754	0.001349853806
0	8937	82.10755653256	0.074134295438
0	8945	82.181690827998	0.008332650606
0	8951	82.190023478604	0.277378247747
0	8958	82.467401726351	0.00057657667
0	8960	82.467978303021	0.042359287687
0	8969	82.510337590708	0.017291852815
0	8974	82.527629443523	0.034781599324
0	8980	82.562411042847	0.012385443691
0	8985	82.574796486538	0.042612607424
0	8990	82.617409093962	0.035559138801
0	8995	82.652968232763	0.002318783138
0	8997	82.655287015901	0.067194748773
0	9005	82.722481764674	0.000766490154
0	9007	82.723248254828	0.056751905304
0	9015	82.780000160132	0.000274196622
0	9017	82.780274356754	0.014894998917
0	9025	82.795169355671	0.032781698177
0	9030	82.827951053848	0.098097727822
0	9035	82.92604878167	0.066206275589
0	9040	82.992255057259	0.012308311071
0	9046	83.00456336833	0.013528970731
0	9051	83.018092339061	0.053266533226
0	9056	83.071358872287	0.008472509878
0	9061	83.079831382165	0.025833934819
0	9067	83.105665316984	0.017356157078
0	9072	83.123021474062	0.01873400377
0	9077	83.141755477832	0.0387309943
0	9083	83.180486472132	0.028147473701
0	9088	83.208633945833	0.171981452991
0	9094	83.380615398824	0.044351122221
0	9099	83.424966521045	0.038956544961
0	9106	83.463923066006	0.012526050238
0	9111	83.476449116244	0.063825487306
0	9116	83.54027460355	0.049514472803
0	9122	83.589789076353	0.065275569998
0	9129	83.655064646351	0.006967063297
0	9131	83.662031709648	0.033892970078
0	9140	83.695924679726	0.00547420715
0	9142	83.701398886876	0.117250607611
0	9154	83.818649494487	0.123472094098
0	9160	83.942121588585	0.269181927038
0	9170	84.211303515623	0.081374401918
0	9175	84.292677917541	0.039616562737
0	9181	84.332294480278	0.12466153532
0	9188	84.456956015598	0.051967802095
0	9193	84.508923817693	0.010986638079
0	9198	84.519910455772	0.02006118955
0	9203	84.539971645322	0.019055076966
0	9208	84.559026722288	0.031437825626
0	9213	84.590464547914	0.055521484536
0	9218	84.64598603245	0.017178446705
0	9223	84.663164479155	0.028746318216
0	9228	84.691910797371	0.083967868023
0	9234	84.775878665394	0.028281776085
0	9239	84.804160441479	0.00896317693
0	9244	84.813123618409	0.092972297028
0	9253	84.906095915437	0.073198234647
0	9258	84.979294150084	4.4442505e-05
0	9260	84.979338592589	0.012695305447
0	9265	84.992033898036	0.040851072859
0	9273	85.032884970895	0.119863538451
0	9278	85.152748509346	0.015572408614
0	9283	85.16832091796	0.095025877184
0	9289	85.263346795144	0.051352931821
0	9295	85.314699726965	0.012207377796
0	9300	85.326907104761	0.059375108958
0	9305	85.386282213719	0.014780418536
0	9310	85.401062632255	0.017254470234
0	9315	85.418317102489	0.020205789962
0	9320	85.438522892451	0.048649219075
0	9326	85.487172111526	0.068430028252
0	9331	85.555602139778	0.015920745554
0	9336	85.571522885332	0.020485060982
0	9341	85.592007946314	0.037900170334
0	9346	85.629908116648	0.029005148762
0	9351	85.65891326541	0.012046798305
0	9357	85.670960063715	0.032371513188
0	9363	85.703331576903	0.033762891785
0	9368	85.737094468688	0.109267491954
0	9374	85.846361960642	0.077930253764
0	9380	85.924292214406	0.163691014733
0	9385	86.087983229139	0.021047915691
0	9390	86.10903114483	0.08656788315
0	9396	86.19559902798	0.050985665664
0	9401	86.246584693644	0.037422044365
0	9406	86.284006738009	0.005898696113
0	9408	86.289905434122	0.084110710609
0	9417	86.374016144731	0.011792197283
0	9422	86.385808342014	0.051499427821
0	9427	86.437307769835	0.15912055563
0	9432	86.596428325465	0.173694614371
0	9439	86.770122939836	0.029580794448
0	9444	86.799703734284	0.02951071033
0	9449	86.829214444614	0.039181586018
0	9454	86.868396030632	0.086009906548
0	9459	86.95440593718	0.047295408731
0	9464	87.001701345911	0.042864248264
0	9469	87.044565594175	0.046882368953
0	9475	87.091447963128	0.022858194271
0	9480	87.114306157399	0.0653414226
0	9485	87.179647579999	0.025678458022
0	9490	87.205326038021	0.001396421528
0	9492	87.206722459549	0.005776407949
0	9494	87.212498867498	0.115825217788
0	9505	87.328324085286	0.120646872258
0	9511	87.448970957544	0.109810706437
0	9517	87.558781663981	0.104781687355
0	9523	87.663563351336	0.040333880758
0	9528	87.703897232094	0.060377048539
0	9533	87.764274280633	0.004274223802
0	9535	87.768548504435	0.023911508
0	9544	87.792460012435	0.00671775396
0	9546	87.799177766395	0.018064655377
0	9554	87.817242421772	0.167248203613
0	9560	87.984490625385	0.006335914581
0	9562	87.990826539966	0.004888206874
0	9567	87.99571474684	0.006375426719
0	9572	88.002090173559	0.05555427242
0	9580	88.057644445979	0.071847200441
0	9585	88.12949164642	0.013004890421
0	9590	88.142496536841	0.005020245743
0	9592	88.147516782584	0.072399828463
0	9600	88.219916611047	0.133590723909
0	9608	88.353507334956	0.079760191455
0	9613	88.433267526411	0.082707194946
0	9618	88.515974721357	0.185308274724
0	9623	88.701282996081	0.027648296225
0	9628	88.728931292306	0.007890416415
0	9633	88.736821708721	0.146068653443
0	9640	88.882890362164	0.08962581808
0	9646	88.972516180244	0.044882488933
0	9651	89.017398669177	0.041443593151
0	9657	89.058842262328	0.056575060563
0	9663	89.115417322891	0.087426784054
0	9668	89.202844106945	0.003752663066
0	9670	89.206596770011	0.095647032907
0	9678	89.302243802918	0.035667825039
0	9683	89.337911627957	0.060305365475
0	9690	89.398216993432	0.017538172845
0	9695	89.415755166277	0.041278571858
0	9700	89.457033738135	0.055615823672
0	9705	89.512649561807	0.037951886395
0	9710	89.550601448202	0.008126477668
0	9715	89.55872792587	0.092883945059
0	9720	89.651611870929	0.181925655821
0	9727	89.83353752675	0.084958114916
0	9732	89.918495641666	0.065751259986
0	9738	89.984246901652	0.047370258625
0	9743	90.031617160277	0.058352595414
0	9748	90.089969755691	0.017745665452
0	9753	90.107715421143	0.05443350893
0	9759	90.162148930073	0.030649612913
0	9764	90.192798542986	0.046427196505
0	9769	90.239225739491	0.323332138364
0	9779	90.562557877855	0.007861633805
0	9784	90.57041951166	0.14337261364
0	9789	90.7137921253	0.153687883135
0	9796	90.867480008435	0.008206086514
0	9801	90.875686094949	0.035728677726
0	9806	90.911414772675	0.108177206637
0	9812	91.019591979312	0.068583750129
0	9817	91.088175729441	0.038153624732
0	9822	91.126329354173	0.04304880707
0	9827	91.169378161243	0.01102559859
0	9832	91.180403759833	0.036535247512
0	9837	91.216939007345	0.018961945898
0	9842	91.235900953243	0.027036464848
0	9847	91.262937418091	0.010169744934
0	9852	91.273107163025	0.06185666565
0	9857	91.334963828675	0.016637231301
0	9862	91.351601059976	0.004924642706
0	9864	91.356525702682	0.048454123054
0	9872	91.404979825736	0.024590466161
0	9877	91.429570291897	0.141171330024
0	9885	91.570741621921	0.001332869952
0	9887	91.572074491873	0.0270905953
0	9895	91.599165087173	0.011110047997
0	9900	91.61027513517	0.27027942993
0	9906	91.8805545651	0.02350844687
0	9911	91.90406301197	0.034214939041
0	9916	91.938277951011	0.065053982307
0	9922	92.003331933318	0.108162959893
0	9927	92.111494893211	0.016314877802
0	9932	92.127809771013	0.008639981598
0	9937	92.136449752611	0.008774702468
0	9942	92.145224455079	0.109865863168
0	9948	92.255090318247	0.075908911662
0	9953	92.330999229909	0.142398120354
0	9958	92.473397350263	0.019492322973
0	9964	92.492889673236	0.076978089722
0	9971	92.569867762958	0.08933059982
0	9976	92.659198362778	0.01240588024
0	9981	92.671604243018	0.001668826737
0	9983	92.673273069755	0.034007091025
0	9993	92.70728016078	0.097137436306
0	9999	92.804417597086	0.039270124583
0	10004	92.843687721669	0.014353733959
0	10009	92.858041455628	0.019074241635
0	10014	92.877115697263	0.059078838356
0	10019	92.936194535619	0.008401073249
0	10025	92.944595608868	0.01166658501
0	10030	92.956262193878	0.069863295743
0	10037	93.026125489621	0.045126337652
0	10042	93.071251827273	0.059399505312
0	10047	93.130651332585	0.02105238705
0	10052	93.151703719635	0.004738496633
0	10054	93.156442216268	0.01609243921
0	10062	93.172534655478	0.068782781273
0	10067	93.241317436751	0.024369270601
0	10072	93.265686707352	0.011681430948
0	10077	93.2773681383	0.043584486756
0	10082	93.320952625056	0.072088124803
0	10087	93.393040749859	0.053133525518
0	10093	93.446174275377	0.006735197205
0	10095	93.452909472582	0.00131467518
0	10100	93.454224147762	0.064389250605
0	10109	93.518613398367	0.018688537704
0	10114	93.537301936071	0.13402539112
0	10120	93.671327327191	0.044794478921
0	10125	93.716121806112	0.018561179476
0	10130	93.734682985588	0.166185752499
0	10136	93.900868738087	0.079268049492
0	10142	93.980136787579	0.112299307457
0	10148	94.092436095036	0.034630457191
0	10153	94.127066552227	0.068818659434
0	10159	94.195885211661	0.14938210594
0	10165	94.345267317601	0.032803200416
0	10170	94.378070518017	0.112891426651
0	10176	94.490961944668	0.00466313254
0	10178	94.495625077208	0.000120548821
0	10180	94.495745626029	0.002651139405
0	10182	94.498396765434	0.040587688113
0	10196	94.538984453547	0.006052631304
0	10198	94.545037084851	0.085602566462
0	10208	94.630639651313	0.097102173094
0	10214	94.727741824407	0.019123465217
0	10219	94.746865289624	0.074715674398
0	10227	94.821580964022	0.039850361783
0	10233	94.861431325805	0.019117768438
0	10239	94.880549094243	0.183389539751
0	10245	95.063938633994	0.054990700129
0	10250	95.118929334123	0.015676233496
0	10255	95.134605567619	0.096305445251
0	10261	95.23091101287	0.044883003701
0	10266	95.275794016571	0.03762732969
0	10274	95.313421346261	0.005454352465
0	10276	95.318875698726	0.091627766832
0	10285	95.410503465558	0.018699877721
0	10290	95.429203343279	0.15081264143
0	10298	95.580015984709	0.061763832062
0	10303	95.641779816771	0.035706509316
0	10308	95.677486326087	0.021682608256
0	10313	95.699168934343	0.032825064453
0	10318	95.731993998796	0.030694066662
0	10323	95.762688065458	0.046549528867
0	10330	95.809237594325	0.023668106918
0	10335	95.832905701243	0.214985730603
0	10341	96.047891431846	0.000594865564
0	10343	96.04848629741	0.012949853215
0	10348	96.061436150625	0.018595066534
0	10356	96.080031217159	0.029135462523
0	10361	96.109166679682	0.021173876676
0	10367	96.130340556358	0.032567455688
0	10372	96.162908012046	0.162976477689
0	10379	96.325884489735	0.192111283567
0	10387	96.517995773302	0.088869985367
0	10392	96.606865758669	0.034169364885
0	10397	96.641035123554	0.010070226765
0	10403	96.651105350319	0.142903734538
0	10410	96.794009084857	0.019421425349
0	10415	96.813430510206	0.020402570757
0	10420	96.833833080963	0.079038196396
0	10425	96.912871277359	0.054163028274
0	10430	96.967034305633	0.016582979398
0	10436	96.983617285031	0.054376143876
0	10441	97.037993428907	0.001416241026
0	10443	97.039409669933	0.103540114766
0	10451	97.142949784699	0.006893093563
0	10453	97.149842878262	0.004436085137
0	10458	97.154278963399	0.021941078946
0	10466	97.176220042345	0.002088212315
0	10468	97.17830825466	0.048592236253
0	10478	97.226900490913	0.057305468186
0	10485	97.284205959099	0.069327496969
0	10491	97.353533456068	0.013429773203
0	10496	97.366963229271	0.109054073176
0	10501	97.476017302447	0.024358700356
0	10507	97.500376002803	0.173611673273
0	10515	97.673987676076	0.004394651633
0	10517	97.678382327709	0.158441179045
0	10525	97.836823506754	0.042621456547
0	10530	97.879444963301	0.008810021617
0	10536	97.888254984918	0.001387051053
0	10538	97.889642035971	0.058027717072
0	10546	97.947669753043	0.01705185937
0	10552	97.964721612413	0.025825335264
0	10557	97.990546947677	0.002526959398
0	10559	97.993073907075	0.060662645777
0	10567	98.053736552852	0.003898508112
0	10569	98.057635060964	0.020678312322
0	10577	98.078313373286	0.038007208294
0	10582	98.11632058158	0.026945889735
0	10587	98.143266471315	0.07056339286
0	10593	98.213829864175	0.059846886889
0	10598	98.273676751064	0.037528309974
0	10605	98.311205061038	0.01103096554
0	10610	98.322236026578	0.001626585339
0	10612	98.323862611917	0.009998826387
0	10617	98.333861438304	0.162539944014
0	10626	98.496401382318	0.03203722505
0	10631	98.528438607368	0.004308068439
0	10633	98.532746675807	0.029810578428
0	10641	98.562557254235	0.001198220805
0	10643	98.56375547504	0.039351240543
0	10651	98.603106715583	0.031837024407
0	10656	98.63494373999	0.084983370335
0	10662	98.719927110325	0.113068218873
0	10668	98.832995329198	0.007504459852
0	10670	98.84049978905	0.104925109073
0	10678	98.945424898123	0.004267409005
0	10680	98.949692307128	0.074672910246
0	10688	99.024365217374	0.038090836886
0	10693	99.06245605426	0.09204702874
0	10700	99.154503083	0.008407244222
0	10706	99.162910327222	0.040294079087
0	10711	99.203204406309	0.030091665756
0	10717	99.233296072065	0.00929043246
0	10722	99.242586504525	0.083646051679
0	10727	99.326232556204	0.024849510593
0	10732	99.351082066797	0.021484763413
0	10737	99.37256683021	0.011345623175
0	10742	99.383912453385	0.00208406218
0	10744	99.385996515565	0.003013696609
0	10746	99.389010212174	0.016619795829
0	10754	99.405630008003	0.043770293045
0	10762	99.449400301048	0.024450282555
0	10767	99.473850583603	0.035081240261
0	10772	99.508931823864	0.044962585805
0	10777	99.553894409669	0.007974859228
0	10782	99.561869268897	0.028267315659
0	10787	99.590136584556	0.090808340166
0	10793	99.680944924722	0.025508121941
0	10798	99.706453046663	0.049131819671
0	10805	99.755584866334	0.005332590169
0	10807	99.760917456503	0.048675032714
0	10815	99.809592489217	0.018313095874
0	10820	99.827905585091	0.016786575807
0	10825	99.844692160898	0.035533000094
0	10830	99.880225160992	0.003553045027
0	10833	99.883778206019	0.044804688811
0	10841	99.92858289483	0.054080827587
0	10846	99.982663722417	0.081985210562
0	10851	100.064648932979	0.060994455204
0	10857	100.125643388183	0.10458194857
0	10862	100.230225336753	0.02924687779
0	10867	100.259472214543	0.013192869597
0	10872	100.27266508414	0.100192441322
0	10877	100.372857525462	0.015673135597
0	10882	100.388530661059	0.017272308694
0	10887	100.405802969753	0.090045216437
0	10892	100.49584818619	0.108035396616
0	10897	100.603883582806	0.039522928377
0	10902	100.643406511183	0.074819604872
0	10907	100.718226116055	0.050006431959
0	10912	100.768232548014	0.03896767187
0	10917	100.807200219884	0.003271120186
0	10919	100.81047134007	0.002029136987
0	10921	100.812500477057	0.002395969206
0	10923	100.814896446263	0.031958919533
0	10938	100.846855365796	0.00086197382
0	10940	100.847717339616	0.004053955721
0	10942	100.851771295337	0.000512392633
0	10944	100.85228368797	0.328501345721
0	10958	101.180785033691	0.070675449596
0	10963	101.251460483287	0.084460055536
0	10968	101.335920538823	0.032428067831
0	10973	101.368348606654	0.067810774844
0	10978	101.436159381498	0.086080568784
0	10983	101.522239950282	0.14163073497
0	10988	101.663870685252	0.028243273958
0	10993	101.69211395921	0.121968326239
0	11000	101.814082285449	0.129908256813
0	11005	101.943990542262	0.001723129776
0	11007	101.945713672038	0.018686854168
0	11015	101.964400526206	0.049670256359
0	11020	102.014070782565	0.031023846339
0	11025	102.045094628904	0.094279910442
0	11030	102.139374539346	0.101810054179
0	11036	102.241184593525	0.020885203351
0	11041	102.262069796876	0.120175644015
0	11046	102.382245440891	0.100172625128
0	11051	102.482418066019	0.062361196724
0	11056	102.544779262743	0.025421130408
0	11062	102.570200393151	0.0385884622
0	11068	102.608788855351	0.008623716011
0	11073	102.617412571362	0.065921631534
0	11080	102.683334202896	0.009302983071
0	11085	102.692637185967	0.008113989977
0	11090	102.700751175944	0.173687105589
0	11097	102.874438281533	0.114068579186
0	11103	102.988506860719	0.217658458659
0	11109	103.206165319378	0.000679863355
0	11111	103.206845182733	0.047129342973
0	11119	103.253974525706	0.003755442936
0	11121	103.257729968642	0.060627707405
0	11129	103.318357676047	0.021992922885
0	11135	103.340350598932	0.039911480422
0	11140	103.380262079354	0.012714091564
0	11145	103.392976170918	0.20213253924
0	11152	103.595108710158	0.116364578639
0	11158	103.711473288797	0.020608545474
0	11163	103.732081834271	0.111850701985
0	11170	103.843932536256	0.049666980452
0	11175	103.893599516708	0.044517544252
0	11180	103.93811706096	0.128746526698
0	11185	104.066863587658	0.096723447808
0	11190	104.163587035466	0.05053598663
0	11195	104.214123022096	0.062231363723
0	11200	104.276354385819	0.086395230568
0	11205	104.362749616387	0.028384109708
0	11210	104.391133726095	0.04868898715
0	11215	104.439822713245	0.014589151004
0	11220	104.454411864249	0.113189463568
0	11227	104.567601327817	0.001198327941
0	11229	104.568799655758	0.008611502732
0	11234	104.57741115849	0.000548015063
0	11236	104.577959173553	0.073053236506
0	11249	104.651012410059	0.009334132407
0	11255	104.660346542466	0.027087799016
0	11260	104.687434341482	0.057451519887
0	11265	104.744885861369	0.090473230572
0	11271	104.835359091941	0.036111840456
0	11276	104.871470932397	0.0276132581
0	11282	104.899084190497	0.013079745793
0	11287	104.91216393629	0.044518020395
0	11293	104.956681956685	0.030329640511
0	11299	104.987011597196	0.021802667358
0	11304	105.008814264554	0.003513428265
0	11306	105.012327692819	0.035032893973
0	11314	105.047360586792	0.024168342133
0	11319	105.071528928925	0.022187427177
0	11325	105.093716356102	0.066003106094
0	11333	105.159719462196	0.003667894381
0	11335	105.163387356577	0.025951378438
0	11343	105.189338735015	0.117221498906
0	11348	105.306560233921	0.064446714673
0	11353	105.371006948594	0.043761416894
0	11358	105.414768365488	0.076389703871
0	11365	105.491158069359	0.107695300084
0	11371	105.598853369443	0.012568934497
0	11376	105.61142230394	0.009953142444
0	11381	105.621375446384	0.058713915453
0	11386	105.680089361837	0.033446739916
0	11391	105.713536101753	0.1382408416
0	11397	105.851776943353	0.005103331643
0	11399	105.856880274996	0.024672953162
0	11407	105.881553228158	0.063628454289
0	11412	105.945181682447	0.018152009121
0	11417	105.963333691568	0.036970295032
0	11422	106.0003039866	0.104189789009
0	11428	106.104493775609	0.00887540742
0	11433	106.113369183029	0.055857126785
0	11438	106.169226309814	0.004849876776
0	11440	106.17407618659	0.023643946723
0	11448	106.197720133313	0.01025411948
0	11453	106.207974252793	0.011616885718
0	11459	106.219591138511	0.020053079862
0	11464	106.239644218373	0.013742711834
0	11469	106.253386930207	0.032938084647
0	11474	106.286325014854	0.013288231446
0	11479	106.2996132463	0.014880329747
0	11485	106.314493576047	0.04243961532
0	11490	106.356933191367	0.092838874305
0	11496	106.449772065672	0.005178003668
0	11498	106.45495006934	0.022385477836
0	11506	106.477335547176	0.008432494154
0	11511	106.48576804133	0.064669982988
0	11516	106.550438024318	0.013282738318
0	11521	106.563720762636	0.11741248152
0	11526	106.681133244156	0.013613051908
0	11531	106.694746296064	0.003637319892
0	11533	106.698383615956	0.039758095787
0	11541	106.738141711743	0.116172151823
0	11546	106.854313863566	0.055122383746
0	11551	106.909436247312	0.028501507143
0	11556	106.937937754455	0.077559083846
0	11562	107.015496838301	0.022093911774
0	11567	107.037590750075	0.075596523257
0	11572	107.113187273332	0.014642650791
0	11578	107.127829924123	0.006667819304
0	11580	107.134497743427	0.015457179616
0	11588	107.149954923043	0.016324848265
0	11593	107.166279771308	0.039022501923
0	11599	107.205302273231	0.087416079559
0	11604	107.29271835279	0.012097797407
0	11609	107.304816150197	0.199195654219
0	11616	107.504011804416	0.034652198044
0	11621	107.53866400246	0.017129789408
0	11627	107.555793791868	0.048831301682
0	11632	107.60462509355	0.005420867017
0	11634	107.610045960567	0.01600313706
0	11642	107.626049097627	0.107776498278
0	11648	107.733825595905	0.250533996972
0	11657	107.984359592877	0.021967111088
0	11662	108.006326703965	0.010657613555
0	11667	108.01698431752	0.05810467737
0	11673	108.07508899489	0.00294296033
0	11675	108.07803195522	0.116398948256
0	11684	108.194430903476	0.039852925759
0	11689	108.234283829235	0.020396303913
0	11695	108.254680133148	0.012168003262
0	11700	108.26684813641	0.065974071482
0	11706	108.332822207892	0.040499428517
0	11712	108.373321636409	0.041070078264
0	11717	108.414391714673	0.016131941908
0	11722	108.430523656581	0.021560220584
0	11727	108.452083877165	0.045425142731
0	11734	108.497509019896	0.029438544353
0	11739	108.526947564249	0.068371729653
0	11744	108.595319293902	0.134610601665
0	11750	108.729929895567	0.114430933307
0	11756	108.844360828874	0.025648738714
0	11761	108.870009567588	0.033219216
0	11767	108.903228783588	0.051367288078
0	11772	108.954596071666	0.168138937096
0	11778	109.122735008762	0.03531823262
0	11783	109.158053241382	0.062244118209
0	11789	109.220297359591	0.008794429282
0	11794	109.229091788873	0.05431583471
0	11799	109.283407623583	0.000322600096
0	11801	109.283730223679	0.003737951266
0	11803	109.287468174945	0.04808736666
0	11814	109.335555541605	0.038786149492
0	11820	109.374341691097	0.013307349611
0	11825	109.387649040708	0.011347288882
0	11830	109.39899632959	0.023618112172
0	11836	109.422614441762	0.038107808555
0	11841	109.460722250317	0.069669353791
0	11847	109.530391604108	0.004426963112
0	11849	109.53481856722	0.035446175027
0	11857	109.570264742247	0.005721846402
0	11859	109.575986588649	0.043306212838
0	11868	109.619292801487	0.011648029911
0	11873	109.630940831398	0.009831073584
0	11878	109.640771904982	0.001137298781
0	11880	109.641909203763	0.070031046524
0	11889	109.711940250287	0.024185750428
0	11894	109.736126000715	0.009989987865
0	11899	109.74611598858	0.019013563782
0	11904	109.765129552362	0.08445018308
0	11909	109.849579735442	0.000810753095
0	11911	109.850390488537	0.045862104844
0	11920	109.896252593381	0.029805993787
0	11925	109.926058587168	0.010286448786
0	11930	109.936345035954	0.233967470028
0	11937	110.170312505982	0.013297624676
0	11942	110.183610130658	0.010357020105
0	11947	110.193967150763	0.079296977495
0	11952	110.273264128258	0.011497682693
0	11957	110.284761810951	0.008029089908
0	11962	110.292790900859	0.0872201167
0	11970	110.380011017559	0.044525833417
0	11975	110.424536850976	0.025689401837
0	11980	110.450226252813	0.04188735216
0	11985	110.492113604973	0.03208164634
0	11990	110.524195251313	0.095210913739
0	11996	110.619406165052	0.062505264667
[...]
19	22831	211.270023089868	0.0051863362660774
19	22832	211.275209426134	0.96607973935533
19	22913	212.241289165489	4.7107004788741
19	23429	216.951989644363	0.12608725159334
19	23451	217.078076895956	3.0793445911983
19	23764	220.157421487154	0.66574792832284
19	23837	220.823169415477	0.75231954619599
19	23915	221.575488961673	0.0037655978965459
19	23916	221.57925455957	0.71740697903386
19	23996	222.296661538604	1.3834679707068
19	24137	223.680129509311	0.41767902991008
19	24200	224.097808539221	0.21724648197943
19	24223	224.3150550212	1.1525567362201
19	24382	225.46761175742	5.8595914800882
19	24919	231.327203237508	3.1873658315821
19	25302	234.51456906909	2.5786102187957
19	25513	237.093179287886	0.44634645192365
19	25580	237.53952573981	2.1319836259974
19	25812	239.671509365807	0.89447588856103
19	25906	240.565985254368	5.3445563418769
19	26570	245.910541596245	0.1200784901667
19	26593	246.030620086412	0.052164478359003
19	26595	246.082784564771	1.7456016615066
19	26796	247.828386226278	0.10412685754281
19	26799	247.932513083821	0.16309156162584
19	26825	248.095604645447	0.13640939655066
19	26858	248.232014041998	2.5381595219741
19	27112	250.770173563972	1.4344289724752
19	27263	252.204602536447	0.062417951764503
19	27266	252.267020488212	0.33382725847898
19	27295	252.600847746691	1.9569576657371
19	27495	254.557805412428	7.2282355877164
19	28257	261.786041000144	0.92576440749372
19	28367	262.711805407638	3.4461424861216
19	28686	266.15794789376	2.2380852182181
19	28934	268.396033111978	1.4466021133199
19	29063	269.842635225298	2.7906785315969
19	29379	272.633313756895	1.8168895177172
19	29603	274.450203274612	2.1655230141822
19	29821	276.615726288794	1.7160892317614
19	29969	278.331815520555	3.8350979998238
19	30377	282.166913520379	3.594819970073
19	30737	285.761733490452	2.6323001226154
19	31072	288.394033613067	1.050408024061
19	31209	289.444441637128	1.0941402414908
19	31316	290.538581878619	5.3720338814842
19	31902	295.910615760103	2.2574534582336
19	32174	298.168069218337	0.69759114200365
19	32246	298.865660360341	3.8396309998012
19	32597	302.705291360142	3.8257071837262
19	33076	306.530998543868	4.3544263531995
19	33566	310.885424897067	0.95427659954171
19	33666	311.839701496609	1.800713815286
19	33843	313.640415311895	0.10085633238165
19	33862	313.741271644277	0.86583597912656
19	33943	314.607107623404	0.24558842927304
19	33970	314.852696052677	4.3430333188323
19	34417	319.195729371509	3.3146636182909
19	34827	322.5103929898	0.4380602921471
19	34873	322.948453281947	1.491910222198
19	35039	324.440363504145	3.3759969467872
19	35389	327.816360450932	1.3695238796901
19	35512	329.185884330622	4.1083662418339
19	36011	333.294250572456	2.5751936432358
19	36219	335.869444215692	3.6822239651776
19	36638	339.55166818087	2.0726425375967
19	36832	341.624310718467	2.7125582424981
19	37192	344.336868960965	3.9625357863395
19	37638	348.299404747304	4.5940206805574
19	38065	352.893425427861	0.87403440745332
19	38161	353.767459835314	3.7628756419292
19	38549	357.530335477243	1.3135489960263
19	38715	358.843884473269	0.17622169060525
19	38754	359.020106163874	1.4086681976385
19	38909	360.428774361513	3.4616992002164
19	39299	363.890473561729	4.1076619105685
19	39722	367.998135472298	0.99776495396939
19	39765	368.995900426267	0.47704783912803
19	39805	369.472948265395	1.2579282563628
19	39923	370.730876521758	2.9855546220069
19	40243	373.716431143765	1.0968235062118
19	40383	374.813254649977	1.9280808369676
19	40596	376.741335486945	0.47249799070694
19	40705	377.213833477652	0.78244125768599
19	40807	377.996274735338	0.22585634686779
19	40844	378.222131082206	3.1843090102347
19	41194	381.406440092441	2.4108959004593
19	41484	383.8173359929	3.9856904519179
19	41946	387.803026444818	2.5878122773026
19	42249	390.390838722121	0.40227350586992
19	42322	390.793112227991	1.4137684877731
19	42480	392.206880715764	2.9425521872717
19	42799	395.149432903036	7.362513231691
20	1689	15.159159403383	1.2742240823829
20	1869	16.433383485766	0.45801567259359
20	1891	16.89139915836	0.045415160188471
20	1898	16.936814318548	3.3558805086289
20	2285	20.292694827177	0.93723285300359
20	2380	21.229927680181	2.7763754395289
20	2656	24.00630311971	3.3285121796674
20	2994	27.334815299377	0.9953783271001
20	3088	28.330193626477	1.8663357553952
20	3262	30.196529381872	0.5797286388191
20	3327	30.776258020691	3.2787144910242
20	3653	34.054972511715	1.9007003402298
20	3823	35.955672851945	0.84806147290781
20	3911	36.803734324853	0.92007261254142
20	4012	37.723806937394	2.4862596888463
20	4262	40.21006662624	0.25529227447559
20	4284	40.465358900716	0.62612728971226
20	4376	41.091486190428	1.8725870424519
20	4647	42.96407323288	2.4834682002919
20	4898	45.447541433172	5.9931402959259
20	5622	51.440681729098	2.392363072812
20	5866	53.83304480191	2.9772898655778
20	6180	56.810334667488	1.2065004304802
20	6349	58.016835097968	0.94740135812215
20	6472	58.96423645609	0.079966276547478
20	6484	59.044202732637	0.096302885124242
20	6491	59.140505617761	0.018944729823918
20	6494	59.159450347585	3.9930996325143
20	6930	63.152549980099	5.833659697654
20	7593	68.986209677753	0.13586145234871
20	7609	69.122071130102	3.3651511168612
20	7955	72.487222246963	0.16880948124929
20	7978	72.656031728212	1.2171882461308
20	8096	73.873219974343	1.5907608772221
20	8289	75.463980851565	0.35992595748958
20	8331	75.823906809055	0.92585018504455
20	8421	76.7497569941	0.23743164194172
20	8433	76.987188636042	1.3026153342695
20	8544	78.289803970311	0.059851119029805
20	8553	78.349655089341	1.3041492045178
20	8686	79.653804293859	0.52804560719878
20	8720	80.181849901058	0.14314933037584
20	8726	80.324999231434	1.3065516682957
20	8883	81.63155089973	2.2026456791512
20	9159	83.834196578881	1.9782750385868
20	9373	85.812471617468	6.6976898080333
20	9970	92.510161425501	0.96905667917885
20	10108	93.47921810468	1.3940212644995
20	10238	94.873239369179	0.28342702300863
20	10260	95.156666392188	2.0742147031023
20	10480	97.23088109529	1.4874711790202
20	10661	98.71835227431	4.0597705362768
20	11096	102.778122810587	0.88499305634133
20	11157	103.663115866928	2.7389181407951
20	11495	106.402034007723	2.0634772078869
20	11732	108.46551121561	2.3293939838795
20	12010	110.79490519949	3.6871306335318
20	12346	114.482035833022	0.24397988786636
20	12357	114.726015720888	0.39935881038629
20	12408	115.125374531274	0.37534088957455
20	12441	115.500715420849	0.67990268931605
20	12515	116.180618110165	7.8004197821471
20	13380	123.981037892312	1.0706183940987
20	13497	125.051656286411	1.2157779107615
20	13633	126.267434197173	0.030061475192016
20	13634	126.297495672365	6.5453924889244
20	14338	132.842888161289	1.8211251337662
20	14549	134.664013295055	0.74812104832827
20	14642	135.412134343383	2.6184958494606
20	14877	138.030630192844	0.57880020068004
20	14942	138.609430393524	2.5407066866383
20	15167	141.150137080162	1.88767622791
20	15353	143.037813308072	2.5790620284383
20	15645	145.61687533651	1.3635003689918
20	15810	146.980375705502	4.4802801188149
20	16241	151.460655824317	0.68266930629751
20	16294	152.143325130615	0.18464592798233
20	16317	152.327971058597	2.3308714331488
20	16599	154.658842491746	1.4751660983581
20	16744	156.134008590104	2.9819432492277
20	17066	159.115951839332	0.81389618105493
20	17135	159.929848020387	2.8429600720854
20	17406	162.772808092472	0.55541455875899
20	17441	163.328222651231	2.57378790943
20	17703	165.902010560661	0.19656052122071
20	17743	166.098571081882	0.077077023267284
20	17753	166.175648105149	5.9668980527571
20	18371	172.142546157906	0.55851873575449
20	18414	172.70106489366	3.8039844374657
20	18781	176.505049331126	1.6032053154314
20	19001	178.108254646557	0.78633679249607
20	19079	178.894591439053	0.44308479451063
20	19173	179.337676233564	1.1097795504036
20	19297	180.447455783968	1.0855010746949
20	19405	181.532956858663	4.3492956838889
20	19857	185.882252542552	0.38557947881186
20	19911	186.267832021364	0.62904242952457
20	19989	186.896874450889	3.8749414387399
20	20423	190.771815889629	1.2671742712143
20	20611	192.038990160843	4.2795277129719
20	21126	196.318517873815	1.0773226360774
20	21237	197.395840509892	4.8891592810952
20	21865	202.284999790987	1.4318923666458
20	22040	203.716892157633	1.821539456556
20	22203	205.538431614189	0.84132598916238
20	22309	206.379757603351	5.2130096417793
20	22869	211.59276724513	0.46706957893419
20	22910	212.059836824064	2.2489973550579
20	23117	214.308834179122	1.3480829666201
20	23238	215.656917145742	0.89449756908159
20	23354	216.551414714824	0.26679162697833
20	23407	216.818206341802	2.652609718535
20	23696	219.470816060337	1.4156309728366
20	23848	220.886447033174	2.9490479211804
20	24172	223.835494954354	0.076287754858818
20	24178	223.911782709213	6.4818489110321
20	24843	230.393631620245	3.8750166348768
20	25268	234.268648255122	2.4901369171509
20	25480	236.758785172273	0.71627580001103
20	25577	237.475060972284	5.8759658971567
20	26275	243.351026869441	3.8694158603215
20	26731	247.220442729763	0.41710661258567
20	26764	247.637549342349	1.1229909837394
20	26898	248.760540326088	0.22661742286245
20	26943	248.98715774895	1.4025829253091
20	27084	250.389740674259	3.2968291250501
20	27411	253.686569799309	0.51916422999472
20	27443	254.205734029304	7.2358909858708
20	28210	261.441625015175	0.43962789766928
20	28278	261.881252912844	2.4531705278523
20	28518	264.334423440696	1.1085167890786
20	28623	265.442940229775	1.9448754262364
20	28858	267.387815656011	2.5216276893117
20	29069	269.909443345323	0.72569397530074
20	29149	270.635137320624	0.2404046911463
20	29170	270.87554201177	3.5988933742131
20	29604	274.474435385983	2.7686349385214
20	29885	277.243070324504	1.6025236403702
20	30037	278.845593964874	1.7103415884562
20	30176	280.55593555333	1.0886287036976
20	30321	281.644564257028	1.3040570770736
20	30451	282.948621334102	1.6864223481971
20	30633	284.635043682299	0.95068221486639
20	30730	285.585725897165	0.078260517739846
20	30731	285.663986414905	1.0092010107599
20	30866	286.673187425665	4.5431529658287
20	31374	291.216340391494	1.1144440572677
20	31521	292.330784448762	4.7654444099773
20	32073	297.096228858739	4.1797881877323
20	32440	301.276017046471	2.4424078447856
20	32762	303.718424891257	0.38684741582906
20	32786	304.105272307086	0.43905276692684
20	32827	304.544325074013	0.016304487241155
20	32828	304.560629561254	2.3073667358372
20	33133	306.867996297091	0.42607223423763
20	33168	307.294068531329	0.39207347778604
20	33224	307.686142009115	5.9503517673956
20	33839	313.636493776511	0.61188032998091
20	33906	314.248374106492	0.44183219095748
20	33949	314.690206297449	0.20141524680756
20	33973	314.891621544257	0.23187032763352
20	33999	315.123491871891	2.8319509982474
20	34307	317.955442870138	2.5123977586154
20	34574	320.467840628753	3.278625182287
20	34964	323.74646581104	1.9598340691074
20	35181	325.706299880147	6.4413230924481
20	35866	332.147622972595	1.6777858137143
20	36074	333.825408786309	3.7516384741635
20	36360	337.577047260473	0.074858916717454
20	36369	337.65190617719	1.21224384647
20	36516	338.86415002366	0.91639178396336
20	36656	339.780541807623	0.073449599085157
20	36663	339.853991406708	0.38601971930372
20	36696	340.240011126012	0.47828703271141
20	36758	340.718298158723	0.79800861329858
20	36818	341.516306772022	2.9812928982087
20	37197	344.497599670231	2.048080600959
20	37409	346.54568027119	5.2747032737281
20	37987	351.820383544918	2.2059656490838
20	38183	354.026349194002	4.8211396466359
20	38716	358.847488840638	2.8479392326893
20	39081	361.695428073327	0.36010351347769
20	39121	362.055531586805	0.97594227023574
20	39202	363.031473857041	0.64205876882407
20	39284	363.673532625865	0.32085899005937
20	39316	363.994391615924	0.93739347366754
20	39405	364.931785089592	0.30233330062491
20	39448	365.234118390217	1.7522289412339
20	39602	366.986347331451	1.0471924859616
20	39723	368.033539817413	1.6427353155748
20	39823	369.676275132988	1.7766065172748
20	39967	371.452881650263	1.1377624231527
20	40118	372.590644073416	1.9820254504066
20	40371	374.572669523823	0.092738340280494
20	40382	374.665407864103	3.4900654968792
20	40825	378.155473360982	2.6359762265422
20	41090	380.791449587524	2.3336189018945
20	41395	383.125068489418	5.1875039943082
20	42020	388.312572483726	3.6427275459819
20	42440	391.955300029708	2.8670487488433
20	42756	394.822348778551	0.021563580145722
20	42757	394.843912358697	0.81216122088311
20	42839	395.65607357958	1.4786404864964
20	43015	397.134714066076	0.014214069474055
20	43016	397.14892813555	1.6477842096072
20	43184	398.796712345157	0.78563225138637
20	43296	399.582344596543	0.81085481450243
21	2012	18.037792278491	3.7948600019854
21	2435	21.832652280476	7.2274168759242
21	3150	29.0600691564	0.26630106428483
21	3177	29.326370220685	0.89490859738196
21	3263	30.221278818067	1.0341969160882
21	3362	31.255475734155	0.36953526340282
21	3411	31.625010997558	6.0079590339276
21	4004	37.632970031486	0.42853733635657
21	4050	38.061507367843	4.8023412296015
21	4636	42.863848597444	1.6971021946997
21	4813	44.560950792144	1.0728632196236
21	4924	45.633814011768	1.4675401117303
21	5074	47.101354123498	0.38147446820682
21	5128	47.482828591705	0.30200884822084
21	5167	47.784837439926	0.41336854634521
21	5201	48.198205986271	0.9727411896272
21	5333	49.170947175898	2.1407273910066
21	5620	51.311674566905	0.83316833788148
21	5685	52.144842904786	1.4024266150582
21	5828	53.547269519844	1.7576864571911
21	6044	55.304955977035	1.3302036176826
21	6167	56.635159594718	0.22475400267655
21	6182	56.859913597395	0.42365217107533
21	6251	57.28356576847	0.31779153367848
21	6304	57.601357302148	1.3558361091162
21	6471	58.957193411264	0.25579268321743
21	6503	59.212986094481	1.7535618258343
21	6722	60.966547920315	0.80072541018167
21	6802	61.767273330497	5.4563481421033
21	7372	67.2236214726	0.17543701053465
21	7393	67.399058483135	0.79706273279929
21	7489	68.196121215934	9.9201515773077
21	8525	78.116272793242	3.8590114310928
21	8912	81.975284224335	2.372987488826
21	9186	84.348271713161	3.1196310093341
21	9516	87.467902722495	10.185499664974
21	10514	97.653402387469	1.468747040434
21	10698	99.122149427903	2.6784037333796
21	10999	101.800553161283	6.9682805551934
21	11755	108.768833716476	0.44569705759152
21	11788	109.214530774068	0.84208870026625
21	11935	110.056619474334	1.0226510770769
21	12043	111.079270551411	3.9082950305448
21	12391	114.987565581956	3.2652292406845
21	12786	118.252794822641	6.3252035122705
21	13455	124.577998334911	1.4843467964068
21	13621	126.062345131318	0.57607841679349
21	13667	126.638423548111	3.2895618576795
21	13997	129.92798540579	1.5206162183359
21	14141	131.448601624126	0.30229647453309
21	14191	131.750898098659	0.63115650249887
21	14279	132.382054601158	6.2580676864856
21	14946	138.640122287644	1.3338389289482
21	15069	139.973961216592	0.89922644929471
21	15144	140.873187665887	2.8996217521502
21	15459	143.772809418037	0.53653201520506
21	15523	144.309341433242	0.25914107260937
21	15541	144.568482505851	1.1159082182566
21	15646	145.684390724108	5.6275331042303
21	16235	151.311923828338	1.0010250460896
21	16316	152.312948874428	0.021073179735737
21	16318	152.334022054164	0.29080924533237
21	16359	152.624831299496	0.38633011351712
21	16389	153.011161413013	1.2150874629827
21	16558	154.226248875996	0.86599409652002
21	16620	155.092242972516	2.4743396948332
21	16901	157.566582667349	1.013907543722
21	17021	158.580490211071	1.3206876008919
21	17134	159.901177811963	0.4658613097332
21	17171	160.367039121696	0.83733233542291
21	17269	161.204371457119	1.0399283321304
21	17358	162.244299789249	1.8648607171712
21	17507	164.10916050642	2.6332242952263
21	17795	166.742384801646	5.191487336025
21	18355	171.933872137671	4.2203835679968
21	18738	176.154255705668	1.9877291249633
21	19002	178.141984830631	1.557779627905
21	19213	179.699764458536	0.21668951429749
21	19222	179.916453972833	2.1584967972953
21	19488	182.074950770128	0.92283772093921
21	19576	182.997788491067	4.9158341122472
21	20076	187.913622603314	2.9033325060046
21	20424	190.816955109319	1.3197881298348
21	20617	192.136743239154	0.39260427659061
21	20669	192.529347515745	0.32866128472191
21	20714	192.858008800467	5.672072057802
21	21414	198.530080858269	2.2547474127217
21	21701	200.784828270991	0.2399642833903
21	21724	201.024792554381	1.1983940166571
21	21843	202.223186571038	1.041211885287
21	21976	203.264398456325	4.4085658347882
21	22454	207.672964291113	2.8440084566783
21	22735	210.516972747791	1.6221744073133
21	22911	212.139147155104	1.6013411453517
21	23080	213.740488300456	2.3832409912121
21	23309	216.123729291668	0.10511089537604
21	23330	216.228840187044	1.2305882380492
21	23485	217.459428425093	4.4830980469057
21	23965	221.942526471999	1.0844069208372
21	24081	223.026933392836	1.434639324374
21	24260	224.46157271721	1.9708964844295
21	24462	226.43246920164	0.089189465082806
21	24479	226.521658666723	2.8276398501254
21	24765	229.349298516848	0.79729113035703
21	24828	230.146589647205	3.7216266173577
21	25231	233.868216264563	1.1875318780626
21	25334	235.055748142626	1.2249030510205
21	25449	236.280651193647	12.310707905911
21	26889	248.591359099558	2.0875710927189
21	27106	250.678930192277	5.3903347132828
21	27657	256.06926490556	3.3939652316458
21	28043	259.463230137206	4.6779300578096
21	28483	264.141160195016	7.1761555600687
21	29216	271.317315755085	0.29126086865067
21	29280	271.608576623736	0.21229553298264
21	29304	271.820872156719	1.8771603107266
21	29529	273.698032467446	1.4762854626659
21	29674	275.174317930112	3.3504461605147
21	30008	278.524764090627	0.062052291816656
21	30010	278.586816382444	1.6023323118408
21	30139	280.189148694285	0.075647274114555
21	30147	280.2647959684	6.5166646080897
21	30887	286.78146057649	0.0064812763427624
21	30891	286.787941852833	5.1299141800599
21	31428	291.917856032893	2.9170522246162
21	31761	294.834908257509	8.1157190692483
21	32650	302.950627326757	1.9861767805186
21	32876	304.936804107276	0.16605221182715
21	32917	305.102856319103	2.9657645667992
21	33253	308.068620885902	0.41503756822973
21	33286	308.483658454132	1.7735955258831
21	33498	310.257253980015	0.5414354018565
21	33557	310.798689381871	0.44675529533211
21	33596	311.245444677203	8.0286095022185
21	34418	319.274054179421	1.6708751015518
21	34647	320.944929280973	0.67538128326104
21	34732	321.620310564234	5.2581790782856
21	35275	326.87848964252	0.67307994922318
21	35356	327.551569591743	0.77621228519816
21	35436	328.327781876941	0.50339473680665
21	35483	328.831176613748	0.83740318626036
21	35531	329.668579800008	4.0691323238829
21	36073	333.737712123891	0.55946815086665
21	36116	334.297180274758	0.37049022318107
21	36138	334.667670497939	4.9347546235395
21	36649	339.602425121479	3.0945132526563
21	36936	342.696938374135	1.7268816024567
21	37194	344.423819976592	0.78338705408924
21	37305	345.207207030681	2.0444762483815
21	37464	347.251683279063	2.7952303397565
21	37842	350.046913618819	3.4660222320894
21	38119	353.512935850908	5.1339800688502
21	38693	358.646915919758	4.648534656982
21	39223	363.29545057674	1.5939508746903
21	39394	364.88940145143	2.7842862034451
21	39704	367.673687654875	2.3828164352845
21	39866	370.056504090159	2.1465347869042
21	40073	372.203038877063	0.84990829310701
21	40159	373.05294717017	0.51352215895559
21	40226	373.566469329126	5.8569307880962
21	40959	379.423400117222	0.036829863652603
21	40970	379.460229980875	0.12584152674107
21	40987	379.586071507616	2.783160416006
21	41314	382.369231923622	1.6831682767402
21	41510	384.052400200362	1.0724993605397
21	41635	385.124899560902	1.8578052202625
21	41844	386.982704781165	0.6507319423005
21	41919	387.633436723465	0.2882921868862
21	41968	387.921728910351	1.0076564719106
21	42073	388.929385382262	0.46248300089869
21	42142	389.391868383161	1.0465445254688
21	42255	390.43841290863	0.49044681453533
21	42328	390.928859723165	0.04576552377994
21	42334	390.974625246945	2.4359222807765
21	42606	393.410547527721	0.35664665795999
21	42658	393.767194185681	1.6867818179698
21	42828	395.453976003651	6.0794503046947

