version 2
run Nonmonitoring-exponential-560-20210224-17:49:31-27085
attr configname Nonmonitoring-exponential
attr datetime 20210224-17:49:31
attr experiment Nonmonitoring-exponential
attr inifile aerocom.ini
attr iterationvars $0=50
attr iterationvarsf 50-
attr measurement $0=50
attr network Aerocom
attr processid 27085
attr repetition 60
attr replication #60
attr resultdir results
attr runnumber 560
attr seedset 60
param **.t 2s
param **.k 50ms
param **.X 0.05s
param **.m 1s
param **.tDistribution "\"exponential\""
param **.operationMode 1
param **.s "70 byte"
param **.dimPoolMax 10000
param **.dimPoolMin 8000
param **.nDL 16
param **.nA 1
param **.DLMaxCapacity 0
param **.trasmitting false

vector 0 Aerocom.aircraft[0].packetGenerator arrivalTime:vector ETV
attr "" ""
attr source computeArrivalTime
vector 1 Aerocom.aircraft[0].linkSelector waitingTime:vector ETV
attr "" ""
attr source computeWaitingTime
vector 2 Aerocom.aircraft[0].linkSelector queueLength:vector ETV
attr "" ""
attr source computeQueueLength
vector 3 Aerocom.aircraft[0].dataLink[8] actualCapacity:vector ETV
attr "" ""
attr source computeActualCapacity
vector 4 Aerocom.aircraft[0].linkSelector serviceTime:vector ETV
attr "" ""
attr source computeServiceTime
vector 5 Aerocom.aircraft[0].linkSelector responseTime:vector ETV
attr "" ""
attr source computeResponseTime
vector 6 Aerocom.aircraft[0].dataLink[1] tDistribution:vector ETV
attr "" ""
attr source computeTDistribution
vector 7 Aerocom.aircraft[0].dataLink[13] tDistribution:vector ETV
attr "" ""
attr source computeTDistribution
vector 8 Aerocom.aircraft[0].dataLink[7] tDistribution:vector ETV
attr "" ""
attr source computeTDistribution
vector 9 Aerocom.aircraft[0].dataLink[6] tDistribution:vector ETV
attr "" ""
attr source computeTDistribution
vector 10 Aerocom.aircraft[0].dataLink[5] tDistribution:vector ETV
attr "" ""
attr source computeTDistribution
vector 11 Aerocom.aircraft[0].dataLink[15] tDistribution:vector ETV
attr "" ""
attr source computeTDistribution
vector 12 Aerocom.aircraft[0].dataLink[9] tDistribution:vector ETV
attr "" ""
attr source computeTDistribution
vector 13 Aerocom.aircraft[0].dataLink[8] tDistribution:vector ETV
attr "" ""
attr source computeTDistribution
vector 14 Aerocom.aircraft[0].dataLink[12] tDistribution:vector ETV
attr "" ""
attr source computeTDistribution
vector 15 Aerocom.aircraft[0].dataLink[4] tDistribution:vector ETV
attr "" ""
attr source computeTDistribution
vector 16 Aerocom.aircraft[0].dataLink[2] tDistribution:vector ETV
attr "" ""
attr source computeTDistribution
vector 17 Aerocom.aircraft[0].dataLink[10] tDistribution:vector ETV
attr "" ""
attr source computeTDistribution
vector 18 Aerocom.aircraft[0].dataLink[3] tDistribution:vector ETV
attr "" ""
attr source computeTDistribution
vector 19 Aerocom.aircraft[0].dataLink[11] tDistribution:vector ETV
attr "" ""
attr source computeTDistribution
vector 20 Aerocom.aircraft[0].dataLink[14] tDistribution:vector ETV
attr "" ""
attr source computeTDistribution
vector 21 Aerocom.aircraft[0].dataLink[0] tDistribution:vector ETV
attr "" ""
attr source computeTDistribution
0	1156	10.044725940238	0.04589414307
0	1161	10.090620083308	0.010540584017
0	1166	10.101160667325	0.002664774889
0	1168	10.103825442214	0.039641320735
0	1176	10.143466762949	0.111262466467
0	1183	10.254729229416	0.147084143864
0	1190	10.40181337328	0.021264898981
0	1195	10.423078272261	0.036390411434
0	1200	10.459468683695	0.019657861745
0	1205	10.47912654544	0.145356638056
0	1211	10.624483183496	0.052444640045
0	1216	10.676927823541	0.054966232091
0	1223	10.731894055632	0.029575439248
0	1228	10.76146949488	0.198713297742
0	1234	10.960182792622	0.027218123142
0	1239	10.987400915764	0.084824071532
0	1245	11.072224987296	0.052122015709
0	1251	11.124347003005	0.127138937539
0	1258	11.251485940544	0.16766668348
0	1264	11.419152624024	0.016522384779
0	1269	11.435675008803	0.088154547783
0	1274	11.523829556586	0.009433766362
0	1279	11.533263322948	0.002861743131
0	1281	11.536125066079	0.014571043051
0	1289	11.55069610913	0.047455839169
0	1294	11.598151948299	0.041367584864
0	1299	11.639519533163	0.040135029885
0	1304	11.679654563048	0.073218593991
0	1309	11.752873157039	0.004988330021
0	1311	11.75786148706	0.032030390751
0	1320	11.789891877811	0.076137095921
0	1325	11.866028973732	0.012361726464
0	1330	11.878390700196	0.136639847317
0	1335	12.015030547513	0.001831537494
0	1337	12.016862085007	0.056244278212
0	1345	12.073106363219	0.021951006443
0	1350	12.095057369662	0.046301449384
0	1355	12.141358819046	0.005581549939
0	1357	12.146940368985	0.025002417603
0	1365	12.171942786588	0.091996904958
0	1370	12.263939691546	0.061291369635
0	1375	12.325231061181	0.026732143213
0	1380	12.351963204394	0.022813336664
0	1385	12.374776541058	0.004897304953
0	1387	12.379673846011	0.125402286324
0	1396	12.505076132335	0.031132918006
0	1402	12.536209050341	0.034452164465
0	1407	12.570661214806	0.075869751358
0	1413	12.646530966164	0.027220827139
0	1418	12.673751793303	0.105513171258
0	1423	12.779264964561	0.039709909396
0	1428	12.818974873957	0.038665346442
0	1433	12.857640220399	0.16828431386
0	1440	13.025924534259	0.004717284422
0	1442	13.030641818681	0.023542853271
0	1450	13.054184671952	0.114414627721
0	1456	13.168599299673	0.048403328403
0	1461	13.217002628076	0.023507062435
0	1467	13.240509690511	0.045708090742
0	1475	13.286217781253	0.148453994035
0	1482	13.434671775288	0.068323490458
0	1488	13.502995265746	0.029037248034
0	1493	13.53203251378	0.070254205022
0	1498	13.602286718802	0.269409443144
0	1505	13.871696161946	0.026519895126
0	1510	13.898216057072	0.068104099216
0	1515	13.966320156288	0.00951174923
0	1520	13.975831905518	0.12898419426
0	1526	14.104816099778	0.211034026552
0	1533	14.31585012633	0.064953149952
0	1539	14.380803276282	0.008338978907
0	1544	14.389142255189	0.025792091633
0	1549	14.414934346822	0.055748955401
0	1554	14.470683302223	0.056595675913
0	1559	14.527278978136	0.005272920762
0	1561	14.532551898898	0.056284930106
0	1569	14.588836829004	0.044396835043
0	1574	14.633233664047	0.03104559693
0	1579	14.664279260977	0.560299056676
0	1592	15.224578317653	0.055965873132
0	1598	15.280544190785	0.013163854542
0	1603	15.293708045327	0.011911751074
0	1608	15.305619796401	0.01032732559
0	1613	15.315947121991	0.003741777861
0	1615	15.319688899852	0.049677254746
0	1623	15.369366154598	0.050467360092
0	1628	15.41983351469	0.012586754537
0	1633	15.432420269227	0.000153642902
0	1635	15.432573912129	0.003206333193
0	1637	15.435780245322	0.022423962417
0	1648	15.458204207739	0.058020801016
0	1653	15.516225008755	0.014511888856
0	1658	15.530736897611	0.074647635763
0	1663	15.605384533374	0.001295751601
0	1665	15.606680284975	0.067782013163
0	1673	15.674462298138	0.010314043253
0	1678	15.684776341391	0.120282732775
0	1685	15.805059074166	0.009890436668
0	1690	15.814949510834	0.118654972357
0	1695	15.933604483191	0.016178609384
0	1701	15.949783092575	0.036333151374
0	1707	15.986116243949	0.068904320122
0	1713	16.055020564071	0.034618561472
0	1721	16.089639125543	0.004194246184
0	1723	16.093833371727	0.08080884508
0	1731	16.174642216807	0.079151262854
0	1737	16.253793479661	0.016253884398
0	1742	16.270047364059	0.105776075132
0	1748	16.375823439191	0.058495445404
0	1753	16.434318884595	0.051898680078
0	1758	16.486217564673	0.099682651992
0	1763	16.585900216665	0.13319680882
0	1768	16.719097025485	0.003033789524
0	1770	16.722130815009	0.018429131817
0	1778	16.740559946826	0.065444438758
0	1783	16.806004385584	0.011028056265
0	1788	16.817032441849	0.192591183079
0	1793	17.009623624928	0.027007098908
0	1799	17.036630723836	0.058429418629
0	1805	17.095060142465	0.039228513716
0	1810	17.134288656181	0.032312930954
0	1815	17.166601587135	0.018749905015
0	1820	17.18535149215	0.078117120447
0	1825	17.263468612597	0.003520053428
0	1827	17.266988666025	0.014197880421
0	1836	17.281186546446	0.053450219396
0	1841	17.334636765842	0.028898172055
0	1847	17.363534937897	0.007029225081
0	1849	17.370564162978	0.153983916256
0	1858	17.524548079234	0.013074607391
0	1863	17.537622686625	0.007264206747
0	1868	17.544886893372	0.028682632616
0	1873	17.573569525988	0.15721115342
0	1878	17.730780679408	0.011960308062
0	1883	17.74274098747	0.042485450725
0	1889	17.785226438195	0.048924143762
0	1894	17.834150581957	0.011144808277
0	1899	17.845295390234	0.164692154139
0	1905	18.009987544373	0.104652911663
0	1912	18.114640456036	0.140934909543
0	1917	18.255575365579	0.0316476393
0	1922	18.287223004879	0.092135052404
0	1928	18.379358057283	0.072380699977
0	1933	18.45173875726	0.077662290762
0	1939	18.529401048022	0.023501541733
0	1944	18.552902589755	0.035130022923
0	1949	18.588032612678	0.089982885394
0	1956	18.678015498072	0.125738558781
0	1961	18.803754056853	0.037658225697
0	1966	18.84141228255	0.091669342424
0	1971	18.933081624974	0.012860698606
0	1976	18.94594232358	0.017248771813
0	1981	18.963191095393	0.023151027969
0	1988	18.986342123362	0.015553054149
0	1993	19.001895177511	0.049754563352
0	1999	19.051649740863	0.002631985248
0	2001	19.054281726111	0.030349568582
0	2009	19.084631294693	0.008281446768
0	2014	19.092912741461	0.145364333946
0	2022	19.238277075407	0.004790898207
0	2024	19.243067973614	0.116924141986
0	2034	19.3599921156	0.018250086155
0	2039	19.378242201755	0.006671192823
0	2041	19.384913394578	0.128218314185
0	2050	19.513131708763	0.075953661143
0	2055	19.589085369906	0.047415486141
0	2060	19.636500856047	0.020152699074
0	2065	19.656653555121	0.02829035029
0	2070	19.684943905411	0.0411575277
0	2075	19.726101433111	0.019148639095
0	2080	19.745250072206	0.003082579223
0	2082	19.748332651429	0.012281717784
0	2087	19.760614369213	0.07777381031
0	2095	19.838388179523	0.017047205921
0	2100	19.855435385444	0.041529560368
0	2105	19.896964945812	0.044320865142
0	2110	19.941285810954	0.111245737493
0	2115	20.052531548447	0.016602212936
0	2120	20.069133761383	0.071037644409
0	2125	20.140171405792	0.047949273498
0	2130	20.18812067929	0.047656950842
0	2135	20.235777630132	0.033031829271
0	2140	20.268809459403	0.03294637723
0	2145	20.301755836633	0.090962350493
0	2150	20.392718187126	0.104573822803
0	2155	20.497292009929	0.04174778149
0	2160	20.539039791419	0.035300755567
0	2165	20.574340546986	0.042246294865
0	2170	20.616586841851	0.037186924954
0	2175	20.653773766805	0.009936460442
0	2180	20.663710227247	0.130393745522
0	2186	20.794103972769	0.064493759981
0	2191	20.85859773275	0.01922247547
0	2196	20.87782020822	0.040113927653
0	2202	20.917934135873	0.00764491232
0	2207	20.925579048193	0.01585623935
0	2213	20.941435287543	0.021767016611
0	2218	20.963202304154	0.124901240599
0	2224	21.088103544753	0.14231569681
0	2231	21.230419241563	0.02677441704
0	2236	21.257193658603	0.009366369505
0	2241	21.266560028108	0.028932646715
0	2246	21.295492674823	0.000561989297
0	2248	21.29605466412	0.158843391111
0	2258	21.454898055231	0.085453395765
0	2263	21.540351450996	0.000143796307
0	2265	21.540495247303	0.016209046489
0	2273	21.556704293792	0.014612317269
0	2278	21.571316611061	0.006342146251
0	2280	21.577658757312	0.031044966136
0	2288	21.608703723448	0.012271530921
0	2293	21.620975254369	0.006817304578
0	2295	21.627792558947	0.027838111992
0	2304	21.655630670939	0.056533289058
0	2310	21.712163959997	0.004358988185
0	2312	21.716522948182	0.004116166466
0	2317	21.720639114648	0.090861190725
0	2327	21.811500305373	0.065501170465
0	2333	21.877001475838	0.014636432499
0	2338	21.891637908337	0.018244452518
0	2343	21.909882360855	0.003966495397
0	2345	21.913848856252	0.04704006068
0	2356	21.960888916932	0.068553135015
0	2361	22.029442051947	0.087881217867
0	2367	22.117323269814	0.045848048641
0	2372	22.163171318455	0.219473743123
0	2378	22.382645061578	0.038129357731
0	2385	22.420774419309	0.017385885678
0	2390	22.438160304987	0.021768863203
0	2395	22.45992916819	0.012416303377
0	2400	22.472345471567	0.033337954189
0	2405	22.505683425756	0.048611130373
0	2410	22.554294556129	0.062694231148
0	2415	22.616988787277	0.094424950089
0	2421	22.711413737366	0.116414064907
0	2426	22.827827802273	0.072116407222
0	2433	22.899944209495	0.024056883531
0	2438	22.924001093026	0.16904992367
0	2444	23.093051016696	0.055465591427
0	2449	23.148516608123	0.043537976917
0	2455	23.19205458504	0.105367142648
0	2461	23.297421727688	0.007387991857
0	2463	23.304809719545	0.000686772012
0	2465	23.305496491557	0.103427698174
0	2477	23.408924189731	0.00607577305
0	2479	23.414999962781	0.200436772446
0	2490	23.615436735227	0.112753026384
0	2496	23.728189761611	0.034166101814
0	2501	23.762355863425	0.017420397566
0	2506	23.779776260991	0.008665301769
0	2511	23.78844156276	0.049989366578
0	2517	23.838430929338	0.101411063515
0	2522	23.939841992853	0.016024166203
0	2527	23.955866159056	0.033270810349
0	2532	23.989136969405	0.07046930391
0	2538	24.059606273315	0.046618643269
0	2543	24.106224916584	0.017086879706
0	2549	24.12331179629	0.010636080842
0	2554	24.133947877132	0.048663279226
0	2559	24.182611156358	0.105460022453
0	2567	24.288071178811	0.075848160118
0	2573	24.363919338929	0.11067380482
0	2578	24.474593143749	0.070499892126
0	2583	24.545093035875	0.046397426007
0	2589	24.591490461882	0.057378038933
0	2595	24.648868500815	0.104176750858
0	2601	24.753045251673	0.008282236317
0	2603	24.76132748799	0.007792374095
0	2608	24.769119862085	0.011329389726
0	2616	24.780449251811	0.063703602507
0	2621	24.844152854318	0.032526555114
0	2626	24.876679409432	0.203026352715
0	2633	25.079705762147	0.013563831489
0	2638	25.093269593636	0.035312461009
0	2643	25.128582054645	0.028809088111
0	2648	25.157391142756	0.001248089076
0	2650	25.158639231832	0.021568247722
0	2658	25.180207479554	0.076129078584
0	2664	25.256336558138	0.021560017148
0	2669	25.277896575286	0.035477814107
0	2674	25.313374389393	0.078711147847
0	2679	25.39208553724	0.01306695404
0	2684	25.40515249128	0.089476073006
0	2690	25.494628564286	0.097465038105
0	2696	25.592093602391	0.067172678776
0	2702	25.659266281167	0.002854997857
0	2704	25.662121279024	0.006094854042
0	2709	25.668216133066	0.039667003949
0	2717	25.707883137015	0.064666788227
0	2722	25.772549925242	0.025354377657
0	2728	25.797904302899	0.060993483439
0	2733	25.858897786338	0.057566203904
0	2738	25.916463990242	0.080571147452
0	2743	25.997035137694	0.039969800297
0	2749	26.037004937991	0.002491516949
0	2751	26.03949645494	0.116508417053
0	2761	26.156004871993	0.021519680715
0	2766	26.177524552708	0.185689580549
0	2772	26.363214133257	0.038588260927
0	2777	26.401802394184	0.002439498048
0	2779	26.404241892232	0.051939335705
0	2789	26.456181227937	0.014984649428
0	2794	26.471165877365	0.044335964366
0	2799	26.515501841731	0.027812140695
0	2804	26.543313982426	0.022881071777
0	2809	26.566195054203	0.032936435577
0	2815	26.59913148978	0.016303607271
0	2820	26.615435097051	0.088223279633
0	2827	26.703658376684	0.004831249641
0	2829	26.708489626325	0.001018458496
0	2831	26.709508084821	0.000362455709
0	2833	26.70987054053	0.014897661402
0	2841	26.724768201932	0.032123060056
0	2853	26.756891261988	0.018525658601
0	2858	26.775416920589	0.055962663015
0	2863	26.831379583604	0.005109355471
0	2865	26.836488939075	0.131852186424
0	2875	26.968341125499	0.033118397765
0	2880	27.001459523264	0.002174729277
0	2882	27.003634252541	0.02376623508
0	2891	27.027400487621	0.035833700132
0	2896	27.063234187753	0.056565744558
0	2901	27.119799932311	0.003967412817
0	2903	27.123767345128	0.041332795811
0	2911	27.165100140939	0.036249838674
0	2916	27.201349979613	0.024919000924
0	2921	27.226268980537	0.013649454556
0	2926	27.239918435093	0.002930368808
0	2928	27.242848803901	0.014270489228
0	2936	27.257119293129	0.188141685169
0	2941	27.445260978298	0.058256281226
0	2946	27.503517259524	0.025923331181
0	2951	27.529440590705	0.01628037058
0	2956	27.545720961285	0.110956954529
0	2962	27.656677915814	0.008978371567
0	2967	27.665656287381	0.06976514874
0	2974	27.735421436121	0.120330885359
0	2981	27.85575232148	0.006330836238
0	2983	27.862083157718	0.04764796328
0	2991	27.909731120998	0.105653684253
0	2996	28.015384805251	0.011759703621
0	3001	28.027144508872	0.156896253682
0	3007	28.184040762554	0.046891937532
0	3012	28.230932700086	0.149651955911
0	3018	28.380584655997	0.222508036284
0	3023	28.603092692281	0.075351372263
0	3029	28.678444064544	0.042744789713
0	3034	28.721188854257	0.052595127155
0	3040	28.773783981412	0.098203598101
0	3046	28.871987579513	0.005827802506
0	3048	28.877815382019	0.021467317094
0	3056	28.899282699113	0.030470588905
0	3061	28.929753288018	0.014283509726
0	3066	28.944036797744	0.01623392071
0	3071	28.960270718454	0.200082941008
0	3079	29.160353659462	0.000352916979
0	3081	29.160706576441	0.082124476228
0	3089	29.242831052669	0.00077529973
0	3091	29.243606352399	0.085086366112
0	3099	29.328692718511	0.012604003781
0	3104	29.341296722292	0.002266396183
0	3106	29.343563118475	0.01056006369
0	3111	29.354123182165	0.094738229616
0	3120	29.448861411781	0.03952280766
0	3125	29.488384219441	0.02127408557
0	3130	29.509658305011	0.066956981838
0	3137	29.576615286849	0.01430917149
0	3142	29.590924458339	0.012804716952
0	3147	29.603729175291	0.016655274083
0	3152	29.620384449374	0.032166814884
0	3157	29.652551264258	0.088244263131
0	3162	29.740795527389	0.060190468172
0	3167	29.800985995561	0.015459797412
0	3172	29.816445792973	0.048187263577
0	3177	29.86463305655	0.034156072119
0	3182	29.898789128669	0.097597848986
0	3188	29.996386977655	0.037794883735
0	3194	30.03418186139	0.000808978232
0	3196	30.034990839622	0.043815497276
0	3205	30.078806336898	0.016770188608
0	3210	30.095576525506	0.029839878879
0	3215	30.125416404385	0.061393227846
0	3220	30.186809632231	0.034539904299
0	3225	30.22134953653	0.010006622436
0	3230	30.231356158966	0.000105712383
0	3232	30.231461871349	0.048462101783
0	3240	30.279923973132	0.062471519898
0	3245	30.34239549303	0.010842504205
0	3251	30.353237997235	0.04247817568
0	3257	30.395716172915	0.018427990236
0	3262	30.414144163151	0.261369751096
0	3269	30.675513914247	0.011731071647
0	3274	30.687244985894	0.010257288181
0	3279	30.697502274075	0.121116477142
0	3287	30.818618751217	0.297197187589
0	3294	31.115815938806	0.000304659079
0	3296	31.116120597885	0.046868847712
0	3305	31.162989445597	0.067783183056
0	3310	31.230772628653	0.02575795428
0	3315	31.256530582933	0.029865125912
0	3321	31.286395708845	0.066273448447
0	3327	31.352669157292	0.12041795627
0	3333	31.473087113562	0.097666130128
0	3338	31.57075324369	0.091137202893
0	3343	31.661890446583	0.075021026759
0	3348	31.736911473342	0.021956512796
0	3353	31.758867986138	0.01299465287
0	3359	31.771862639008	0.018637633919
0	3364	31.790500272927	0.039465547853
0	3369	31.82996582078	0.04890416369
0	3374	31.87886998447	0.0653121418
0	3380	31.94418212627	0.002356156357
0	3382	31.946538282627	0.091039176578
0	3390	32.037577459205	0.165237719151
0	3395	32.202815178356	0.004378762504
0	3397	32.20719394086	0.002903189796
0	3399	32.210097130656	0.075657691287
0	3411	32.285754821943	0.047366508396
0	3417	32.333121330339	0.019438592526
0	3422	32.352559922865	0.035106565091
0	3427	32.387666487956	0.145195253849
0	3432	32.532861741805	0.019176721345
0	3437	32.55203846315	0.042122588814
0	3442	32.594161051964	0.100115134616
0	3450	32.69427618658	0.214589849612
0	3458	32.908866036192	0.028615337848
0	3463	32.93748137404	0.006467900809
0	3466	32.943949274849	0.067223771562
0	3476	33.011173046411	0.105357240613
0	3481	33.116530287024	0.079348448262
0	3487	33.195878735286	0.003717027818
0	3489	33.199595763104	0.0880096794
0	3497	33.287605442504	6.7617682e-05
0	3499	33.287673060186	0.137232402878
0	3510	33.424905463064	0.039993257948
0	3515	33.464898721012	0.008226643416
0	3517	33.473125364428	0.037718242749
0	3525	33.510843607177	0.000892917215
0	3527	33.511736524392	0.128828314515
0	3538	33.640564838907	0.225131216405
0	3545	33.865696055312	0.016551666396
0	3550	33.882247721708	0.064146358581
0	3555	33.946394080289	0.04888904655
0	3561	33.995283126839	0.093447531612
0	3568	34.088730658451	0.027281714629
0	3573	34.11601237308	0.015964120634
0	3578	34.131976493714	0.001415508281
0	3580	34.133392001995	0.174861447839
0	3589	34.308253449834	0.025986530243
0	3594	34.334239980077	0.026168852057
0	3599	34.360408832134	0.067989025521
0	3604	34.428397857655	0.028697221154
0	3609	34.457095078809	0.069818408129
0	3616	34.526913486938	0.016616840033
0	3621	34.543530326971	0.013601869908
0	3626	34.557132196879	0.024645975167
0	3631	34.581778172046	0.023981492255
0	3636	34.605759664301	0.003053786346
0	3638	34.608813450647	0.047687226926
0	3647	34.656500677573	0.109568901875
0	3654	34.766069579448	0.003620704726
0	3656	34.769690284174	0.026312317799
0	3664	34.796002601973	0.052768834854
0	3669	34.848771436827	0.028594795704
0	3674	34.877366232531	0.06283408763
0	3679	34.940200320161	0.006267723177
0	3681	34.946468043338	0.067634972411
0	3690	35.014103015749	0.022068218691
0	3695	35.03617123444	0.038995753816
0	3700	35.075166988256	0.064190279046
0	3705	35.139357267302	0.063363477552
0	3710	35.202720744854	0.003965993158
0	3712	35.206686738012	0.00626045911
0	3717	35.212947197122	0.004757734247
0	3719	35.217704931369	0.03270083845
0	3730	35.250405769819	0.005188275079
0	3732	35.255594044898	0.007452272336
0	3737	35.263046317234	0.031567295745
0	3745	35.294613612979	0.005808602012
0	3747	35.300422214991	0.01925550098
0	3755	35.319677715971	0.059183992112
0	3760	35.378861708083	0.178570025399
0	3767	35.557431733482	0.043260219523
0	3773	35.600691953005	0.0815586571
0	3779	35.682250610105	0.017260772317
0	3784	35.699511382422	0.017121977824
0	3791	35.716633360246	0.055735731501
0	3797	35.772369091747	0.007560602065
0	3799	35.779929693812	0.006995476187
0	3804	35.786925169999	0.064802470153
0	3812	35.851727640152	0.057186125587
0	3819	35.908913765739	0.012191934197
0	3824	35.921105699936	0.038151178139
0	3829	35.959256878075	0.075680786108
0	3834	36.034937664183	7.3836182e-05
0	3836	36.035011500365	0.256863322664
0	3848	36.291874823029	0.114790274933
0	3855	36.406665097962	0.014406958006
0	3860	36.421072055968	0.077115965425
0	3866	36.498188021393	0.090623347933
0	3872	36.588811369326	0.018666266942
0	3877	36.607477636268	0.273016456412
0	3884	36.88049409268	0.076755886625
0	3891	36.957249979305	0.029632614022
0	3896	36.986882593327	0.013217513414
0	3902	37.000100106741	0.030532649809
0	3907	37.03063275655	0.217772917685
0	3914	37.248405674235	0.086619527605
0	3919	37.33502520184	0.008219478627
0	3924	37.343244680467	0.050444217233
0	3929	37.3936888977	0.005206208237
0	3931	37.398895105937	0.017521605208
0	3939	37.416416711145	0.051816080504
0	3944	37.468232791649	0.021981273016
0	3950	37.490214064665	0.058981315552
0	3955	37.549195380217	0.07732897535
0	3960	37.626524355567	0.020668187244
0	3965	37.647192542811	0.136997624922
0	3972	37.784190167733	0.119376725708
0	3977	37.903566893441	0.079411362908
0	3983	37.982978256349	0.029165216013
0	3988	38.012143472362	0.04703052786
0	3993	38.059174000222	0.159571307844
0	3999	38.218745308066	0.045572815367
0	4004	38.264318123433	0.059114199237
0	4009	38.32343232267	0.001853343928
0	4011	38.325285666598	0.0003650262
0	4013	38.325650692798	0.056084867486
0	4024	38.381735560284	0.047781240327
0	4029	38.429516800611	0.220268909976
0	4036	38.649785710587	0.101447053732
0	4041	38.751232764319	0.060392654749
0	4046	38.811625419068	0.014700557734
0	4051	38.826325976802	0.001775818756
0	4053	38.828101795558	0.170132337912
0	4062	38.99823413347	0.092817460125
0	4067	39.091051593595	0.022895972264
0	4072	39.113947565859	0.020255224532
0	4077	39.134202790391	0.119495754506
0	4083	39.253698544897	0.056118508444
0	4088	39.309817053341	0.06489399819
0	4095	39.374711051531	0.016867768099
0	4100	39.39157881963	0.14927398236
0	4107	39.54085280199	0.019078827457
0	4112	39.559931629447	0.000823070421
0	4114	39.560754699868	0.098304601198
0	4122	39.659059301066	0.072632986131
0	4129	39.731692287197	0.002797910216
0	4131	39.734490197413	0.04498646252
0	4140	39.779476659933	0.062063644175
0	4145	39.841540304108	0.020435514442
0	4150	39.86197581855	0.010556922689
0	4155	39.872532741239	0.063477175504
0	4161	39.936009916743	0.013950775392
0	4166	39.949960692135	0.131232293997
0	4172	40.081192986132	0.088569454838
0	4178	40.16976244097	0.114666113983
0	4183	40.284428554953	0.004167978213
0	4185	40.288596533166	0.025200921789
0	4193	40.313797454955	0.211004975239
0	4199	40.524802430194	0.058988648477
0	4204	40.583791078671	0.009860084338
0	4209	40.593651163009	0.036992316711
0	4215	40.63064347972	0.007331258504
0	4217	40.637974738224	0.034858547109
0	4225	40.672833285333	0.01596548993
0	4230	40.688798775263	0.119650949922
0	4236	40.808449725185	0.007505178655
0	4238	40.81595490384	0.049226936301
0	4246	40.865181840141	0.03539130728
0	4251	40.900573147421	0.028258085299
0	4256	40.92883123272	0.206906202929
0	4262	41.135737435649	0.025918450497
0	4267	41.161655886146	0.032273886368
0	4272	41.193929772514	0.030314796981
0	4277	41.224244569495	0.035868992389
0	4282	41.260113561884	0.001754330891
0	4284	41.261867892775	0.044975772157
0	4292	41.306843664932	0.025975768205
0	4297	41.332819433137	0.036971002921
0	4302	41.369790436058	0.040379458267
0	4307	41.410169894325	0.01881535846
0	4312	41.428985252785	0.022803543958
0	4317	41.451788796743	0.038638427369
0	4322	41.490427224112	0.085303216671
0	4327	41.575730440783	0.00015873574
0	4329	41.575889176523	0.001159952737
0	4331	41.57704912926	0.110903981079
0	4342	41.687953110339	0.013088579011
0	4347	41.70104168935	0.002456022498
0	4349	41.703497711848	0.097405949899
0	4357	41.800903661747	0.065262398947
0	4363	41.866166060694	0.003502423427
0	4365	41.869668484121	0.00186585454
0	4367	41.871534338661	0.036444427468
0	4378	41.907978766129	0.072862156757
0	4383	41.980840922886	0.008569843172
0	4388	41.989410766058	0.036887658731
0	4394	42.026298424789	0.014752280976
0	4399	42.041050705765	0.011595528991
0	4404	42.052646234756	0.025464186335
0	4409	42.078110421091	0.035686065398
0	4414	42.113796486489	0.024470261541
0	4421	42.13826674803	0.014394722247
0	4426	42.152661470277	0.389015782693
0	4433	42.54167725297	0.075014757199
0	4438	42.616692010169	0.057765798735
0	4443	42.674457808904	0.028236404075
0	4448	42.702694212979	0.0526817436
0	4454	42.755375956579	0.027350112472
0	4459	42.782726069051	0.002797549773
0	4461	42.785523618824	0.016860261418
0	4469	42.802383880242	0.000710200296
0	4471	42.803094080538	0.050650024217
0	4479	42.853744104755	0.024103129839
0	4484	42.877847234594	0.056805740335
0	4490	42.934652974929	0.005875677588
0	4492	42.940528652517	0.09290941783
0	4500	43.033438070347	0.006317888293
0	4502	43.03975595864	0.018825331219
0	4510	43.058581289859	0.035112924419
0	4515	43.093694214278	0.032748524844
0	4521	43.126442739122	0.010791485712
0	4526	43.137234224834	0.024346267354
0	4531	43.161580492188	0.03937594872
0	4536	43.200956440908	0.006639643092
0	4539	43.207596084	0.01443377708
0	4547	43.22202986108	0.021401439893
0	4553	43.243431300973	0.051046236454
0	4558	43.294477537427	0.016390763038
0	4563	43.310868300465	0.05389363839
0	4570	43.364761938855	0.00200440519
0	4572	43.366766344045	0.114417876086
0	4581	43.481184220131	0.006674120739
0	4583	43.48785834087	0.044849969799
0	4592	43.532708310669	0.034857019239
0	4597	43.567565329908	0.00401902635
0	4599	43.571584356258	0.010598702061
0	4604	43.582183058319	0.034841429167
0	4612	43.617024487486	0.073800149227
0	4619	43.690824636713	0.168359876744
0	4626	43.859184513457	0.026576294936
0	4631	43.885760808393	0.046606007036
0	4636	43.932366815429	0.140460921414
0	4642	44.072827736843	0.016656244763
0	4647	44.089483981606	0.068817850181
0	4652	44.158301831787	0.052394901169
0	4657	44.210696732956	0.088168713229
0	4663	44.298865446185	0.025496664548
0	4668	44.324362110733	0.044606622335
0	4673	44.368968733068	0.003812402889
0	4675	44.372781135957	0.053012956841
0	4683	44.425794092798	0.007518743435
0	4685	44.433312836233	0.051371455524
0	4693	44.484684291757	0.011604641158
0	4698	44.496288932915	0.074158019471
0	4703	44.570446952386	0.066256283751
0	4708	44.636703236137	0.076818667371
0	4715	44.713521903508	0.024652368656
0	4720	44.738174272164	0.033198203749
0	4725	44.771372475913	0.021713799581
0	4730	44.793086275494	0.081570294582
0	4735	44.874656570076	0.017746051372
0	4740	44.892402621448	0.02352714441
0	4745	44.915929765858	0.0031894433
0	4747	44.919119209158	0.054642019186
0	4757	44.973761228344	0.02315884179
0	4762	44.996920070134	0.027543182762
0	4767	45.024463252896	0.041793015046
0	4773	45.066256267942	0.010254795056
0	4778	45.076511062998	0.004497262332
0	4780	45.08100832533	0.011444255243
0	4785	45.092452580573	0.025299326739
0	4793	45.117751907312	0.037050610495
0	4798	45.154802517807	0.006604393175
0	4800	45.161406910982	0.021403825509
0	4808	45.182810736491	0.003025576541
0	4811	45.185836313032	0.003114753536
0	4813	45.188951066568	0.058403328705
0	4826	45.247354395273	0.074032323541
0	4832	45.321386718814	0.043474732742
0	4837	45.364861451556	0.01548187939
0	4842	45.380343330946	0.015797173275
0	4847	45.396140504221	0.022301197647
0	4853	45.418441701868	0.007571881019
0	4855	45.426013582887	0.022625096038
0	4863	45.448638678925	0.053634196992
0	4869	45.502272875917	0.012487778322
0	4875	45.514760654239	0.026945690182
0	4880	45.541706344421	0.018205072567
0	4886	45.559911416988	0.122161584686
0	4891	45.682073001674	0.008190091969
0	4896	45.690263093643	0.071387628929
0	4901	45.761650722572	0.007612169019
0	4903	45.769262891591	0.000861159566
0	4908	45.770124051157	0.028193901898
0	4916	45.798317953055	0.084598180975
0	4923	45.88291613403	0.100243637956
0	4928	45.983159771986	0.035230327174
0	4934	46.01839009916	0.123340378462
0	4939	46.141730477622	5.2187786e-05
0	4941	46.141782665408	0.097800293361
0	4951	46.239582958769	0.046969995386
0	4956	46.286552954155	0.03918321644
0	4961	46.325736170595	0.032534258301
0	4966	46.358270428896	0.113982382608
0	4971	46.472252811504	0.042240049914
0	4976	46.514492861418	0.031580880376
0	4982	46.546073741794	0.03119785742
0	4987	46.577271599214	0.077019458616
0	4994	46.65429105783	0.037868330598
0	4999	46.692159388428	0.339369730302
0	5012	47.03152911873	0.128085341412
0	5019	47.159614460142	0.064067116777
0	5024	47.223681576919	0.056842091273
0	5030	47.280523668192	0.008332635712
0	5035	47.288856303904	0.051721211557
0	5040	47.340577515461	0.046602647227
0	5046	47.387180162688	0.037858412387
0	5051	47.425038575075	0.015652029173
0	5056	47.440690604248	0.132563533396
0	5061	47.573254137644	0.10142344042
0	5066	47.674677578064	0.043385788046
0	5071	47.71806336611	0.017011502837
0	5076	47.735074868947	0.009691804935
0	5081	47.744766673882	0.055421841861
0	5086	47.800188515743	0.001977229316
0	5088	47.802165745059	0.284860676128
0	5099	48.087026421187	0.037435617679
0	5106	48.124462038866	0.0064990085
0	5108	48.130961047366	0.024987020497
0	5117	48.155948067863	0.175415478164
0	5124	48.331363546027	0.055856756244
0	5129	48.387220302271	0.063624930755
0	5134	48.450845233026	0.00199644378
0	5136	48.452841676806	0.077010529778
0	5144	48.529852206584	0.011129625909
0	5149	48.540981832493	0.052375389146
0	5155	48.593357221639	0.072168329671
0	5162	48.66552555131	0.019668763762
0	5167	48.685194315072	0.107170804388
0	5173	48.79236511946	0.027535145434
0	5178	48.819900264894	0.000233387381
0	5180	48.820133652275	0.061689946331
0	5190	48.881823598606	0.047257572239
0	5195	48.929081170845	0.030473027052
0	5200	48.959554197897	0.021019249171
0	5205	48.980573447068	0.036577550686
0	5210	49.017150997754	0.036345549732
0	5215	49.053496547486	0.044531747655
0	5220	49.098028295141	0.015886173353
0	5225	49.113914468494	0.087421297746
0	5230	49.20133576624	0.000425865113
0	5232	49.201761631353	0.007447895775
0	5235	49.209209527128	0.038669741481
0	5246	49.247879268609	0.007911594768
0	5248	49.255790863377	0.002169741933
0	5253	49.25796060531	0.132233852618
0	5263	49.390194457928	0.025604201966
0	5269	49.415798659894	0.066133680801
0	5275	49.481932340695	0.002942794543
0	5277	49.484875135238	0.022511312443
0	5285	49.507386447681	0.047644460632
0	5290	49.555030908313	0.029494734066
0	5296	49.584525642379	0.027802861596
0	5301	49.612328503975	0.048958709522
0	5306	49.661287213497	0.219632348804
0	5312	49.880919562301	0.107334043328
0	5318	49.988253605629	0.050158859375
0	5324	50.038412465004	0.000218607648
0	5326	50.038631072652	0.019836917366
0	5334	50.058467990018	0.007875341205
0	5339	50.066343331223	0.108605367312
0	5344	50.174948698535	0.052404029578
0	5349	50.227352728113	0.02082194632
0	5354	50.248174674433	0.008132921918
0	5359	50.256307596351	0.029882199584
0	5364	50.286189795935	0.058031162807
0	5369	50.344220958742	0.005996964948
0	5371	50.35021792369	0.119044653784
0	5379	50.469262577474	0.029457894267
0	5385	50.498720471741	0.002800992802
0	5387	50.501521464543	0.167375255567
0	5396	50.66889672011	0.034078693643
0	5401	50.702975413753	0.015438293501
0	5406	50.718413707254	0.015752462701
0	5411	50.734166169955	0.045593796793
0	5416	50.779759966748	0.006140625996
0	5418	50.785900592744	0.004426442082
0	5423	50.790327034826	0.041539601951
0	5431	50.831866636777	0.104319734101
0	5440	50.936186370878	0.172335450161
0	5446	51.108521821039	0.104868935117
0	5451	51.213390756156	0.011879000834
0	5456	51.22526975699	0.004151468675
0	5458	51.229421225665	0.076955616296
0	5466	51.306376841961	0.027884730034
0	5471	51.334261571995	0.01515690705
0	5476	51.349418479045	0.044079900098
0	5482	51.393498379143	0.017507512498
0	5487	51.411005891641	0.075004792835
0	5492	51.486010684476	0.010089823761
0	5497	51.496100508237	0.079755874396
0	5504	51.575856382633	0.047218141487
0	5509	51.62307452412	0.084131082865
0	5515	51.707205606985	0.017522389961
0	5520	51.724727996946	0.082971347763
0	5527	51.807699344709	0.012379299308
0	5532	51.820078644017	0.00275397483
0	5534	51.822832618847	0.03132082445
0	5542	51.854153443297	0.091253881735
0	5548	51.945407325032	0.040955059766
0	5553	51.986362384798	0.004019088584
0	5555	51.990381473382	0.03567604096
0	5564	52.026057514342	0.064509696787
0	5569	52.090567211129	0.008614211105
0	5574	52.099181422234	0.031716381838
0	5579	52.130897804072	0.011008852807
0	5584	52.141906656879	0.014927528718
0	5589	52.156834185597	0.137987273399
0	5594	52.294821458996	0.011792163445
0	5599	52.306613622441	0.16620390324
0	5604	52.472817525681	0.055638011548
0	5609	52.528455537229	0.012709996863
0	5614	52.541165534092	0.020346480388
0	5619	52.56151201448	0.001651052449
0	5621	52.563163066929	0.000332817538
0	5623	52.563495884467	0.189164631766
0	5635	52.752660516233	0.094930603164
0	5640	52.847591119397	0.052190809569
0	5646	52.899781928966	0.00086447521
0	5648	52.900646404176	0.046928050672
0	5656	52.947574454848	0.007899590735
0	5661	52.955474045583	0.137186168351
0	5666	53.092660213934	0.018169790964
0	5671	53.110830004898	0.010177249526
0	5676	53.121007254424	0.019476883825
0	5681	53.140484138249	0.177486602377
0	5688	53.317970740626	0.048040344065
0	5693	53.366011084691	0.007587811733
0	5695	53.373598896424	0.012716132884
0	5703	53.386315029308	0.022695297885
0	5708	53.409010327193	0.014697453518
0	5713	53.423707780711	0.073471508179
0	5718	53.49717928889	0.080961014783
0	5723	53.578140303673	0.044114419719
0	5729	53.622254723392	0.094977026103
0	5734	53.717231749495	0.036710900663
0	5739	53.753942650158	0.013446218672
0	5745	53.76738886883	0.016511736095
0	5750	53.783900604925	0.022879651163
0	5755	53.806780256088	0.087280391407
0	5760	53.894060647495	0.002826696942
0	5762	53.896887344437	0.01117178509
0	5767	53.908059129527	0.023678964042
0	5775	53.931738093569	0.006082101724
0	5777	53.937820195293	0.003644803441
0	5783	53.941464998734	0.057651904204
0	5791	53.999116902938	0.020670866066
0	5797	54.019787769004	0.025983774415
0	5802	54.045771543419	0.001917748231
0	5804	54.04768929165	0.098491319047
0	5814	54.146180610697	0.019641802981
0	5819	54.165822413678	0.030739622642
0	5825	54.19656203632	0.036106527216
0	5831	54.232668563536	0.019590752763
0	5837	54.252259316299	0.001400764214
0	5839	54.253660080513	0.073155630679
0	5848	54.326815711192	0.012300513562
0	5853	54.339116224754	0.053375004303
0	5858	54.392491229057	0.009410345195
0	5863	54.401901574252	0.018021307358
0	5868	54.41992288161	0.065148845431
0	5873	54.485071727041	0.126812295413
0	5878	54.611884022454	0.084108082531
0	5885	54.695992104985	0.035275241459
0	5891	54.731267346444	0.027854858826
0	5896	54.75912220527	0.068291628576
0	5901	54.827413833846	0.043230294265
0	5906	54.870644128111	0.055127603994
0	5911	54.925771732105	0.018178202221
0	5916	54.943949934326	0.0084073116
0	5921	54.952357245926	0.076534109334
0	5926	55.02889135526	0.017013460503
0	5931	55.045904815763	0.082165774216
0	5936	55.128070589979	0.128162355458
0	5942	55.256232945437	0.04052339103
0	5947	55.296756336467	0.007721756314
0	5949	55.304478092781	0.058453068746
0	5957	55.362931161527	0.049936758173
0	5962	55.4128679197	0.133537894412
0	5967	55.546405814112	0.077997327605
0	5974	55.624403141717	0.104281372352
0	5979	55.728684514069	0.068814950771
0	5985	55.79749946484	0.139849682094
0	5992	55.937349146934	0.034379821019
0	5998	55.971728967953	0.018254769782
0	6003	55.989983737735	0.015223835111
0	6008	56.005207572846	0.043753534526
0	6013	56.048961107372	0.197307920767
0	6019	56.246269028139	0.062616923136
0	6025	56.308885951275	0.066657417991
0	6030	56.375543369266	0.006855028463
0	6032	56.382398397729	0.007895478681
0	6037	56.39029387641	0.082872728977
0	6046	56.473166605387	0.11037316143
0	6056	56.583539766817	0.129649172028
0	6062	56.713188938845	0.035871905425
0	6067	56.74906084427	0.018532922162
0	6072	56.767593766432	0.12170063016
0	6077	56.889294396592	0.001064026573
0	6079	56.890358423165	0.031979933801
0	6087	56.922338356966	0.001739381444
0	6089	56.92407773841	0.008157878964
0	6094	56.932235617374	0.001749762067
0	6096	56.933985379441	0.074698432229
0	6108	57.00868381167	0.023246901024
0	6113	57.031930712694	0.035705704906
0	6118	57.0676364176	0.141718497523
0	6126	57.209354915123	0.029323669494
0	6131	57.238678584617	0.014490443043
0	6136	57.25316902766	0.025704763211
0	6141	57.278873790871	0.014870363221
0	6146	57.293744154092	0.039810145195
0	6152	57.333554299287	0.04965878746
0	6158	57.383213086747	0.043521069369
0	6164	57.426734156116	0.00499148105
0	6166	57.431725637166	0.026334149004
0	6174	57.45805978617	0.116577881002
0	6180	57.574637667172	0.146425398697
0	6187	57.721063065869	0.042843208206
0	6192	57.763906274075	0.017994983455
0	6197	57.78190125753	0.083302357798
0	6203	57.865203615328	0.025242347866
0	6208	57.890445963194	0.020318484221
0	6213	57.910764447415	0.057657111475
0	6218	57.96842155889	0.026041559718
0	6224	57.994463118608	0.157170037745
0	6230	58.151633156353	0.013134463792
0	6235	58.164767620145	0.022444383503
0	6240	58.187212003648	0.055829480097
0	6245	58.243041483745	0.001863361348
0	6247	58.244904845093	0.00131338629
0	6249	58.246218231383	0.059278900418
0	6262	58.305497131801	0.021752352967
0	6267	58.327249484768	0.146000766725
0	6272	58.473250251493	0.033186279311
0	6277	58.506436530804	0.081446297189
0	6283	58.587882827993	0.013670332866
0	6289	58.601553160859	0.003834825345
0	6291	58.605387986204	0.015496481894
0	6299	58.620884468098	0.019648611248
0	6304	58.640533079346	0.001918254505
0	6306	58.642451333851	0.031470370689
0	6314	58.67392170454	0.06700857974
0	6319	58.74093028428	0.065816092158
0	6325	58.806746376438	0.00083046737
0	6327	58.807576843808	0.022290450385
0	6335	58.829867294193	0.003319467599
0	6337	58.833186761792	0.005662803126
0	6342	58.838849564918	0.05121403515
0	6350	58.890063600068	0.010823228458
0	6355	58.900886828526	0.0128959371
0	6360	58.913782765626	0.07870095796
0	6366	58.992483723586	0.000544718866
0	6368	58.993028442452	0.017213629927
0	6376	59.010242072379	0.040680917048
0	6381	59.050922989427	0.005506140872
0	6383	59.056429130299	0.199160716183
0	6395	59.255589846482	0.047966599648
0	6401	59.30355644613	0.045596706379
0	6407	59.349153152509	0.167687176124
0	6413	59.516840328633	0.066616722385
0	6419	59.583457051018	0.016757441339
0	6424	59.600214492357	0.045384971711
0	6429	59.645599464068	0.013353694623
0	6434	59.658953158691	0.044142423624
0	6439	59.703095582315	0.061842060942
0	6444	59.764937643257	0.007456917422
0	6446	59.772394560679	0.139122235063
0	6454	59.911516795742	0.115901221696
0	6459	60.027418017438	0.060948509399
0	6464	60.088366526837	0.053267698967
0	6470	60.141634225804	0.022966096122
0	6475	60.164600321926	0.023621287329
0	6480	60.188221609255	0.011737903002
0	6485	60.199959512257	0.004334556945
0	6487	60.204294069202	0.184977471957
0	6499	60.389271541159	0.058361221751
0	6505	60.44763276291	0.189860251868
0	6511	60.637493014778	0.029206515313
0	6517	60.666699530091	0.031667703153
0	6522	60.698367233244	0.13195888498
0	6529	60.830326118224	0.002374147011
0	6531	60.832700265235	0.005297636435
0	6533	60.83799790167	0.026229438346
0	6544	60.864227340016	0.02793070945
0	6549	60.892158049466	0.00348825808
0	6551	60.895646307546	0.057133187233
0	6559	60.952779494779	0.069840091471
0	6567	61.02261958625	0.132671419864
0	6573	61.155291006114	0.003822132046
0	6575	61.15911313816	0.015276976952
0	6583	61.174390115112	0.035390525079
0	6588	61.209780640191	0.008402514043
0	6593	61.218183154234	0.098332645778
0	6599	61.316515800012	0.049210114645
0	6604	61.365725914657	0.099998949664
0	6610	61.465724864321	0.115212866437
0	6616	61.580937730758	0.015412798854
0	6621	61.596350529612	0.047734233819
0	6627	61.644084763431	0.018557679442
0	6632	61.662642442873	0.028944164945
0	6638	61.691586607818	0.021165383259
0	6643	61.712751991077	0.00884531727
0	6649	61.721597308347	0.003897430989
0	6651	61.725494739336	0.020321703966
0	6659	61.745816443302	0.06854276655
0	6664	61.814359209852	0.064406767166
0	6669	61.878765977018	0.134207456287
0	6674	62.012973433305	0.000225053203
0	6676	62.013198486508	0.075605551484
0	6685	62.088804037992	0.011266454357
0	6690	62.100070492349	0.044956645135
0	6696	62.145027137484	0.00081930969
0	6698	62.145846447174	0.022281802245
0	6706	62.168128249419	0.049430867708
0	6711	62.217559117127	0.055804018786
0	6716	62.273363135913	0.151503115702
0	6721	62.424866251615	0.087380721682
0	6726	62.512246973297	0.067207889257
0	6732	62.579454862554	0.034188933372
0	6737	62.613643795926	0.12772957774
0	6744	62.741373373666	0.116687003466
0	6751	62.858060377132	0.061294554834
0	6756	62.919354931966	0.018096856465
0	6761	62.937451788431	0.021763458235
0	6767	62.959215246666	0.038927598516
0	6772	62.998142845182	0.04175962354
0	6777	63.039902468722	0.066034311077
0	6782	63.105936779799	0.029526630134
0	6787	63.135463409933	0.003312618626
0	6790	63.138776028559	0.068913815603
0	6801	63.207689844162	0.064554489707
0	6807	63.272244333869	0.03582232775
0	6812	63.308066661619	0.101551773827
0	6818	63.409618435446	0.130391268967
0	6823	63.540009704413	0.006429424535
0	6825	63.546439128948	0.053700555641
0	6834	63.600139684589	0.266107822391
0	6840	63.86624750698	0.122399250737
0	6845	63.988646757717	0.000526406573
0	6847	63.98917316429	0.096161941331
0	6855	64.085335105621	0.027164155206
0	6860	64.112499260827	0.14049938247
0	6866	64.252998643297	0.050078388296
0	6871	64.303077031593	0.117770887826
0	6876	64.420847919419	0.023552003217
0	6881	64.444399922636	0.179825255033
0	6888	64.624225177669	0.018376440727
0	6893	64.642601618396	0.008965529857
0	6898	64.651567148253	0.073567759463
0	6903	64.725134907716	0.084004930778
0	6910	64.809139838494	0.135066112163
0	6915	64.944205950657	0.048236114777
0	6920	64.992442065434	0.012237466065
0	6925	65.004679531499	0.010252307329
0	6930	65.014931838828	0.007659322453
0	6935	65.022591161281	0.018286999064
0	6940	65.040878160345	0.006395483353
0	6942	65.047273643698	0.042840955621
0	6950	65.090114599319	0.061314929005
0	6955	65.151429528324	0.040132906893
0	6960	65.191562435217	0.134478368266
0	6966	65.326040803483	0.021739760365
0	6971	65.347780563848	0.020571862826
0	6976	65.368352426674	0.036700039458
0	6982	65.405052466132	0.064459750917
0	6988	65.469512217049	0.050826118692
0	6993	65.520338335741	0.008606846781
0	6998	65.528945182522	0.071023974139
0	7004	65.599969156661	0.009714703297
0	7009	65.609683859958	0.003992920834
0	7011	65.613676780792	0.084582428744
0	7020	65.698259209536	0.030624627985
0	7025	65.728883837521	0.024936075469
0	7031	65.75381991299	0.013767743131
0	7036	65.767587656121	0.008396153117
0	7041	65.775983809238	0.127914218455
0	7048	65.903898027693	0.009983341872
0	7053	65.913881369565	0.166793946798
0	7063	66.080675316363	0.060613071828
0	7068	66.141288388191	0.043073214025
0	7073	66.184361602216	0.050602268304
0	7079	66.23496387052	0.024120679438
0	7084	66.259084549958	0.028753330484
0	7090	66.287837880442	0.005486664308
0	7092	66.29332454475	0.010136052847
0	7100	66.303460597597	0.047740335469
0	7105	66.351200933066	0.001890364508
0	7107	66.353091297574	0.083771354629
0	7115	66.436862652203	0.011080305658
0	7120	66.447942957861	0.037155205228
0	7125	66.485098163089	0.071686792497
0	7130	66.556784955586	0.000305294695
0	7132	66.557090250281	0.129146843064
0	7140	66.686237093345	0.028371106591
0	7145	66.714608199936	0.013567285334
0	7150	66.72817548527	0.121946750647
0	7157	66.850122235917	0.06793426488
0	7162	66.918056500797	0.002163393769
0	7164	66.920219894566	0.009034381533
0	7169	66.929254276099	0.055581662686
0	7177	66.984835938785	0.036483939886
0	7182	67.021319878671	0.126748547882
0	7188	67.148068426553	0.021506257965
0	7193	67.169574684518	0.014365878152
0	7198	67.18394056267	0.044571651106
0	7203	67.228512213776	0.001884138594
0	7205	67.23039635237	0.018850636296
0	7213	67.249246988666	0.034291848306
0	7219	67.283538836972	0.015190802765
0	7224	67.298729639737	0.054239210623
0	7231	67.35296885036	0.030046900769
0	7236	67.383015751129	0.028626794803
0	7241	67.411642545932	0.059688818616
0	7246	67.471331364548	0.166984585051
0	7253	67.638315949599	0.005010888587
0	7255	67.643326838186	0.015259963468
0	7263	67.658586801654	0.040431051668
0	7268	67.699017853322	0.035108865197
0	7273	67.734126718519	0.034701091356
0	7279	67.768827809875	0.199711027622
0	7285	67.968538837497	0.039335902164
0	7290	68.007874739661	0.047887040866
0	7295	68.055761780527	0.106618978653
0	7300	68.16238075918	0.023227280298
0	7305	68.185608039478	0.044035709481
0	7310	68.229643748959	0.039012308537
0	7315	68.268656057496	0.133413797799
0	7320	68.402069855295	0.02900635406
0	7325	68.431076209355	0.020527773512
0	7330	68.451603982867	0.040240138316
0	7335	68.491844121183	0.004624708602
0	7337	68.496468829785	0.010161911701
0	7342	68.506630741486	0.095982157445
0	7350	68.602612898931	0.031636902243
0	7355	68.634249801174	0.011263112164
0	7360	68.645512913338	0.007874556162
0	7362	68.6533874695	0.098115130871
0	7371	68.751502600371	0.051144422712
0	7376	68.802647023083	0.013425219057
0	7381	68.81607224214	0.072155934652
0	7386	68.888228176792	0.003062214592
0	7388	68.891290391384	0.008551079898
0	7393	68.899841471282	0.05663625583
0	7401	68.956477727112	0.008249733153
0	7407	68.964727460265	0.09265970445
0	7413	69.057387164715	0.020032955558
0	7418	69.077420120273	0.001526824962
0	7420	69.078946945235	0.00970625497
0	7425	69.088653200205	0.012529739645
0	7430	69.10118293985	0.034032077446
0	7438	69.135215017296	0.004174211593
0	7440	69.139389228889	0.037203432212
0	7449	69.176592661101	0.075867812312
0	7455	69.252460473413	0.028632724194
0	7460	69.281093197607	0.043032858055
0	7467	69.324126055662	0.012991419818
0	7472	69.33711747548	0.02093460761
0	7477	69.35805208309	0.0231766498
0	7483	69.38122873289	0.049353267976
0	7488	69.430582000866	0.04592915656
0	7493	69.476511157426	0.028414340247
0	7498	69.504925497673	0.000564790353
0	7500	69.505490288026	0.041676113457
0	7510	69.547166401483	0.002135692051
0	7512	69.549302093534	0.022314918575
0	7520	69.571617012109	0.061586598384
0	7525	69.633203610493	0.108720503489
0	7530	69.741924113982	0.008903092582
0	7535	69.750827206564	0.031965620893
0	7540	69.782792827457	0.015355276685
0	7545	69.798148104142	0.074243065935
0	7551	69.872391170077	0.051902182736
0	7557	69.924293352813	0.030350425147
0	7562	69.95464377796	0.001414093154
0	7564	69.956057871114	0.043547177843
0	7573	69.999605048957	0.016759888551
0	7578	70.016364937508	0.109231694331
0	7583	70.125596631839	0.004966238621
0	7585	70.13056287046	0.011018652888
0	7590	70.141581523348	0.044569733219
0	7598	70.186151256567	0.14692761673
0	7605	70.333078873297	0.04111799106
0	7610	70.374196864357	0.030849352451
0	7615	70.405046216808	0.047130672918
0	7620	70.452176889726	0.026080001371
0	7626	70.478256891097	0.032465477917
0	7631	70.510722369014	0.03265699212
0	7636	70.543379361134	0.061933782157
0	7641	70.605313143291	0.016888182897
0	7649	70.622201326188	0.051066490318
0	7655	70.673267816506	0.050445129757
0	7660	70.723712946263	0.015703060646
0	7665	70.739416006909	0.025357737777
0	7670	70.764773744686	0.037762671493
0	7675	70.802536416179	0.015624598581
0	7680	70.81816101476	0.008406591074
0	7685	70.826567605834	0.179922976802
0	7691	71.006490582636	0.045161934065
0	7696	71.051652516701	0.004621690695
0	7698	71.056274207396	0.096792160317
0	7707	71.153066367713	0.005169585801
0	7709	71.158235953514	0.026818566705
0	7717	71.185054520219	0.086877095942
0	7723	71.271931616161	0.00156138062
0	7725	71.273492996781	0.005194239262
0	7727	71.278687236043	0.046924060175
0	7739	71.325611296218	0.112349532793
0	7746	71.437960829011	0.025029977985
0	7751	71.462990806996	0.011179738688
0	7756	71.474170545684	0.043888944979
0	7761	71.518059490663	0.000500380829
0	7763	71.518559871492	0.013871213841
0	7768	71.532431085333	0.040779133136
0	7776	71.573210218469	0.012979641426
0	7781	71.586189859895	0.055034831633
0	7786	71.641224691528	0.018489398676
0	7791	71.659714090204	0.096900857032
0	7797	71.756614947236	0.014664421662
0	7803	71.771279368898	0.001954272482
0	7805	71.77323364138	0.014261164744
0	7810	71.787494806124	0.003884458912
0	7815	71.791379265036	0.009555473566
0	7820	71.800934738602	0.011375649557
0	7825	71.812310388159	0.028570719212
0	7833	71.840881107371	0.055943450364
0	7838	71.896824557735	0.047059771345
0	7843	71.94388432908	0.187719939181
0	7848	72.131604268261	0.059344336832
0	7854	72.190948605093	0.029070455902
0	7859	72.220019060995	0.01785289322
0	7864	72.237871954215	0.052910445578
0	7870	72.290782399793	0.009147665844
0	7875	72.299930065637	0.043549571922
0	7881	72.343479637559	0.022312918013
0	7886	72.365792555572	0.044439602833
0	7891	72.410232158405	0.007445817609
0	7893	72.417677976014	0.010254503836
0	7901	72.42793247985	0.038245544723
0	7906	72.466178024573	0.096339145638
0	7912	72.562517170211	0.096721838413
0	7919	72.659239008624	0.012605886156
0	7924	72.67184489478	0.121820604745
0	7930	72.793665499525	0.047356927665
0	7936	72.84102242719	0.113984954682
0	7943	72.955007381872	0.013820892387
0	7948	72.968828274259	0.096402957139
0	7953	73.065231231398	0.097558573688
0	7958	73.162789805086	0.035458234341
0	7964	73.198248039427	0.004695412888
0	7966	73.202943452315	0.070759508101
0	7975	73.273702960416	0.072625636669
0	7981	73.346328597085	0.037122777778
0	7986	73.383451374863	0.041068847357
0	7991	73.42452022222	0.024968517552
0	7996	73.449488739772	0.066926521227
0	8001	73.516415260999	0.181953779469
0	8007	73.698369040468	0.354188705315
0	8017	74.052557745783	0.033402229403
0	8022	74.085959975186	0.001155282238
0	8024	74.087115257424	0.048404573499
0	8032	74.135519830923	0.017138054286
0	8037	74.152657885209	0.008518426982
0	8042	74.161176312191	0.021554437852
0	8048	74.182730750043	0.046745557821
0	8053	74.229476307864	0.03436672395
0	8058	74.263843031814	0.119931623965
0	8066	74.383774655779	0.044811429508
0	8072	74.428586085287	0.064269285284
0	8077	74.492855370571	0.088329630377
0	8082	74.581185000948	0.052458512565
0	8087	74.633643513513	0.057773137226
0	8092	74.691416650739	0.112840279196
0	8098	74.804256929935	0.041415326028
0	8104	74.845672255963	0.006264503921
0	8106	74.851936759884	0.001703614769
0	8111	74.853640374653	0.042001421818
0	8119	74.895641796471	0.021635018034
0	8124	74.917276814505	0.082117740638
0	8130	74.999394555143	0.024543267171
0	8135	75.023937822314	0.067771465543
0	8141	75.091709287857	0.149709302412
0	8147	75.241418590269	0.114754621846
0	8153	75.356173212115	0.057912997607
0	8158	75.414086209722	0.086451622418
0	8163	75.50053783214	0.00675006182
0	8165	75.50728789396	0.045193339074
0	8174	75.552481233034	0.003842486419
0	8176	75.556323719453	0.014761499087
0	8184	75.57108521854	0.06095745151
0	8189	75.63204267005	0.022480393845
0	8194	75.654523063895	0.007387880562
0	8199	75.661910944457	0.088715107786
0	8204	75.750626052243	0.046731190677
0	8209	75.79735724292	0.036439665415
0	8214	75.833796908335	0.038310616247
0	8219	75.872107524582	0.016160713266
0	8224	75.888268237848	0.00782912101
0	8229	75.896097358858	0.026883573888
0	8234	75.922980932746	0.067021648075
0	8240	75.990002580821	0.023466876504
0	8245	76.013469457325	0.258713015086
0	8251	76.272182472411	0.043794203731
0	8257	76.315976676142	0.050796727609
0	8263	76.366773403751	0.202511584688
0	8268	76.569284988439	0.005971272995
0	8271	76.575256261434	0.015699168198
0	8279	76.590955429632	0.067855312968
0	8284	76.6588107426	0.018566847008
0	8289	76.677377589608	0.039185042371
0	8294	76.716562631979	0.011228564768
0	8301	76.727791196747	0.109600263838
0	8307	76.837391460585	0.027048431327
0	8312	76.864439891912	0.033558427446
0	8317	76.897998319358	0.023643149146
0	8322	76.921641468504	0.103031555693
0	8328	77.024673024197	0.074978400495
0	8336	77.099651424692	0.042801265992
0	8341	77.142452690684	0.006466319065
0	8343	77.148919009749	0.003701472259
0	8348	77.152620482008	0.143905477168
0	8357	77.296525959176	0.015592298794
0	8362	77.31211825797	0.019120027338
0	8367	77.331238285308	0.001481683343
0	8369	77.332719968651	0.127587024343
0	8377	77.460306992994	0.000444238359
0	8379	77.460751231353	0.037101956695
0	8387	77.497853188048	0.036024140282
0	8392	77.53387732833	0.00259433697
0	8394	77.5364716653	0.012856799265
0	8402	77.549328464565	0.021283949302
0	8408	77.570612413867	0.024943803559
0	8414	77.595556217426	0.030420281452
0	8419	77.625976498878	0.009156784485
0	8424	77.635133283363	0.004350911857
0	8426	77.63948419522	0.018875994551
0	8434	77.658360189771	0.110798214531
0	8442	77.769158404302	0.02584734766
0	8447	77.795005751962	0.019334033037
0	8452	77.814339784999	0.021297190458
0	8457	77.835636975457	0.225721334295
0	8467	78.061358309752	0.008180105711
0	8472	78.069538415463	0.006970399855
0	8474	78.076508815318	0.002442711383
0	8479	78.078951526701	0.034056371969
0	8488	78.11300789867	0.004266914079
0	8491	78.117274812749	0.045814079124
0	8499	78.163088891873	0.015769284849
0	8504	78.178858176722	0.020980567419
0	8509	78.199838744141	0.095848349078
0	8514	78.295687093219	0.04653499176
0	8519	78.342222084979	0.121462564832
0	8524	78.463684649811	0.088760460113
0	8531	78.552445109924	0.045993722864
0	8536	78.598438832788	0.12146593758
0	8542	78.719904770368	0.060648083726
0	8547	78.780552854094	0.00970066762
0	8552	78.790253521714	0.017395102299
0	8557	78.807648624013	0.018480682384
0	8562	78.826129306397	0.011279048591
0	8567	78.837408354988	0.001910703176
0	8569	78.839319058164	0.009508483711
0	8574	78.848827541875	0.091698396223
0	8582	78.940525938098	0.047331608225
0	8587	78.987857546323	0.016110548234
0	8592	79.003968094557	0.028680547895
0	8597	79.032648642452	0.037467930511
0	8602	79.070116572963	0.229068609861
0	8608	79.299185182824	0.009163793606
0	8613	79.30834897643	0.037537981462
0	8619	79.345886957892	0.107323538493
0	8625	79.453210496385	0.003028844648
0	8627	79.456239341033	0.065608710068
0	8635	79.521848051101	0.085463617223
0	8640	79.607311668324	0.071998883414
0	8645	79.679310551738	0.232576337183
0	8651	79.911886888921	0.125763437658
0	8656	80.037650326579	0.11906492042
0	8662	80.156715246999	0.084995810651
0	8667	80.24171105765	0.002410785098
0	8669	80.244121842748	0.006892939562
0	8674	80.25101478231	0.160074669459
0	8682	80.411089451769	0.014809004111
0	8687	80.42589845588	0.065786081894
0	8693	80.491684537774	0.070292780101
0	8698	80.561977317875	0.016738067145
0	8703	80.57871538502	0.088877837812
0	8708	80.667593222832	0.038678834857
0	8714	80.706272057689	0.023584589423
0	8719	80.729856647112	0.060228372828
0	8724	80.79008501994	0.046461902219
0	8731	80.836546922159	0.102103543196
0	8737	80.938650465355	0.009478607445
0	8742	80.9481290728	0.211533254357
0	8748	81.159662327157	0.026458500583
0	8753	81.18612082774	0.03750767155
0	8759	81.22362849929	0.182367075029
0	8765	81.405995574319	0.020821235359
0	8770	81.426816809678	0.098278051972
0	8777	81.52509486165	0.075896975334
0	8782	81.600991836984	0.139697649757
0	8787	81.740689486741	0.018479532499
0	8792	81.75916901924	0.004929109469
0	8794	81.764098128709	0.061702425869
0	8803	81.825800554578	0.068684501923
0	8809	81.894485056501	0.118069927582
0	8816	82.012554984083	0.012464286719
0	8821	82.025019270802	0.008041785923
0	8826	82.033061056725	0.110830074398
0	8832	82.143891131123	0.023820679159
0	8837	82.167711810282	0.121078529254
0	8842	82.288790339536	0.0152971319
0	8847	82.304087471436	0.01230704425
0	8852	82.316394515686	0.017492310479
0	8857	82.333886826165	0.018479710436
0	8862	82.352366536601	0.112989827191
0	8868	82.465356363792	0.11915987712
0	8874	82.584516240912	0.01991940554
0	8879	82.604435646452	0.004207777171
0	8881	82.608643423623	0.037284397394
0	8889	82.645927821017	0.09460440549
0	8894	82.740532226507	0.053791332552
0	8899	82.794323559059	0.073814898877
0	8904	82.868138457936	0.083126393851
0	8910	82.951264851787	0.020087532565
0	8915	82.971352384352	0.127107036642
0	8922	83.098459420994	0.017503018833
0	8927	83.115962439827	0.079239820782
0	8933	83.195202260609	0.013873178674
0	8938	83.209075439283	0.041597359927
0	8943	83.25067279921	0.014233649981
0	8948	83.264906449191	0.0310064315
0	8953	83.295912880691	0.061183999593
0	8958	83.357096880284	0.023279958181
0	8963	83.380376838465	0.026044980803
0	8968	83.406421819268	0.02174025642
0	8973	83.428162075688	0.008045403271
0	8978	83.436207478959	0.00254085515
0	8980	83.438748334109	0.01462628066
0	8988	83.453374614769	0.010544074012
0	8993	83.463918688781	0.002441362965
0	8995	83.466360051746	0.171911970565
0	9004	83.638272022311	0.102387217665
0	9010	83.740659239976	0.012800107964
0	9015	83.75345934794	0.082669585457
0	9020	83.836128933397	0.101308099984
0	9026	83.937437033381	0.001045241229
0	9028	83.93848227461	0.006220566387
0	9030	83.944702840997	0.027570732806
0	9041	83.972273573803	0.043795987251
0	9046	84.016069561054	0.003346093922
0	9048	84.019415654976	0.039525678953
0	9056	84.058941333929	0.007733854945
0	9058	84.066675188874	0.02215277659
0	9066	84.088827965464	0.012014750974
0	9071	84.100842716438	0.115429309896
0	9077	84.216272026334	0.006027897434
0	9079	84.222299923768	0.221250622157
0	9091	84.443550545925	0.012696460047
0	9096	84.456247005972	0.124603850135
0	9101	84.580850856107	0.009471566944
0	9106	84.590322423051	0.056636140374
0	9111	84.646958563425	0.00391310603
0	9113	84.650871669455	0.132712502211
0	9124	84.783584171666	0.014439116304
0	9130	84.79802328797	0.067785079238
0	9137	84.865808367208	0.006438169797
0	9139	84.872246537005	0.031772033035
0	9147	84.90401857004	0.125233508458
0	9153	85.029252078498	0.074123211917
0	9158	85.103375290415	0.15023852886
0	9164	85.253613819275	0.175131673886
0	9169	85.428745493161	0.011839303179
0	9174	85.44058479634	0.04382943929
0	9179	85.48441423563	0.034480572492
0	9184	85.518894808122	0.199408387644
0	9192	85.718303195766	0.001303952772
0	9194	85.719607148538	0.002756983162
0	9196	85.7223641317	0.012908578063
0	9204	85.735272709763	0.064497081185
0	9214	85.799769790948	0.00810530305
0	9219	85.807875093998	0.018518891362
0	9224	85.82639398536	0.078496761234
0	9230	85.904890746594	0.065046062743
0	9235	85.969936809337	0.021940052679
0	9240	85.991876862016	0.004290175418
0	9242	85.996167037434	0.057957083698
0	9250	86.054124121132	0.004901103209
0	9252	86.059025224341	0.005524226177
0	9257	86.064549450518	0.005549856241
0	9259	86.070099306759	0.025086651523
0	9270	86.095185958282	0.142756336437
0	9276	86.237942294719	0.002132562617
0	9278	86.240074857336	0.003376370504
0	9280	86.24345122784	0.038386329202
0	9291	86.281837557042	0.025669383252
0	9297	86.307506940294	0.056325043172
0	9304	86.363831983466	0.047884377598
0	9309	86.411716361064	0.028329057291
0	9314	86.440045418355	0.03820246965
0	9319	86.478247888005	0.183873469898
0	9326	86.662121357903	0.0798331346
0	9331	86.741954492503	0.156503613782
0	9339	86.898458106285	0.068333358624
0	9344	86.966791464909	0.080104522773
0	9349	87.046895987682	0.092023952567
0	9354	87.138919940249	0.049144438132
0	9359	87.188064378381	0.05287559973
0	9365	87.240939978111	0.099521273115
0	9372	87.340461251226	0.015188462972
0	9377	87.355649714198	0.007292308166
0	9379	87.362942022364	0.002935727478
0	9384	87.365877749842	0.100211005795
0	9393	87.466088755637	0.06550836157
0	9398	87.531597117207	0.017200125659
0	9403	87.548797242866	0.096406569238
0	9409	87.645203812104	0.056707019861
0	9414	87.701910831965	0.007090407464
0	9416	87.709001239429	0.008519575752
0	9425	87.717520815181	0.05504955657
0	9430	87.772570371751	0.008759360726
0	9435	87.781329732477	0.096645567073
0	9440	87.87797529955	0.015956369823
0	9445	87.893931669373	0.002354647741
0	9447	87.896286317114	0.037397885139
0	9455	87.933684202253	0.051403926834
0	9461	87.985088129087	0.172424417879
0	9470	88.157512546966	0.021948789759
0	9475	88.179461336725	0.015383005151
0	9480	88.194844341876	0.052213555392
0	9485	88.247057897268	0.013969921255
0	9490	88.261027818523	0.002767162767
0	9492	88.26379498129	0.021606553164
0	9500	88.285401534454	0.018497709771
0	9505	88.303899244225	0.035603930592
0	9510	88.339503174817	0.051148511816
0	9516	88.390651686633	0.106960043077
0	9522	88.49761172971	0.00496223595
0	9524	88.50257396566	0.007780597761
0	9529	88.510354563421	0.002100036662
0	9534	88.512454600083	0.029566266275
0	9543	88.542020866358	0.067576787361
0	9548	88.609597653719	0.237704731102
0	9556	88.847302384821	0.029693050203
0	9561	88.876995435024	0.037606921568
0	9568	88.914602356592	0.004403050672
0	9570	88.919005407264	0.034512517626
0	9578	88.95351792489	0.081958987348
0	9583	89.035476912238	0.062204570038
0	9591	89.097681482276	0.040213652039
0	9596	89.137895134315	0.16030717075
0	9605	89.298202305065	0.003355748343
0	9607	89.301558053408	0.024332742765
0	9615	89.325890796173	0.013362924642
0	9620	89.339253720815	0.030830205341
0	9626	89.370083926156	0.144070074337
0	9631	89.514154000493	0.023218851715
0	9636	89.537372852208	0.048702248069
0	9641	89.586075100277	0.040406049628
0	9646	89.626481149905	0.033172883819
0	9651	89.659654033724	0.005503632634
0	9653	89.665157666358	0.002005996317
0	9658	89.667163662675	0.018748942793
0	9666	89.685912605468	0.03392903163
0	9671	89.719841637098	0.186013407952
0	9678	89.90585504505	0.002251144619
0	9680	89.908106189669	0.060510427182
0	9688	89.968616616851	0.014323726205
0	9693	89.982940343056	0.021015136445
0	9698	90.003955479501	0.000361229594
0	9700	90.004316709095	0.060903796918
0	9708	90.065220506013	0.001418320293
0	9710	90.066638826306	0.05630769982
0	9720	90.122946526126	0.103730449543
0	9725	90.226676975669	0.061149076635
0	9730	90.287826052304	0.181765574661
0	9736	90.469591626965	0.000342212678
0	9738	90.469933839643	0.071987255864
0	9746	90.541921095507	0.016191718434
0	9751	90.558112813941	0.083390184841
0	9757	90.641502998782	0.125743617718
0	9762	90.7672466165	0.083086847092
0	9767	90.850333463592	0.022939020823
0	9772	90.873272484415	0.001332114204
0	9774	90.874604598619	0.010615369001
0	9779	90.88521996762	0.043504752427
0	9787	90.928724720047	0.023573771667
0	9792	90.952298491714	0.059270334209
0	9797	91.011568825923	0.038085718084
0	9803	91.049654544007	0.11095778613
0	9809	91.160612330137	0.00505139636
0	9811	91.165663726497	0.013772257989
0	9820	91.179435984486	0.019146769144
0	9825	91.19858275363	0.08127196204
0	9831	91.27985471567	0.012738317474
0	9836	91.292593033144	0.008532042898
0	9841	91.301125076042	0.113686043621
0	9847	91.414811119663	0.098814422344
0	9852	91.513625542007	0.079821208436
0	9858	91.593446750443	0.124743881006
0	9865	91.718190631449	0.013551651902
0	9870	91.731742283351	0.00752210639
0	9872	91.739264389741	0.096602507694
0	9880	91.835866897435	0.02770612905
0	9885	91.863573026485	0.025532830608
0	9891	91.889105857093	0.080937479575
0	9897	91.970043336668	0.229573127557
0	9903	92.199616464225	0.111474258234
0	9909	92.311090722459	0.048619916677
0	9914	92.359710639136	0.00632592053
0	9916	92.366036559666	0.021645869343
0	9924	92.387682429009	0.076831787621
0	9930	92.46451421663	0.077789562449
0	9937	92.542303779079	0.076779352189
0	9942	92.619083131268	0.088884654657
0	9949	92.707967785925	0.021148133908
0	9955	92.729115919833	0.13185662674
0	9961	92.860972546573	0.031376678643
0	9967	92.892349225216	0.242132160874
0	9977	93.13448138609	0.122171512907
0	9984	93.256652898997	0.005084514507
0	9986	93.261737413504	0.024358651145
0	9994	93.286096064649	0.017649529943
0	9999	93.303745594592	0.055423855326
0	10004	93.359169449918	0.08941326962
0	10010	93.448582719538	0.006209207548
0	10012	93.454791927086	0.095005272295
0	10020	93.549797199381	0.027981980343
0	10025	93.577779179724	0.118469749894
0	10034	93.696248929618	0.031675122036
0	10039	93.727924051654	0.043439981753
0	10044	93.771364033407	0.054316459779
0	10049	93.825680493186	0.072632780816
0	10056	93.898313274002	0.053837876301
0	10063	93.952151150303	0.089878739317
0	10069	94.04202988962	0.008018800153
0	10071	94.050048689773	0.065559301808
0	10080	94.115607991581	0.016367993337
0	10086	94.131975984918	0.033415317623
0	10091	94.165391302541	0.008193162585
0	10093	94.173584465126	0.064644242087
0	10101	94.238228707213	0.119156642762
0	10106	94.357385349975	0.033123055169
0	10111	94.390508405144	0.025002819174
0	10117	94.415511224318	0.169266585164
0	10123	94.584777809482	0.014208236307
0	10128	94.598986045789	0.149492926822
0	10134	94.748478972611	0.031589575495
0	10139	94.780068548106	0.003349761917
0	10141	94.783418310023	0.039851430022
0	10149	94.823269740045	0.035239965292
0	10155	94.858509705337	0.152743688989
0	10160	95.011253394326	0.019019267791
0	10165	95.030272662117	0.023890138372
0	10170	95.054162800489	0.001909014826
0	10172	95.056071815315	0.22238447968
0	10182	95.278456294995	0.02483720669
0	10188	95.303293501685	0.027696346075
0	10193	95.33098984776	0.037744912976
0	10198	95.368734760736	0.075696718222
0	10203	95.444431478958	0.017436919405
0	10208	95.461868398363	0.006206684564
0	10210	95.468075082927	0.046845605798
0	10218	95.514920688725	0.002573858554
0	10220	95.517494547279	0.134272878875
0	10228	95.651767426154	0.016565269435
0	10233	95.668332695589	0.084989632379
0	10239	95.753322327968	0.072873815375
0	10245	95.826196143343	0.005201381653
0	10247	95.831397524996	0.007487098824
0	10252	95.83888462382	0.008972051172
0	10257	95.847856674992	0.012327627116
0	10265	95.860184302108	0.011598757136
0	10271	95.871783059244	0.086894291943
0	10276	95.958677351187	0.118671396495
0	10281	96.077348747682	0.03483147394
0	10286	96.112180221622	0.078325375167
0	10293	96.190505596789	0.011124487857
0	10298	96.201630084646	0.005587860011
0	10300	96.207217944657	0.152953200626
0	10309	96.360171145283	0.025631268032
0	10314	96.385802413315	0.045821074946
0	10319	96.431623488261	0.032706340701
0	10324	96.464329828962	0.096643860604
0	10329	96.560973689566	0.09082074823
0	10335	96.651794437796	0.017969984013
0	10340	96.669764421809	0.039537293532
0	10346	96.709301715341	0.093301480223
0	10353	96.802603195564	0.051677823047
0	10359	96.854281018611	0.023024099921
0	10364	96.877305118532	0.020575778869
0	10369	96.897880897401	0.017778636634
0	10374	96.915659534035	0.000329200817
0	10376	96.915988734852	0.0210501955
0	10385	96.937038930352	0.010323516764
0	10390	96.947362447116	0.116331023354
0	10396	97.06369347047	0.04418622401
0	10401	97.10787969448	0.021060033253
0	10408	97.128939727733	0.037136497158
0	10413	97.166076224891	0.000392688806
0	10415	97.166468913697	0.002986409028
0	10417	97.169455322725	0.03430022427
0	10428	97.203755546995	0.026038867228
0	10434	97.229794414223	0.017091888996
0	10439	97.246886303219	0.103971953405
0	10444	97.350858256624	0.088606323215
0	10449	97.439464579839	0.127401039125
0	10455	97.566865618964	0.11757399256
0	10460	97.684439611524	0.069481923295
0	10466	97.753921534819	0.013787801797
0	10471	97.767709336616	0.073317554505
0	10477	97.841026891121	0.026260784813
0	10482	97.867287675934	0.060822538274
0	10488	97.928110214208	0.076037160182
0	10495	98.00414737439	0.014715644412
0	10500	98.018863018802	0.031457003209
0	10505	98.050320022011	0.024371117003
0	10510	98.074691139014	0.005012240641
0	10512	98.079703379655	0.056989382823
0	10520	98.136692762478	0.006016467071
0	10522	98.142709229549	0.107948377301
0	10531	98.25065760685	0.0332767315
0	10537	98.28393433835	0.098433222885
0	10544	98.382367561235	0.018335273144
0	10549	98.400702834379	0.206309012528
0	10555	98.607011846907	0.009873372232
0	10560	98.616885219139	0.082444611801
0	10566	98.69932983094	0.100915379821
0	10571	98.800245210761	0.056504000393
0	10576	98.856749211154	0.137255367562
0	10582	98.994004578716	0.019829042282
0	10587	99.013833620998	0.041490403861
0	10592	99.055324024859	0.057968325499
0	10598	99.113292350358	0.085843204076
0	10603	99.199135554434	0.012686044517
0	10608	99.211821598951	0.024922223866
0	10613	99.236743822817	0.008939395082
0	10618	99.245683217899	0.029230576137
0	10623	99.274913794036	0.123532652856
0	10629	99.398446446892	0.08363796656
0	10634	99.482084413452	0.009235432181
0	10639	99.491319845633	0.028673062169
0	10647	99.519992907802	0.025584022101
0	10652	99.545576929903	0.139543408189
0	10658	99.685120338092	0.015304470869
0	10663	99.700424808961	0.011851731375
0	10668	99.712276540336	0.151646703773
0	10677	99.863923244109	0.056461080068
0	10684	99.920384324177	0.006336975711
0	10686	99.926721299888	0.211530027622
0	10698	100.13825132751	0.066224538243
0	10703	100.204475865753	0.157056287855
0	10710	100.361532153608	0.04840386209
0	10715	100.409936015698	0.017574481303
0	10720	100.427510497001	0.05646561766
0	10726	100.483976114661	0.051489535858
0	10731	100.535465650519	0.092002878199
0	10738	100.627468528718	0.038990159021
0	10743	100.666458687739	0.016873018567
0	10748	100.683331706306	0.011908678936
0	10753	100.695240385242	0.078329211159
0	10758	100.773569596401	0.10591659649
0	10765	100.879486192891	0.115030954969
0	10770	100.99451714786	0.032807383819
0	10775	101.027324531679	0.131710600796
0	10782	101.159035132475	0.030846672718
0	10787	101.189881805193	0.126402888856
0	10792	101.316284694049	0.036778130609
0	10797	101.353062824658	0.003551070841
0	10799	101.356613895499	0.045659302578
0	10808	101.402273198077	0.024595461777
0	10813	101.426868659854	0.073135324396
0	10819	101.50000398425	0.010068231552
0	10824	101.510072215802	0.051361430674
0	10829	101.561433646476	2.67535e-07
0	10831	101.561433914011	0.050210081555
0	10840	101.611643995566	0.012781630337
0	10845	101.624425625903	0.049081921698
0	10850	101.673507547601	0.123929397942
0	10856	101.797436945543	0.228388906142
0	10862	102.025825851685	0.027610814132
0	10867	102.053436665817	0.028482942014
0	10873	102.081919607831	0.193105655041
0	10880	102.275025262872	0.058159549244
0	10885	102.333184812116	0.023094026574
0	10890	102.35627883869	0.011812179233
0	10895	102.368091017923	0.013139275654
0	10900	102.381230293577	0.050797645271
0	10905	102.432027938848	0.000824290113
0	10907	102.432852228961	0.042327210176
0	10916	102.475179439137	0.022798430456
0	10921	102.497977869593	0.008373910387
0	10926	102.50635177998	0.041360136132
0	10931	102.547711916112	0.013129051409
0	10937	102.560840967521	0.011075186139
0	10942	102.57191615366	0.036794370441
0	10947	102.608710524101	0.100886936544
0	10952	102.709597460645	0.031343229231
0	10957	102.740940689876	0.022745335431
0	10963	102.763686025307	0.000859469073
0	10965	102.76454549438	0.021711237114
0	10973	102.786256731494	0.026173797646
0	10978	102.81243052914	0.004872681444
0	10980	102.817303210584	0.019311047396
0	10988	102.83661425798	0.039481678788
0	10993	102.876095936768	0.021249129919
0	10998	102.897345066687	0.116637686548
0	11004	103.013982753235	0.004373892688
0	11006	103.018356645923	0.162057865156
0	11015	103.180414511079	0.093731649231
0	11022	103.27414616031	0.008592583448
0	11027	103.282738743758	0.194260915663
0	11032	103.476999659421	0.066287255392
0	11037	103.543286914813	0.04836118679
0	11042	103.591648101603	0.028765339082
0	11047	103.620413440685	0.283900495095
0	11055	103.90431393578	0.038368805537
0	11060	103.942682741317	0.002512951995
0	11062	103.945195693312	0.114178599572
0	11070	104.059374292884	0.016073464876
0	11075	104.07544775776	0.072851792912
0	11080	104.148299550672	0.031099709951
0	11087	104.179399260623	0.0049522789
0	11089	104.184351539523	0.106625583609
0	11097	104.290977123132	0.035882749524
0	11102	104.326859872656	0.026468288141
0	11107	104.353328160797	0.07427067735
0	11114	104.427598838147	0.005480704919
0	11116	104.433079543066	0.007057904172
0	11121	104.440137447238	0.008740715098
0	11127	104.448878162336	0.061588232927
0	11135	104.510466395263	0.071659980174
0	11140	104.582126375437	0.017454171665
0	11145	104.599580547102	0.066901068149
0	11150	104.666481615251	0.023364864991
0	11157	104.689846480242	0.007456176827
0	11159	104.697302657069	0.041319543977
0	11167	104.738622201046	0.019678514712
0	11172	104.758300715758	3.3165941e-05
0	11174	104.758333881699	0.014420404477
0	11179	104.772754286176	0.439220620061
0	11191	105.211974906237	0.038503705007
0	11198	105.250478611244	0.020529583867
0	11203	105.271008195111	0.063934648808
0	11208	105.334942843919	0.088333280222
0	11213	105.423276124141	0.06487868403
0	11218	105.488154808171	0.047174040746
0	11224	105.535328848917	0.061162789243
0	11229	105.59649163816	0.025843724312
0	11234	105.622335362472	0.039773128426
0	11240	105.662108490898	0.022985794812
0	11245	105.68509428571	0.058012280194
0	11250	105.743106565904	0.041381383137
0	11255	105.784487949041	0.000870145201
0	11257	105.785358094242	0.125091794494
0	11268	105.910449888736	0.107975216521
0	11276	106.018425105257	0.003191313047
0	11278	106.021616418304	0.057222581104
0	11286	106.078838999408	0.022057192877
0	11292	106.100896192285	0.039959428689
0	11298	106.140855620974	0.002726708326
0	11300	106.1435823293	0.002394887088
0	11302	106.145977216388	0.048301444428
0	11313	106.194278660816	0.031978554458
0	11319	106.226257215274	0.060317543109
0	11324	106.286574758383	0.060450825419
0	11330	106.347025583802	0.029041574645
0	11335	106.376067158447	0.024262120125
0	11340	106.400329278572	0.016153339079
0	11345	106.416482617651	0.056228676192
0	11350	106.472711293843	0.078789485453
0	11357	106.551500779296	0.006963247448
0	11359	106.558464026744	0.088948263042
0	11367	106.647412289786	0.105602321361
0	11375	106.753014611147	0.02655759673
0	11380	106.779572207877	0.000680598876
0	11382	106.780252806753	7.3573255e-05
0	11384	106.780326380008	0.113998805149
0	11396	106.894325185157	0.060457950572
0	11402	106.954783135729	0.06121533566
0	11407	107.015998471389	0.129504798629
0	11413	107.145503270018	0.062522726359
0	11419	107.208025996377	0.043869689908
0	11424	107.251895686285	0.008405663139
0	11429	107.260301349424	0.175160264107
0	11437	107.435461613531	0.006149866278
0	11439	107.441611479809	0.00631158123
0	11444	107.447923061039	0.057054514529
0	11452	107.504977575568	0.025217373887
0	11458	107.530194949455	0.010916240068
0	11463	107.541111189523	0.035737174802
0	11468	107.576848364325	0.033701692424
0	11474	107.610550056749	0.000930368243
0	11476	107.611480424992	0.093923708628
0	11485	107.70540413362	0.011358160386
0	11490	107.716762294006	0.05424318518
0	11496	107.771005479186	0.036713427835
0	11502	107.807718907021	0.026450141007
0	11507	107.834169048028	0.152840405221
0	11513	107.987009453249	0.153912569618
0	11520	108.140922022867	0.101968969305
0	11526	108.242890992172	0.050557499838
0	11531	108.29344849201	0.085000898171
0	11536	108.378449390181	0.069686734945
0	11543	108.448136125126	0.059098340094
0	11548	108.50723446522	0.03585296119
0	11553	108.54308742641	0.002642307896
0	11555	108.545729734306	0.05141494474
0	11563	108.597144679046	0.113426655091
0	11568	108.710571334137	0.031367548745
0	11573	108.741938882882	0.003971116381
0	11575	108.745909999263	0.038940015056
0	11583	108.784850014319	0.101088048573
0	11588	108.885938062892	0.022403645409
0	11593	108.908341708301	0.01394401144
0	11598	108.922285719741	0.05748648235
0	11603	108.979772202091	0.033008766786
0	11608	109.012780968877	0.023286959106
0	11613	109.036067927983	0.000379071336
0	11615	109.036446999319	0.02723137134
0	11623	109.063678370659	0.101409377075
0	11628	109.165087747734	0.001683973848
0	11630	109.166771721582	0.002736044492
0	11632	109.169507766074	0.015454953586
0	11640	109.18496271966	0.00974311349
0	11645	109.19470583315	0.029081481792
0	11653	109.223787314942	0.010457228576
0	11658	109.234244543518	0.007474274745
0	11660	109.241718818263	0.011562146114
0	11668	109.253280964377	0.015916503728
0	11673	109.269197468105	0.023688612239
0	11678	109.292886080344	0.008548951449
0	11683	109.301435031793	0.073504653245
0	11688	109.374939685038	0.061973032285
0	11693	109.436912717323	0.05721742514
0	11698	109.494130142463	0.049697600501
0	11703	109.543827742964	0.10662923326
0	11712	109.650456976224	0.080425928992
0	11718	109.730882905216	0.011110652731
0	11723	109.741993557947	0.039527728298
0	11728	109.781521286245	0.109738054359
0	11735	109.891259340604	0.099326194114
0	11740	109.990585534718	0.040377630092
0	11746	110.03096316481	0.062202655177
0	11751	110.093165819987	0.031956352896
0	11756	110.125122172883	0.008825041694
0	11761	110.133947214577	0.001615535153
0	11763	110.13556274973	0.009929774887
0	11768	110.145492524617	0.02360987144
0	11776	110.169102396057	0.140862393425
0	11781	110.309964789482	0.012198198917
0	11786	110.322162988399	0.02611332643
0	11792	110.348276314829	0.018949095601
0	11797	110.36722541043	0.022963868842
0	11802	110.390189279272	0.003997042491
0	11804	110.394186321763	0.056469340937
0	11813	110.4506556627	0.002368922756
0	11815	110.453024585456	0.012132471767
0	11820	110.465157057223	0.000915798702
0	11822	110.466072855925	0.148246983429
0	11834	110.614319839354	0.133856900804
0	11841	110.748176740158	0.00298331436
0	11843	110.751160054518	0.164676180503
0	11851	110.915836235021	0.0349381372
0	11856	110.950774372221	0.012393441685
0	11861	110.963167813906	0.070288075695
0	11866	111.033455889601	0.138570362772
0	11872	111.172026252373	0.038899741528
0	11877	111.210925993901	0.064596559701
0	11882	111.275522553602	0.181906686376
0	11891	111.457429239978	0.00542827437
0	11893	111.462857514348	0.106201836254
0	11904	111.569059350602	0.000990521
0	11906	111.570049871602	0.055259036391
0	11915	111.625308907993	0.009842920192
0	11920	111.635151828185	0.136130726025
0	11926	111.77128255421	0.044843784967
0	11931	111.816126339177	0.038649289723
0	11937	111.8547756289	0.01448162648
0	11942	111.86925725538	0.01358280095
0	11947	111.88284005633	0.017826212853
0	11952	111.900666269183	0.043396989867
0	11958	111.94406325905	0.010418232158
0	11963	111.954481491208	0.135911457186
0	11969	112.090392948394	0.008526474516
0	11974	112.09891942291	0.010176796843
0	11979	112.109096219753	0.037801624587
0	11984	112.14689784434	0.069724429494
0	11990	112.216622273834	0.058949034706
0	11998	112.27557130854	0.070450271026
0	12003	112.346021579566	0.010913742875
0	12009	112.356935322441	0.033589052279
0	12014	112.39052437472	0.021329581474
0	12019	112.411853956194	0.098589219642
0	12025	112.510443175836	0.043568035694
0	12030	112.55401121153	0.014241166827
0	12035	112.568252378357	0.018939060145
0	12041	112.587191438502	0.017648888206
0	12046	112.604840326708	0.06472356171
0	12052	112.669563888418	0.000406027007
0	12054	112.669969915425	0.138192123029
0	12062	112.808162038454	0.021884639536
0	12067	112.83004667799	0.011851255056
0	12072	112.841897933046	0.00633989838
0	12074	112.848237831426	0.066828955923
0	12082	112.915066787349	0.011423772802
[...]
19	12883	119.87703977182	1.1655971233016
19	13005	121.042636895122	1.3222624127416
19	13116	122.364899307864	0.96812659596354
19	13252	123.333025903828	12.961511183311
19	14615	136.294537087139	5.6875483494703
19	15151	141.982085436609	1.0813425065141
19	15253	143.063427943123	0.25371508650192
19	15265	143.317143029625	0.63972747040648
19	15309	143.956870500031	0.34531070251715
19	15384	144.302181202548	0.74345629889842
19	15466	145.045637501446	2.263084467846
19	15716	147.308721969292	1.3541443806324
19	15813	148.662866349924	0.15654253394514
19	15824	148.819408883869	5.7063917041227
19	16468	154.525800587992	7.3865128268258
19	17173	161.912313414818	0.82375668317311
19	17227	162.736070097991	0.26209489048339
19	17267	162.998164988474	3.6998754097964
19	17584	166.69804039827	2.0729734276934
19	17853	168.771013825963	0.19091574334352
19	17878	168.961929569307	1.741757432337
19	18111	170.703687001644	0.85068744704375
19	18178	171.554374448688	0.67651021904945
19	18239	172.230884667737	3.2108245015196
19	18572	175.441709169257	0.031716882432592
19	18573	175.47342605169	0.096388705919017
19	18579	175.569814757609	2.0249023451854
19	18816	177.594717102794	0.1754451625076
19	18833	177.770162265302	4.0599205348582
19	19321	181.83008280016	1.6370998945565
19	19491	183.467182694717	1.889343777854
19	19677	185.356526472571	11.618365592908
19	20890	196.974892065479	0.037247563243794
19	20903	197.012139628723	1.1795421107494
19	21021	198.191681739472	0.25578142359102
19	21034	198.447463163063	0.53252591873413
19	21096	198.979989081797	2.0619359499756
19	21324	201.041925031773	2.6443828581464
19	21603	203.686307889919	0.072408378548075
19	21609	203.758716268467	5.9702708480892
19	22239	209.728987116556	0.69084583639616
19	22307	210.419832952952	3.237016685851
19	22622	213.656849638803	1.2301370235037
19	22722	214.886986662307	6.7879544927172
19	23440	221.674941155024	3.140329348958
19	23718	224.815270503982	2.7968234579108
19	23995	227.612093961893	2.8293749507757
19	24321	230.441468912669	0.16317446322333
19	24343	230.604643375892	3.0291660024687
19	24661	233.633809378361	1.7329185879175
19	24836	235.366727966279	1.5393920555158
19	24974	236.906120021795	2.282995771984
19	25209	239.189115793779	5.5348984918924
19	25690	244.724014285671	1.3889330701404
19	25866	246.112947355811	4.6975746390681
19	26467	250.810521994879	5.4629663785722
19	26997	256.273488373451	3.7525769981551
19	27422	260.026065371606	1.5966765244499
19	27619	261.622741896056	2.3792001554685
19	27868	264.001942051525	2.1245074423998
19	28076	266.126449493925	1.1099412460071
19	28149	267.236390739932	2.8425875627552
19	28457	270.078978302687	0.26673784073818
19	28487	270.345716143425	7.3734847851668
19	29315	277.719200928592	0.91900861522712
19	29391	278.638209543819	0.013639448154459
19	29392	278.651848991973	1.0336109814164
19	29482	279.685459973389	0.73998449809993
19	29565	280.425444471489	1.9306949060165
19	29779	282.356139377506	3.1433903667676
19	30089	285.499529744274	1.5161966519191
19	30250	287.015726396193	0.94006527104347
19	30376	287.955791667236	2.1663706334814
19	30649	290.122162300717	1.8543096465825
19	30858	291.976471947299	1.0372762085785
19	31005	293.013748155877	2.4535010768876
19	31271	295.467249232765	0.11500016308243
19	31305	295.582249395847	3.4390116181314
19	31712	299.021261013978	0.17200515757724
19	31715	299.193266171555	5.1758587075192
19	32274	304.369124879074	0.087669074263854
19	32287	304.456793953338	0.65202917389719
19	32357	305.108823127235	0.48185256203909
19	32415	305.590675689274	3.838496721187
19	32890	309.429172410461	14.963189005915
19	34524	324.392361416376	0.7452783505275
19	34587	325.137639766903	11.374142102107
19	35739	336.51178186901	5.7398240089085
19	36308	342.251605877919	0.17923340771954
19	36329	342.430839285639	4.5668646910407
19	36830	346.99770397668	0.65191496027004
19	36900	347.64961893695	0.050022465859313
19	36906	347.699641402809	3.6947270023681
19	37309	351.394368405177	2.572576030285
19	37550	353.966944435462	3.5992601022427
19	37915	357.566204537705	1.6806389501081
19	38131	359.246843487813	1.5615526786486
19	38271	360.808396166462	5.7228270735462
19	38814	366.531223240008	2.0952233376432
19	39060	368.626446577651	0.28182658028905
19	39074	368.90827315794	7.6796999791231
19	40028	376.587973137063	2.1678224464628
19	40302	378.755795583526	1.0595753262087
19	40382	379.815370909735	0.66136692461469
19	40486	380.47673783435	0.55413194943754
19	40551	381.030869783788	1.096766371408
19	40680	382.127636155196	0.48998784792414
19	40717	382.61762400312	0.080461831012421
19	40729	382.698085834132	2.1514484638383
19	40982	384.84953429797	0.17660008522552
19	41006	385.026134383196	1.7913976764171
19	41131	386.817532059613	0.35237573708314
19	41175	387.169907796696	2.1730382183403
19	41381	389.342946015036	0.0093079710016586
19	41382	389.352253986038	2.8268636039556
19	41729	392.179117589994	0.15272048913374
19	41738	392.331838079128	0.48989797844151
19	41799	392.82173605757	2.4848695944519
19	42093	395.306605652022	1.8636704357292
19	42289	397.170276087751	0.56573562691097
19	42328	397.736011714662	0.091978508922282
19	42344	397.827990223584	1.4143583654781
19	42503	399.242348589062	0.8292417403115
20	1504	13.800100455773	2.2875878468289
20	1720	16.087688302602	2.5044343360585
20	1951	18.59212263866	3.8131977538119
20	2384	22.405320392472	0.49387456467548
20	2432	22.899194957147	0.592999904436
20	2488	23.492194861583	7.0695840070182
20	3267	30.561778868601	4.0798963935917
20	3646	34.641675262193	1.125977404308
20	3796	35.767652666501	1.7132271381504
20	3949	37.480879804651	2.4873982264202
20	4171	39.968278031071	6.5544817400198
20	4981	46.522759771091	0.49721193539341
20	5011	47.019971706484	1.0642763030317
20	5098	48.084248009516	1.1193235095336
20	5234	49.20357151905	1.6342790861153
20	5433	50.837850605165	1.0169632285912
20	5544	51.854813833756	5.4500616739262
20	6151	57.304875507682	0.2885559052474
20	6185	57.593431412929	1.7048242968313
20	6400	59.29825570976	0.029870659827871
20	6406	59.328126369588	1.338507619893
20	6516	60.666633989481	2.0937467438745
20	6749	62.760380733355	0.41885266438606
20	6800	63.179233397741	10.662334275837
20	8014	73.841567673578	0.045972002940412
20	8015	73.887539676518	0.15593574383165
20	8016	74.04347542035	0.31505512350267
20	8064	74.358530543853	0.045963875008523
20	8071	74.404494418862	1.5299757073237
20	8239	75.934470126186	0.30396960033637
20	8250	76.238439726522	0.55609492903521
20	8306	76.794534655557	7.6028235171651
20	9089	84.397358172722	1.3440975368271
20	9206	85.741455709549	0.54080601267327
20	9293	86.282261722222	1.4274201447737
20	9421	87.709681866996	1.1685684229854
20	9563	88.878250289981	0.48396379292389
20	9625	89.362214082905	3.3466373187554
20	9951	92.70885140166	1.3165962487924
20	10068	94.025447650452	9.2307121912493
20	11021	103.256159841701	1.681008465025
20	11189	104.937168306726	0.56879816072406
20	11223	105.50596646745	5.5971811384853
20	11871	111.103147605935	0.34905038014385
20	11890	111.452197986079	1.5124759863606
20	12097	112.96467397244	3.4448886300503
20	12496	116.40956260249	0.93921995490473
20	12630	117.348782557395	0.19514622246158
20	12647	117.543928779857	7.2753815957901
20	13366	124.819310375647	1.1155917804455
20	13454	125.934902156092	2.4693472882168
20	13735	128.404249444309	2.0409950140799
20	13957	130.445244458389	0.16666146857553
20	13969	130.611905926965	1.0445727166547
20	14125	131.65647864362	5.8081772790551
20	14711	137.464655922675	4.933347345242
20	15196	142.398003267917	11.114118136505
20	16365	153.512121404422	4.0934916160263
20	16768	157.605613020448	4.0062058180362
20	17150	161.611818838484	1.3435000261993
20	17249	162.955318864683	0.34452005471583
20	17291	163.299838919399	0.37473317686317
20	17312	163.674572096262	4.9044829745486
20	17825	168.579055070811	1.7607074582835
20	18056	170.339762529094	0.45187305952885
20	18117	170.791635588623	0.69330752741295
20	18166	171.484943116036	1.6892544218755
20	18346	173.174197537912	2.4007922166647
20	18580	175.574989754577	1.6997270775825
20	18783	177.27471683216	2.0339365528113
20	19009	179.308653384971	0.6887787182001
20	19124	179.997432103171	2.9103292631445
20	19423	182.907761366315	13.400479131261
20	20819	196.308240497576	0.24894984279388
20	20841	196.55719034037	0.89370561098248
20	20938	197.450895951352	1.6512909599602
20	21107	199.102186911312	0.93051091647909
20	21176	200.032697827791	0.35503085025747
20	21251	200.387728678048	4.4303941933553
20	21706	204.818122871403	1.7852812653193
20	21872	206.603404136722	0.43865957618758
20	21940	207.04206371291	0.33304468252892
20	21999	207.375108395439	2.5419118302877
20	22274	209.917020225727	2.8004159171697
20	22548	212.717436142897	0.017202264727282
20	22549	212.734638407624	1.125709399693
20	22630	213.860347807317	2.5936962667763
20	22905	216.454044074093	2.5422262722622
20	23189	218.996270346355	10.057298544054
20	24170	229.053568890409	7.3732331372419
20	24934	236.426802027651	0.36220901010629
20	24956	236.789011037757	0.55581663360883
20	25006	237.344827671366	1.6955875955034
20	25183	239.040415266869	0.81502983577404
20	25254	239.855445102643	5.9224942027087
20	25841	245.777939305352	0.18820938445335
20	25853	245.966148689805	6.090596459385
20	26609	252.05674514919	1.3068056376644
20	26729	253.363550786854	0.47949160572616
20	26786	253.84304239258	4.6645268390797
20	27264	258.50756923166	4.4123956548457
20	27775	262.919964886506	0.22513439979792
20	27796	263.145099286304	0.28316338560038
20	27802	263.428262671904	1.901054671346
20	27998	265.32931734325	7.8591761978573
20	28837	273.188493541107	2.49699177168
20	29133	275.685485312787	1.6870079710631
20	29271	277.37249328385	2.5945893846024
20	29521	279.967082668452	5.0767130886601
20	30045	285.043795757112	0.026669574173793
20	30047	285.070465331286	2.9803222327341
20	30386	288.05078756402	2.2341935588715
20	30662	290.284981122891	3.4952654037539
20	31089	293.780246526645	0.32001016311687
20	31127	294.100256689762	0.52348653555258
20	31199	294.623743225315	1.5784048277127
20	31397	296.202148053028	1.2156164732311
20	31498	297.417764526259	0.2727518045412
20	31533	297.6905163308	0.2661294676563
20	31557	297.956645798456	0.75647898183843
20	31646	298.713124780294	1.8993787830617
20	31857	300.612503563356	1.3214896132332
20	31997	301.933993176589	2.2632377381294
20	32260	304.197230914718	0.34099370823398
20	32310	304.538224622952	1.9435916928286
20	32519	306.481816315781	0.6577446398582
20	32605	307.139560955639	3.2496966214099
20	32994	310.389257577049	2.9099834482296
20	33376	313.299241025279	5.4310805592702
20	34000	318.730321584549	2.7537555972437
20	34233	321.484077181793	0.17667982927446
20	34250	321.660757011067	0.46424364159053
20	34289	322.125000652658	2.5940039150682
20	34551	324.719004567726	3.6784605639293
20	34949	328.397465131655	2.3324104781631
20	35154	330.729875609818	0.21033330415836
20	35190	330.940208913976	0.96042463761056
20	35267	331.900633551587	0.79186830794361
20	35382	332.692501859531	1.6476243426355
20	35521	334.340126202167	0.33572230469695
20	35559	334.675848506864	0.31199828522072
20	35584	334.987846792085	2.1435820179309
20	35823	337.131428810016	1.6179590504143
20	36010	338.74938786043	0.86362737702002
20	36081	339.61301523745	4.2647231637396
20	36462	343.87773840119	2.3300977667058
20	36749	346.207836167896	1.3681740881394
20	36888	347.576010256035	0.17592774621865
20	36919	347.751938002254	0.98105134519549
20	37029	348.732989347449	1.2777521877105
20	37141	350.010741535159	5.2046456507767
20	37658	355.215387185936	0.22924612187421
20	37680	355.44463330781	4.3029749142411
20	38182	359.747608222051	1.5177159618461
20	38285	361.265324183897	5.4974990169437
20	38840	366.762823200841	2.5007183920585
20	39121	369.263541592899	1.612657326277
20	39346	370.876198919176	1.2061094714203
20	39487	372.082308390596	0.023664297014824
20	39490	372.105972687611	0.33687777878428
20	39539	372.442850466395	2.4698381299955
20	39817	374.912688596391	0.51236966798826
20	39912	375.425058264379	0.10236379951233
20	39925	375.527422063891	5.3768734381868
20	40534	380.904295502078	3.8462453664769
20	40961	384.750540868555	2.6423073715218
20	41190	387.392848240077	3.0168077965816
20	41495	390.409656036659	0.81111090165586
20	41606	391.220766938315	0.11351522517441
20	41620	391.334282163489	2.6979113388922
20	41915	394.032193502381	0.063949294146991
20	41927	394.096142796528	2.1461532609018
20	42201	396.24229605743	6.9567382970725
21	1532	14.176221431605	0.79527017929734
21	1588	14.971491610902	0.99561914071259
21	1706	15.967110751615	0.083309771466493
21	1712	16.050420523081	1.007760997988
21	1804	17.058181521069	0.35994344004909
21	1857	17.418124961118	1.1830222627958
21	1955	18.601147223914	0.38175678486008
21	1987	18.982904008774	1.6988938897181
21	2185	20.681797898492	2.3888324901704
21	2443	23.070630388662	1.2114529605581
21	2566	24.28208334922	2.1310325884068
21	2784	26.413115937627	1.3509142023319
21	2979	27.764030139959	3.0065527104984
21	3286	30.770582850457	2.3714433543517
21	3486	33.142026204809	0.39242617513942
21	3536	33.534452379948	0.6213466852659
21	3588	34.155799065214	3.5000052817317
21	3970	37.655804346946	1.7683824424918
21	4105	39.424186789438	3.9762791854108
21	4580	43.400465974849	3.4019653163471
21	5006	46.802431291196	1.2426359855777
21	5097	48.045067276774	0.83121889082494
21	5189	48.876286167599	3.9890056961041
21	5645	52.865291863703	1.7551275605205
21	5883	54.620419424224	0.9401439895148
21	5972	55.560563413739	0.38099620060594
21	5994	55.941559614345	0.53758695571471
21	6048	56.47914657006	0.69340011648284
21	6124	57.172546686543	3.1626775415502
21	6498	60.335224228093	1.3276293939501
21	6634	61.662853622043	1.9131626192023
21	6833	63.576016241245	2.0969615710096
21	7019	65.672977812255	0.2742812398358
21	7058	65.947259052091	3.3365998763702
21	7462	69.283858928461	1.7074221450053
21	7690	70.991281073466	0.35514044393506
21	7744	71.346421517401	4.1803969026399
21	8173	75.526818420041	6.4379740833564
21	8815	81.964792503397	4.136910570731
21	9272	86.101703074128	3.040327276479
21	9598	89.142030350607	1.4351691579841
21	9756	90.577199508591	1.8441586882495
21	9929	92.42135819684	0.83485010884704
21	9983	93.256208305687	0.34738094654441
21	10031	93.603589252231	3.2192116628381
21	10358	96.822800915069	0.29773461290465
21	10406	97.120535527974	2.7026718725072
21	10676	99.823207400481	3.379553705851
21	11020	103.202761106332	0.96000159096393
21	11085	104.162762697296	2.5307775612075
21	11373	106.693540258504	0.057245310622421
21	11374	106.750785569126	0.63278933125126
21	11436	107.383574900377	3.8926852404773
21	11884	111.276260140854	0.66754395141496
21	11957	111.943804092269	3.450605031514
21	12372	115.394409123783	18.123099050089
21	14317	133.517508173872	0.51635622680083
21	14364	134.033864400673	0.11484179293237
21	14370	134.148706193605	3.9925095498833
21	14802	138.141215743488	0.13480560011205
21	14816	138.2760213436	2.6250098456192
21	15063	140.901031189219	1.4361078215042
21	15194	142.337139010723	0.64199885466733
21	15246	142.97913786539	5.2750593010915
21	15801	148.254197166481	0.13179527445662
21	15807	148.385992440938	1.0852389174329
21	15893	149.471231358371	5.0322766960532
21	16464	154.503508054424	1.2042184549898
21	16577	155.707726509414	1.5564776629497
21	16739	157.264204172364	0.24080551181468
21	16766	157.505009684179	0.012372703767684
21	16767	157.517382387947	0.21645696396176
21	16779	157.733839351909	1.4841208185609
21	16937	159.21796017047	0.90023232865243
21	17013	160.118192499122	1.8685681746539
21	17174	161.986760673776	0.54743950391191
21	17225	162.534200177688	2.8043006886463
21	17471	165.338500866334	0.090912833519403
21	17491	165.429413699853	2.3175765124
21	17711	167.746990212253	5.8572275656471
21	18388	173.6042177779	2.5740478733696
21	18678	176.17826565127	1.9442582864031
21	18894	178.122523937673	1.3351513700507
21	19030	179.457675307724	3.5356201404268
21	19427	182.993295448151	0.19623489482087
21	19460	183.189530342972	6.8122776074917
21	20236	190.001807950464	5.2370395955644
21	20721	195.238847546028	0.90541246108788
21	20808	196.144260007116	0.17811742049079
21	20820	196.322377427607	4.335253523101
21	21286	200.657630950708	11.425641735178
21	22477	212.083272685886	3.9809440268064
21	22848	216.064216712692	0.13362719116622
21	22874	216.197843903858	3.1830218271303
21	23229	219.380865730988	3.580008993205
21	23570	222.960874724193	0.91517450959857
21	23655	223.876049233792	4.3299351505824
21	24078	228.205984384374	0.57833458525311
21	24137	228.784318969627	1.1308192489118
21	24283	229.915138218539	4.5330047306681
21	24777	234.448142949207	3.8210034479021
21	25133	238.269146397109	8.6756173966669
21	25964	246.944763793776	7.8253746326116
21	26853	254.770138426388	2.1503172543484
21	27069	256.920455680736	0.5815670092334
21	27139	257.502022689969	0.27881239898478
21	27153	257.780835088954	1.6852679621777
21	27358	259.466103051132	2.974818792291
21	27718	262.440921843423	1.1906863816721
21	27815	263.631608225095	0.34239986438758
21	27867	263.974008089483	0.39694166900939
21	27908	264.370949758492	0.95261862243467
21	27997	265.323568380927	2.197023457163
21	28197	267.52059183809	1.747692248559
21	28376	269.268284086649	2.6984402068709
21	28692	271.96672429352	5.5945495248304
21	29299	277.56127381835	0.4078058424737
21	29330	277.969079660824	4.0813835945346
21	29752	282.050463255359	1.2676521199865
21	29894	283.318115375345	0.12006925882343
21	29895	283.438184634168	3.8255684284503
21	30261	287.263753062618	7.725830980823
21	31230	294.989584043441	0.23941942283682
21	31251	295.229003466278	2.421764516674
21	31532	297.650767982952	1.6567122807119
21	31736	299.307480263664	1.6747798622247
21	31899	300.982260125889	0.71458537556802
21	31970	301.696845501457	0.072356100913285
21	31971	301.76920160237	6.9679661990841
21	32818	308.737167801454	2.9177934334794
21	33163	311.654961234933	0.42401058329971
21	33211	312.078971818233	1.2836699795852
21	33380	313.362641797818	0.33868118474589
21	33426	313.701322982564	0.26594367741131
21	33443	313.967266659975	0.10363199861141
21	33451	314.070898658586	0.96482715035742
21	33548	315.035725808943	0.70453193399772
21	33649	315.740257742941	0.82982358197092
21	33750	316.570081324912	3.0940370126113
21	34075	319.664118337523	0.29112186519566
21	34106	319.955240202719	0.091995592710422
21	34118	320.047235795429	0.14972795739631
21	34120	320.196963752825	0.30195328334911
21	34159	320.498917036174	6.8883711587683
21	34836	327.387288194942	0.3497168766047
21	34877	327.737005071547	0.18778530703274
21	34900	327.92479037858	4.7988438878903
21	35394	332.72363426647	4.6398759389564
21	35857	337.363510205426	0.16380428654026
21	35864	337.527314491966	0.70087861219152
21	35944	338.228193104158	1.8733723904627
21	36123	340.101565494621	1.4898177843111
21	36257	341.591383278932	1.2094809007309
21	36367	342.800864179663	1.3149686715684
21	36490	344.115832851231	1.7761242407065
21	36695	345.891957091937	0.63321832171455
21	36771	346.525175413652	4.4725445099211
21	37252	350.997719923573	0.40633559295275
21	37310	351.404055516526	3.1604721997293
21	37611	354.564527716255	1.6043601458485
21	37752	356.168887862103	0.58938651366151
21	37837	356.758274375765	0.50746163792087
21	37885	357.265736013686	2.773163926439
21	38213	360.038899940125	2.978829382586
21	38479	363.017729322711	1.2007143821019
21	38578	364.218443704813	2.632229335004
21	38851	366.850673039817	2.2297914496834
21	39097	369.0804644895	2.7054891466484
21	39447	371.785953636148	2.5950923898517
21	39760	374.381046026	0.36434108799388
21	39786	374.745387113994	1.2131498646068
21	39989	375.958536978601	4.7431188408479
21	40513	380.701655819449	0.61781393246687
21	40592	381.319469751916	0.90208961641591
21	40681	382.221559368332	5.0278729436378
21	41188	387.24943231197	1.158336368139
21	41292	388.407768680109	2.7604264835046
21	41596	391.168195163614	2.80931446157
21	41906	393.977509625184	1.4059253133804
21	42100	395.383434938564	1.908290826096
21	42290	397.29172576466	1.8780201413091
21	42496	399.169745905969	1.2838083612048

