file 10602337 1613068461                                        
version 2
run Nonmonitoring-exponential-0-20210211-19:34:13-11004
attr configname Nonmonitoring-exponential
attr datetime 20210211-19:34:13
attr experiment Nonmonitoring-exponential
attr inifile aerocom.ini
attr iterationvars ""
attr iterationvarsf ""
attr measurement ""
attr network Aerocom
attr processid 11004
attr repetition 0
attr replication #0
attr resultdir results
attr runnumber 0
attr seedset 0
param **.t 1s
param **.k 8ms
param **.nA 1
param **.nDL 2
param **.s "70 byte"
param **.X 0s
param **.dimPoolMax 10000
param **.dimPoolMin 8000
param **.tDistribution "\"exponential\""
param **.m 1s
param **.DLMaxCapacity 0
param **.trasmitting false
param **.operationMode 1

vector 0 Aerocom.aircraft[0].linkSelector waitingTime:vector ETV
attr "" ""
attr source computeWaitingTime
vector 1 Aerocom.aircraft[0].linkSelector queueLength:vector ETV
attr "" ""
attr source computeQueueLength
vector 2 Aerocom.aircraft[0].dataLink[0] actualCapacity:vector ETV
attr "" ""
attr source computeActualCapacity
vector 3 Aerocom.aircraft[0].linkSelector serviceTime:vector ETV
attr "" ""
attr source computeServiceTime
vector 4 Aerocom.aircraft[0].dataLink[0] throughput:vector ETV
attr "" ""
attr source computeThroughput
vector 5 Aerocom.aircraft[0].packetGenerator arrivalTime:vector ETV
attr "" ""
attr source computeArrivalTime
vector 6 Aerocom.aircraft[0].dataLink[0] tDistribution:vector ETV
attr "" ""
attr source computeTDistribution
vector 7 Aerocom.aircraft[0].dataLink[1] tDistribution:vector ETV
attr "" ""
attr source computeTDistribution
5	1605 1338347 6206 170250 10.04046951262 269.446705818688 32768 3.2088e-008 0.085778599837 259.40696378874 4.1112583641301
0	1339952 1332455 6191 170778 10.007255831692 270.251207828708 32768 0 1.238453895724 14120.157335981 9627.7361659887
1	2672407 948376 6191 170778 10.007255831692 270.251207828708 32768 0 152 1782637 153896729
2	3620783 1014311 6191 170778 10.007255831692 270.251207828708 32768 8001 9961 293829874 2642433027304
3	4635094 1468812 6191 170778 10.007255831692 270.251207828708 32768 0.0070274068868587 0.0087489063867017 256.54979496547 2.0144984992967
4	6103906 916010 6192 170779 10.007255831692 270.251207828708 32768 1 1 32768 32768
0	7019916 669549 170783 251753 270.258947766788 399.998037945787 16181 0 0.965302447569 3567.8853836252 1450.3716382777
1	7689465 478204 170783 251753 270.258947766788 399.998037945787 16181 0 128 443472 22748532
2	8167669 515891 170783 251753 270.258947766788 399.998037945787 16181 8038 9979 146195160 1324172138702
3	8683560 740394 170783 251753 270.258947766788 399.998037945787 16181 0.0070147309349634 0.0087086339885544 125.68214789228 0.97870426446722
4	9423954 467346 170784 251754 270.258947766788 399.998037945787 16181 1 1 16181 16181
5	9891300 676198 170252 251751 269.44743330136 399.997061648231 16185 1.844876e-006 0.08280524076 130.55648189383 2.0971901410051
6	10567498 16329 6405 250361 10.406445964559 397.794134480315 381 0.0025859150943617 7.2888921875472 389.79042450314 784.24722775464
7	10583827 18508 6480 251396 10.550899540525 399.445771932568 431 0.00012359181449871 5.0916301550693 390.70428190774 689.55526860812

