file 8645816 1614185331                                         
version 2
run Nonmonitoring-exponential-149-20210224-17:48:50-26741
attr configname Nonmonitoring-exponential
attr datetime 20210224-17:48:50
attr experiment Nonmonitoring-exponential
attr inifile aerocom.ini
attr iterationvars $0=10
attr iterationvarsf 10-
attr measurement $0=10
attr network Aerocom
attr processid 26741
attr repetition 49
attr replication #49
attr resultdir results
attr runnumber 149
attr seedset 49
param **.t 2s
param **.k 10ms
param **.X 0.05s
param **.m 1s
param **.tDistribution "\"exponential\""
param **.operationMode 1
param **.s "70 byte"
param **.dimPoolMax 10000
param **.dimPoolMin 8000
param **.nDL 16
param **.nA 1
param **.DLMaxCapacity 0
param **.trasmitting false

vector 0 Aerocom.aircraft[0].packetGenerator arrivalTime:vector ETV
attr "" ""
attr source computeArrivalTime
vector 1 Aerocom.aircraft[0].linkSelector waitingTime:vector ETV
attr "" ""
attr source computeWaitingTime
vector 2 Aerocom.aircraft[0].linkSelector queueLength:vector ETV
attr "" ""
attr source computeQueueLength
vector 3 Aerocom.aircraft[0].dataLink[5] actualCapacity:vector ETV
attr "" ""
attr source computeActualCapacity
vector 4 Aerocom.aircraft[0].linkSelector serviceTime:vector ETV
attr "" ""
attr source computeServiceTime
vector 5 Aerocom.aircraft[0].linkSelector responseTime:vector ETV
attr "" ""
attr source computeResponseTime
vector 6 Aerocom.aircraft[0].dataLink[5] tDistribution:vector ETV
attr "" ""
attr source computeTDistribution
vector 7 Aerocom.aircraft[0].dataLink[1] tDistribution:vector ETV
attr "" ""
attr source computeTDistribution
vector 8 Aerocom.aircraft[0].dataLink[3] tDistribution:vector ETV
attr "" ""
attr source computeTDistribution
vector 9 Aerocom.aircraft[0].dataLink[4] tDistribution:vector ETV
attr "" ""
attr source computeTDistribution
vector 10 Aerocom.aircraft[0].dataLink[9] tDistribution:vector ETV
attr "" ""
attr source computeTDistribution
vector 11 Aerocom.aircraft[0].dataLink[13] tDistribution:vector ETV
attr "" ""
attr source computeTDistribution
vector 12 Aerocom.aircraft[0].dataLink[14] tDistribution:vector ETV
attr "" ""
attr source computeTDistribution
vector 13 Aerocom.aircraft[0].dataLink[2] tDistribution:vector ETV
attr "" ""
attr source computeTDistribution
vector 14 Aerocom.aircraft[0].dataLink[10] tDistribution:vector ETV
attr "" ""
attr source computeTDistribution
vector 15 Aerocom.aircraft[0].dataLink[12] tDistribution:vector ETV
attr "" ""
attr source computeTDistribution
vector 16 Aerocom.aircraft[0].dataLink[6] tDistribution:vector ETV
attr "" ""
attr source computeTDistribution
vector 17 Aerocom.aircraft[0].dataLink[15] tDistribution:vector ETV
attr "" ""
attr source computeTDistribution
vector 18 Aerocom.aircraft[0].dataLink[11] tDistribution:vector ETV
attr "" ""
attr source computeTDistribution
vector 19 Aerocom.aircraft[0].dataLink[8] tDistribution:vector ETV
attr "" ""
attr source computeTDistribution
vector 20 Aerocom.aircraft[0].dataLink[0] tDistribution:vector ETV
attr "" ""
attr source computeTDistribution
vector 21 Aerocom.aircraft[0].dataLink[7] tDistribution:vector ETV
attr "" ""
attr source computeTDistribution
0	3133 1307006 5066 171475 10.010465813081 339.903746706757 32768 1.42684e-07 0.103801197406 329.89597940101 6.6274000951677
1	1310139 1213068 5067 171476 10.010465813081 339.903746706757 32768 0 0.174621056256 498.07559126198 20.524377373688
2	2523207 885642 5067 171476 10.010465813081 339.903746706757 32768 0 21 50301 263617
3	3408849 983384 5067 171476 10.010465813081 339.903746706757 32768 8001 9971 295588392 2674270479566
4	4392233 1437773 5067 171476 10.010465813081 339.903746706757 32768 0.0070203590412195 0.0087489063867017 255.03813753553 1.9909729673358
5	5830006 1307419 5068 171479 10.017811809513 339.91113690946 32768 0.007023176482 0.182717285726 753.11372879729 30.408795468999
0	7137425 251711 171477 202806 339.906445214088 399.988857783436 6174 9.4622e-07 0.088530035457 60.104321359081 1.2000520251215
1	7389136 237316 171479 202807 339.91113690946 399.988857783436 6174 0 0.200043012224 140.21218910412 8.840388888598
2	7626452 172510 171479 202807 339.91113690946 399.988857783436 6174 0 23 14990 117838
3	7798962 190676 171479 202807 339.91113690946 399.988857783436 6174 8126 9963 54883514 489023777986
4	7989638 276235 171479 202807 339.91113690946 399.988857783436 6174 0.0070259961858878 0.0086143243908442 48.729261859206 0.38547794258069
5	8265873 251768 171484 202808 339.918527112163 399.996773649092 6174 0.007025996186 0.208420226202 188.94145096334 11.478391318707
6	8517641 8002 5071 202426 10.077839957342 399.186053787584 193 0.0037152463908506 14.952500172272 390.7232034375 1583.1208230292
7	8525643 7072 5127 202734 10.214322630657 399.825520740376 171 0.0043434141549536 16.853166510103 391.11620490631 1959.3053362477
8	8532715 8087 5313 200567 10.525345263743 395.914617506128 195 0.00010514116604997 12.802339865409 390.41507156551 1615.6461332896
9	8540802 7919 5403 202763 10.73449736636 399.897128171397 191 0.0011906055201809 11.601275875568 389.40025893351 1606.7968135264
10	8548721 7567 5512 202562 10.940556512684 399.459773684656 178 0.0046530116928796 10.386369177831 390.56266085995 1595.5775023305
11	8556288 7351 5714 200983 11.299167130266 396.683232791092 173 0.005056268069943 10.062040249682 394.33977403327 1703.7245013825
12	8563639 8742 5720 202588 11.324053763765 399.504093271701 206 0.017976577457119 11.71356098306 389.09718191174 1411.3017799833
13	8572381 8208 5881 202361 11.638056156375 399.073874058597 193 0.013953749983986 14.607439118681 388.99739890501 1637.8907905879
14	8580589 8537 5902 198327 11.668712787099 391.581046756214 201 0.0011421452334698 12.252263458825 392.16459742794 1694.9320361772
15	8589126 7704 6113 202004 11.996839272778 398.465073936299 181 0.002895961210382 11.740562865161 388.44691397095 1684.3502711717
16	8596830 7297 6641 202516 12.951082640816 399.329045649518 172 0.026273019280759 11.112089737359 387.11477387881 1666.5054073058
17	8604127 8746 6659 199527 12.982402143926 393.784715460187 206 0.0061716647341046 10.14472555329 390.94703886955 1455.2778973862
18	8612873 7535 7331 201434 14.168547636979 397.477769560753 177 0.00056125740698588 10.981396365546 387.15380660791 1749.1371108541
19	8620408 9175 8083 202528 15.681697870444 399.348384769865 216 0.010095616673144 10.1708570831 386.54731575222 1335.8902019171
20	8629583 7781 9106 200539 17.668495665867 395.883481409819 183 0.0078883041155311 16.017752075752 383.39445078768 1650.0989089954
21	8637364 8451 9282 202749 18.085468199564 399.863119867166 199 0.010043388908823 8.0640013940891 384.03872090193 1280.4460410769

