version 2
run Nonmonitoring-exponential-553-20210224-17:49:31-27080
attr configname Nonmonitoring-exponential
attr datetime 20210224-17:49:31
attr experiment Nonmonitoring-exponential
attr inifile aerocom.ini
attr iterationvars $0=50
attr iterationvarsf 50-
attr measurement $0=50
attr network Aerocom
attr processid 27080
attr repetition 53
attr replication #53
attr resultdir results
attr runnumber 553
attr seedset 53
param **.t 2s
param **.k 50ms
param **.X 0.05s
param **.m 1s
param **.tDistribution "\"exponential\""
param **.operationMode 1
param **.s "70 byte"
param **.dimPoolMax 10000
param **.dimPoolMin 8000
param **.nDL 16
param **.nA 1
param **.DLMaxCapacity 0
param **.trasmitting false

vector 0 Aerocom.aircraft[0].packetGenerator arrivalTime:vector ETV
attr "" ""
attr source computeArrivalTime
vector 1 Aerocom.aircraft[0].linkSelector waitingTime:vector ETV
attr "" ""
attr source computeWaitingTime
vector 2 Aerocom.aircraft[0].linkSelector queueLength:vector ETV
attr "" ""
attr source computeQueueLength
vector 3 Aerocom.aircraft[0].dataLink[13] actualCapacity:vector ETV
attr "" ""
attr source computeActualCapacity
vector 4 Aerocom.aircraft[0].linkSelector serviceTime:vector ETV
attr "" ""
attr source computeServiceTime
vector 5 Aerocom.aircraft[0].linkSelector responseTime:vector ETV
attr "" ""
attr source computeResponseTime
vector 6 Aerocom.aircraft[0].dataLink[12] tDistribution:vector ETV
attr "" ""
attr source computeTDistribution
vector 7 Aerocom.aircraft[0].dataLink[15] tDistribution:vector ETV
attr "" ""
attr source computeTDistribution
vector 8 Aerocom.aircraft[0].dataLink[10] tDistribution:vector ETV
attr "" ""
attr source computeTDistribution
vector 9 Aerocom.aircraft[0].dataLink[4] tDistribution:vector ETV
attr "" ""
attr source computeTDistribution
vector 10 Aerocom.aircraft[0].dataLink[11] tDistribution:vector ETV
attr "" ""
attr source computeTDistribution
vector 11 Aerocom.aircraft[0].dataLink[13] tDistribution:vector ETV
attr "" ""
attr source computeTDistribution
vector 12 Aerocom.aircraft[0].dataLink[7] tDistribution:vector ETV
attr "" ""
attr source computeTDistribution
vector 13 Aerocom.aircraft[0].dataLink[1] tDistribution:vector ETV
attr "" ""
attr source computeTDistribution
vector 14 Aerocom.aircraft[0].dataLink[0] tDistribution:vector ETV
attr "" ""
attr source computeTDistribution
vector 15 Aerocom.aircraft[0].dataLink[8] tDistribution:vector ETV
attr "" ""
attr source computeTDistribution
vector 16 Aerocom.aircraft[0].dataLink[2] tDistribution:vector ETV
attr "" ""
attr source computeTDistribution
vector 17 Aerocom.aircraft[0].dataLink[6] tDistribution:vector ETV
attr "" ""
attr source computeTDistribution
vector 18 Aerocom.aircraft[0].dataLink[3] tDistribution:vector ETV
attr "" ""
attr source computeTDistribution
vector 19 Aerocom.aircraft[0].dataLink[5] tDistribution:vector ETV
attr "" ""
attr source computeTDistribution
vector 20 Aerocom.aircraft[0].dataLink[14] tDistribution:vector ETV
attr "" ""
attr source computeTDistribution
vector 21 Aerocom.aircraft[0].dataLink[9] tDistribution:vector ETV
attr "" ""
attr source computeTDistribution
0	1130	10.011800828456	0.111660477067
0	1135	10.123461305523	0.018373059225
0	1140	10.141834364748	0.033134401139
0	1145	10.174968765887	0.017282841648
0	1150	10.192251607535	0.121576335472
0	1156	10.313827943007	0.00011543252
0	1158	10.313943375527	0.054753300034
0	1166	10.368696675561	0.011946587074
0	1171	10.380643262635	0.183889621655
0	1176	10.56453288429	0.04393291809
0	1181	10.60846580238	0.023641300834
0	1186	10.632107103214	0.035107578527
0	1191	10.667214681741	0.208949296161
0	1196	10.876163977902	0.056752684624
0	1201	10.932916662526	0.039906801296
0	1206	10.972823463822	0.0473642503
0	1211	11.020187714122	0.003980288443
0	1213	11.024168002565	0.042083862968
0	1221	11.066251865533	0.189021345669
0	1232	11.255273211202	0.050137798021
0	1237	11.305411009223	0.057399712514
0	1242	11.362810721737	0.021491104058
0	1247	11.384301825795	0.059337932737
0	1252	11.443639758532	0.090661704466
0	1257	11.534301462998	0.110746438769
0	1264	11.645047901767	0.020626257102
0	1269	11.665674158869	0.105321391863
0	1274	11.770995550732	0.0400876161
0	1279	11.811083166832	0.014385045214
0	1284	11.825468212046	0.155382675533
0	1289	11.980850887579	0.072621393973
0	1295	12.053472281552	0.022305439394
0	1300	12.075777720946	0.02332777275
0	1306	12.099105493696	0.026984865212
0	1311	12.126090358908	0.050775633931
0	1316	12.176865992839	0.098815827335
0	1322	12.275681820174	0.061918296338
0	1327	12.337600116512	0.081515548688
0	1333	12.4191156652	0.006434472559
0	1335	12.425550137759	0.102707404092
0	1343	12.528257541851	0.022218988764
0	1348	12.550476530615	0.059196860785
0	1353	12.6096733914	0.055853873586
0	1358	12.665527264986	0.053189262085
0	1364	12.718716527071	0.049102318356
0	1369	12.767818845427	0.05191924749
0	1375	12.819738092917	0.08471519138
0	1381	12.904453284297	0.025256771551
0	1386	12.929710055848	0.033938143637
0	1391	12.963648199485	0.031856724404
0	1397	12.995504923889	0.032797767627
0	1402	13.028302691516	0.167785308232
0	1408	13.196087999748	0.02848364695
0	1413	13.224571646698	0.064792839532
0	1419	13.28936448623	0.022827526545
0	1424	13.312192012775	0.011615531819
0	1429	13.323807544594	0.01647942174
0	1434	13.340286966334	0.185918207819
0	1439	13.526205174153	0.027071182063
0	1444	13.553276356216	0.051888898572
0	1449	13.605165254788	0.250746919465
0	1455	13.855912174253	0.025292524718
0	1461	13.881204698971	0.009063027638
0	1466	13.890267726609	0.016250551031
0	1471	13.90651827764	0.023759481898
0	1476	13.930277759538	0.15871919831
0	1483	14.088996957848	0.055324703854
0	1488	14.144321661702	0.01953063354
0	1493	14.163852295242	0.040795944338
0	1498	14.20464823958	0.055069868636
0	1503	14.259718108216	0.030924607805
0	1508	14.290642716021	0.016192246753
0	1514	14.306834962774	0.047254195441
0	1519	14.354089158215	0.011862928265
0	1524	14.36595208648	0.20270467889
0	1529	14.56865676537	0.1767330196
0	1534	14.74538978497	0.000125284373
0	1536	14.745515069343	0.060096581845
0	1544	14.805611651188	0.024670030484
0	1549	14.830281681672	0.063845903189
0	1554	14.894127584861	0.171448001284
0	1561	15.065575586145	0.018339166093
0	1566	15.083914752238	0.032081187432
0	1571	15.11599593967	0.007633070849
0	1573	15.123629010519	0.076543456337
0	1581	15.200172466856	0.134761315233
0	1588	15.334933782089	0.057878710027
0	1594	15.392812492116	0.034598444013
0	1600	15.427410936129	0.098048414783
0	1606	15.525459350912	0.045459013979
0	1611	15.570918364891	0.025346291499
0	1616	15.59626465639	0.026521982182
0	1622	15.622786638572	0.123242673414
0	1629	15.746029311986	0.051701422859
0	1634	15.797730734845	0.044268346875
0	1639	15.84199908172	0.043254750978
0	1644	15.885253832698	0.062889124477
0	1649	15.948142957175	0.083238131182
0	1654	16.031381088357	0.050419831601
0	1659	16.081800919958	0.099656761953
0	1664	16.181457681911	0.071301595133
0	1669	16.252759277044	0.082461034174
0	1675	16.335220311218	0.025727758659
0	1680	16.360948069877	0.043099917974
0	1685	16.404047987851	0.017732893317
0	1690	16.421780881168	0.062988758662
0	1695	16.48476963983	0.042260851053
0	1700	16.527030490883	0.021512836478
0	1705	16.548543327361	0.005344451843
0	1708	16.553887779204	0.040142326581
0	1716	16.594030105785	0.044063150643
0	1722	16.638093256428	0.001919224742
0	1724	16.64001248117	0.029701621684
0	1734	16.669714102854	0.07565805008
0	1740	16.745372152934	0.096778687397
0	1745	16.842150840331	0.01432954261
0	1750	16.856480382941	0.025311491429
0	1755	16.88179187437	0.06669534064
0	1761	16.94848721501	0.122280064148
0	1767	17.070767279158	0.014196778846
0	1774	17.084964058004	0.011529650398
0	1779	17.096493708402	0.034422120437
0	1786	17.130915828839	0.009187163808
0	1791	17.140102992647	0.035759120011
0	1796	17.175862112658	0.001523291116
0	1798	17.177385403774	0.093628788078
0	1807	17.271014191852	0.06017999752
0	1812	17.331194189372	0.008635767996
0	1817	17.339829957368	0.08440209418
0	1823	17.424232051548	0.005129965949
0	1825	17.429362017497	0.044266567419
0	1833	17.473628584916	0.027130081898
0	1839	17.500758666814	0.01591627127
0	1844	17.516674938084	0.09504230514
0	1849	17.611717243224	0.020636890424
0	1854	17.632354133648	0.043534329643
0	1859	17.675888463291	0.10220509908
0	1864	17.778093562371	0.083778433882
0	1869	17.861871996253	0.020510291656
0	1874	17.882382287909	0.023992856074
0	1879	17.906375143983	0.025248923511
0	1884	17.931624067494	0.008792035133
0	1889	17.940416102627	0.011914834703
0	1894	17.95233093733	0.064249888619
0	1899	18.016580825949	0.012955171232
0	1904	18.029535997181	0.044797938699
0	1909	18.07433393588	0.025635357928
0	1914	18.099969293808	0.001967930334
0	1916	18.101937224142	0.018035602491
0	1924	18.119972826633	0.000300030465
0	1926	18.120272857098	0.067040876653
0	1935	18.187313733751	0.003038670375
0	1937	18.190352404126	0.050891155391
0	1945	18.241243559517	0.135594021651
0	1953	18.376837581168	0.076923341748
0	1959	18.453760922916	0.015656988174
0	1964	18.46941791109	0.047020431305
0	1969	18.516438342395	0.243036996659
0	1975	18.759475339054	0.028963518416
0	1981	18.78843885747	0.118804310402
0	1986	18.907243167872	0.041399534929
0	1991	18.948642702801	0.033444267468
0	1996	18.982086970269	0.071324242291
0	2001	19.05341121256	0.051633523476
0	2006	19.105044736036	0.004189181546
0	2008	19.109233917582	0.001791591842
0	2010	19.111025509424	0.034536132539
0	2021	19.145561641963	0.304184958109
0	2029	19.449746600072	0.050275892321
0	2034	19.500022492393	0.092049141484
0	2041	19.592071633877	0.111070988458
0	2046	19.703142622335	0.186447015763
0	2051	19.889589638098	0.06551968087
0	2056	19.955109318968	0.005657513047
0	2058	19.960766832015	0.056239675623
0	2068	20.017006507638	0.040183465347
0	2074	20.057189972985	0.041083559664
0	2079	20.098273532649	0.003480864046
0	2081	20.101754396695	0.051405768944
0	2089	20.153160165639	0.064885727301
0	2095	20.21804589294	0.013741998467
0	2100	20.231787891407	0.044948621745
0	2105	20.276736513152	0.033569988819
0	2110	20.310306501971	0.022336461857
0	2115	20.332642963828	0.029222045256
0	2121	20.361865009084	0.147171214088
0	2128	20.509036223172	0.061435509201
0	2134	20.570471732373	0.064686694989
0	2139	20.635158427362	0.015013123158
0	2144	20.65017155052	0.034806698144
0	2150	20.684978248664	0.076649278316
0	2155	20.76162752698	0.010659525102
0	2160	20.772287052082	0.024029884712
0	2165	20.796316936794	0.010209209081
0	2170	20.806526145875	0.001257159578
0	2172	20.807783305453	0.001256028279
0	2174	20.809039333732	0.000630825249
0	2176	20.809670158981	0.186817031149
0	2193	20.99648719013	0.041781580162
0	2198	21.038268770292	0.093191112721
0	2203	21.131459883013	0.016477662349
0	2208	21.147937545362	0.009189272495
0	2213	21.157126817857	0.019315768808
0	2218	21.176442586665	0.039120906353
0	2223	21.215563493018	0.110242436257
0	2229	21.325805929275	0.040852736635
0	2234	21.36665866591	0.003238195038
0	2236	21.369896860948	0.25840598899
0	2248	21.628302849938	0.094939441014
0	2255	21.723242290952	0.022513078215
0	2260	21.745755369167	0.092524056159
0	2265	21.838279425326	0.013471543676
0	2270	21.851750969002	0.014346042666
0	2275	21.866097011668	0.062572321077
0	2280	21.928669332745	0.030572030413
0	2285	21.959241363158	0.130820243749
0	2291	22.090061606907	0.024165679542
0	2296	22.114227286449	0.021564059721
0	2301	22.13579134617	0.038649325332
0	2306	22.174440671502	0.058094728427
0	2311	22.232535399929	0.074182683689
0	2316	22.306718083618	0.03867896024
0	2321	22.345397043858	0.098931962646
0	2326	22.444329006504	0.014486939771
0	2331	22.458815946275	0.009378026292
0	2336	22.468193972567	0.188733223571
0	2343	22.656927196138	0.005020035391
0	2345	22.661947231529	0.013770333917
0	2353	22.675717565446	0.082156656032
0	2358	22.757874221478	0.042008385057
0	2364	22.799882606535	0.063251762499
0	2370	22.863134369034	0.018060119013
0	2375	22.881194488047	0.060877432186
0	2380	22.942071920233	0.025056102664
0	2385	22.967128022897	0.006644506615
0	2387	22.973772529512	0.009509260168
0	2395	22.98328178968	0.078730050098
0	2402	23.062011839778	0.010970714899
0	2407	23.072982554677	0.000178555772
0	2409	23.073161110449	0.026038856313
0	2417	23.099199966762	0.005173396626
0	2419	23.104373363388	0.047611228797
0	2428	23.151984592185	0.099286405607
0	2433	23.251270997792	0.034794826709
0	2438	23.286065824501	0.077270688365
0	2443	23.363336512866	0.015622107021
0	2448	23.378958619887	0.023261172941
0	2453	23.402219792828	0.095463093256
0	2458	23.497682886084	0.130378032526
0	2465	23.62806091861	0.127096820063
0	2471	23.755157738673	0.050788584046
0	2476	23.805946322719	0.036759845698
0	2481	23.842706168417	0.060971300942
0	2487	23.903677469359	0.029726722676
0	2493	23.933404192035	0.060337928659
0	2500	23.993742120694	0.028591059981
0	2505	24.022333180675	0.00837100438
0	2510	24.030704185055	0.018158978574
0	2515	24.048863163629	0.005283235926
0	2517	24.054146399555	0.076711362139
0	2525	24.130857761694	0.048138451401
0	2530	24.178996213095	0.043246815757
0	2536	24.222243028852	0.138781315296
0	2543	24.361024344148	0.094608370697
0	2548	24.455632714845	0.028433876441
0	2553	24.484066591286	0.114828713135
0	2558	24.598895304421	0.017557695371
0	2563	24.616452999792	0.004994949118
0	2565	24.62144794891	0.025999971535
0	2574	24.647447920445	0.021826510103
0	2579	24.669274430548	0.037272686262
0	2584	24.70654711681	0.034339194874
0	2590	24.740886311684	0.042540320028
0	2595	24.783426631712	0.020312247846
0	2600	24.803738879558	0.015808359169
0	2605	24.819547238727	0.02178375346
0	2610	24.841330992187	0.009727285468
0	2615	24.851058277655	0.033221620195
0	2620	24.88427989785	0.099572828891
0	2625	24.983852726741	0.127057647168
0	2633	25.110910373909	0.012832106025
0	2638	25.123742479934	0.000903236873
0	2640	25.124645716807	0.049309443911
0	2649	25.173955160718	0.01478519174
0	2654	25.188740352458	0.008178917111
0	2659	25.196919269569	0.138182533064
0	2664	25.335101802633	0.015926321468
0	2669	25.351028124101	0.006536544189
0	2671	25.35756466829	0.032403804275
0	2679	25.389968472565	0.082688292628
0	2685	25.472656765193	0.105264299438
0	2690	25.577921064631	0.006317703136
0	2692	25.584238767767	0.002090770275
0	2697	25.586329538042	0.002951452593
0	2699	25.589280990635	0.224966123096
0	2712	25.814247113731	0.02669049173
0	2717	25.840937605461	0.030320883715
0	2723	25.871258489176	0.073017863229
0	2728	25.944276352405	0.008015880888
0	2733	25.952292233293	0.025438485344
0	2738	25.977730718637	0.007534158642
0	2740	25.985264877279	0.031008385388
0	2748	26.016273262667	0.060310739622
0	2753	26.076584002289	0.104040620771
0	2758	26.18062462306	0.057717410692
0	2764	26.238342033752	0.024955364434
0	2769	26.263297398186	0.014228208041
0	2774	26.277525606227	0.03557976593
0	2779	26.313105372157	0.119708870321
0	2785	26.432814242478	0.010700784413
0	2790	26.443515026891	0.037434036268
0	2796	26.480949063159	0.052999754535
0	2804	26.533948817694	0.003512578884
0	2806	26.537461396578	0.044653570131
0	2815	26.582114966709	0.123137561716
0	2820	26.705252528425	0.00582526793
0	2822	26.711077796355	0.077568330611
0	2831	26.788646126966	0.12625722773
0	2838	26.914903354696	0.008823918426
0	2843	26.923727273122	0.188594812584
0	2848	27.112322085706	0.112009417767
0	2855	27.224331503473	0.087720926101
0	2860	27.312052429574	0.167559547703
0	2865	27.479611977277	0.009197881722
0	2870	27.488809858999	0.000597049489
0	2872	27.489406908488	0.136536689002
0	2880	27.62594359749	0.031791668874
0	2886	27.657735266364	0.044750821824
0	2891	27.702486088188	0.09461585129
0	2897	27.797101939478	0.018719541718
0	2903	27.815821481196	0.006707697161
0	2905	27.822529178357	0.008272026492
0	2910	27.830801204849	0.01420937685
0	2918	27.845010581699	0.004690449533
0	2920	27.849701031232	0.002691911546
0	2922	27.852392942778	0.053445052026
0	2934	27.905837994804	0.074126072122
0	2940	27.979964066926	0.022698344204
0	2945	28.00266241113	0.057643536311
0	2950	28.060305947441	0.027187611421
0	2955	28.087493558862	0.109611295439
0	2962	28.197104854301	0.021873566101
0	2967	28.218978420402	0.087335295106
0	2973	28.306313715508	0.028864473981
0	2979	28.335178189489	0.011864704899
0	2984	28.347042894388	0.007990809085
0	2989	28.355033703473	0.01300571972
0	2995	28.368039423193	0.009860381664
0	3000	28.377899804857	0.016257885248
0	3005	28.394157690105	0.007364362725
0	3007	28.40152205283	0.013946553475
0	3015	28.415468606305	0.006892948461
0	3017	28.422361554766	0.012562658852
0	3025	28.434924213618	0.013357167148
0	3030	28.448281380766	0.074378198083
0	3035	28.522659578849	0.014772369979
0	3040	28.537431948828	0.001521262421
0	3042	28.538953211249	0.028149006492
0	3050	28.567102217741	0.062461269207
0	3057	28.629563486948	0.022498140068
0	3062	28.652061627016	0.095424162671
0	3067	28.747485789687	0.011805712416
0	3072	28.759291502103	0.061471780695
0	3077	28.820763282798	0.017883369533
0	3082	28.838646652331	0.148204074081
0	3089	28.986850726412	0.022872263073
0	3094	29.009722989485	0.049133083943
0	3099	29.058856073428	0.116917556476
0	3104	29.175773629904	0.124584071533
0	3109	29.300357701437	0.008261866736
0	3114	29.308619568173	0.015446746078
0	3120	29.324066314251	0.007967342569
0	3125	29.33203365682	0.001596223071
0	3127	29.333629879891	0.036944875097
0	3136	29.370574754988	0.038606275538
0	3141	29.409181030526	0.102131733831
0	3146	29.511312764357	0.005193778113
0	3148	29.51650654247	0.086286815725
0	3157	29.602793358195	0.138929414648
0	3162	29.741722772843	0.060006287056
0	3167	29.801729059899	0.029495272167
0	3172	29.831224332066	0.088304850586
0	3177	29.919529182652	0.095070129702
0	3183	30.014599312354	0.005422630016
0	3185	30.02002194237	0.005846262756
0	3191	30.025868205126	0.00742946008
0	3196	30.033297665206	0.091301567369
0	3204	30.124599232575	0.084780987318
0	3213	30.209380219893	0.001180098009
0	3215	30.210560317902	0.011687861885
0	3220	30.222248179787	0.001368178447
0	3222	30.223616358234	0.100714454147
0	3234	30.324330812381	0.024514204791
0	3239	30.348845017172	0.117149117143
0	3246	30.465994134315	0.052573523372
0	3251	30.518567657687	0.112145336328
0	3257	30.630712994015	0.028641365548
0	3262	30.659354359563	0.035044707568
0	3267	30.694399067131	0.024386622279
0	3272	30.71878568941	0.086506439143
0	3277	30.805292128553	0.030926200179
0	3282	30.836218328732	0.040422766668
0	3287	30.8766410954	0.007975722056
0	3292	30.884616817456	0.055519547601
0	3297	30.940136365057	0.026585459191
0	3302	30.966721824248	0.00966500012
0	3307	30.976386824368	0.023525357332
0	3312	30.9999121817	0.166708914277
0	3320	31.166621095977	0.029321589075
0	3325	31.195942685052	0.053760430619
0	3330	31.249703115671	0.054863927357
0	3335	31.304567043028	0.064811435398
0	3341	31.369378478426	0.076897173832
0	3347	31.446275652258	0.00969548578
0	3352	31.455971138038	0.094557594309
0	3357	31.550528732347	0.062609890015
0	3364	31.613138622362	0.084477296539
0	3369	31.697615918901	0.043796561701
0	3375	31.741412480602	0.053193237231
0	3380	31.794605717833	0.047093711968
0	3386	31.841699429801	0.164390338074
0	3393	32.006089767875	0.048352208716
0	3398	32.054441976591	0.002650504092
0	3400	32.057092480683	0.017631151769
0	3408	32.074723632452	0.042500628405
0	3413	32.117224260857	0.170519974987
0	3419	32.287744235844	0.043149431329
0	3424	32.330893667173	0.058417317305
0	3429	32.389310984478	0.020599853726
0	3434	32.409910838204	0.074923959526
0	3441	32.48483479773	0.015575094843
0	3447	32.500409892573	0.025864117434
0	3452	32.526274010007	0.011927694317
0	3457	32.538201704324	0.064739340774
0	3462	32.602941045098	0.014732208045
0	3467	32.617673253143	0.014929886462
0	3473	32.632603139605	0.017912693113
0	3479	32.650515832718	0.107177885007
0	3484	32.757693717725	0.076270106486
0	3489	32.833963824211	0.006749340201
0	3491	32.840713164412	0.018256737927
0	3499	32.858969902339	0.046919724369
0	3505	32.905889626708	0.140605839299
0	3513	33.046495466007	0.018599106047
0	3518	33.065094572054	0.038095404154
0	3523	33.103189976208	0.044575558335
0	3528	33.147765534543	0.042333748157
0	3534	33.1900992827	0.043641639913
0	3539	33.233740922613	0.065976078609
0	3544	33.299717001222	0.041621148307
0	3549	33.341338149529	0.02226039308
0	3554	33.363598542609	0.007609088195
0	3556	33.371207630804	0.022415117566
0	3565	33.39362274837	0.004925813692
0	3567	33.398548562062	0.084861595641
0	3576	33.483410157703	0.067082425921
0	3581	33.550492583624	0.004524395084
0	3583	33.555016978708	0.003244293321
0	3588	33.558261272029	0.015897224467
0	3596	33.574158496496	0.135035407741
0	3602	33.709193904237	0.019709533744
0	3607	33.728903437981	0.011415235704
0	3612	33.740318673685	0.005231851691
0	3614	33.745550525376	0.087375959205
0	3622	33.832926484581	0.026953803013
0	3628	33.859880287594	0.005016582674
0	3630	33.864896870268	0.029483285684
0	3638	33.894380155952	0.301342218074
0	3643	34.195722374026	0.064704672234
0	3649	34.26042704626	0.029234242716
0	3654	34.289661288976	0.035246032212
0	3659	34.324907321188	0.068135004575
0	3664	34.393042325763	0.06614240998
0	3669	34.459184735743	0.073118958812
0	3674	34.532303694555	0.002455322972
0	3676	34.534759017527	0.055253302207
0	3685	34.590012319734	0.000456491443
0	3687	34.590468811177	0.153024230971
0	3695	34.743493042148	0.00318073531
0	3697	34.746673777458	0.021458749942
0	3706	34.7681325274	0.021318665633
0	3711	34.789451193033	0.088133244682
0	3716	34.877584437715	0.081018003938
0	3721	34.958602441653	0.00524816311
0	3723	34.963850604763	0.044363397326
0	3731	35.008214002089	0.035164108309
0	3737	35.043378110398	0.014509503232
0	3742	35.05788761363	0.139016490084
0	3750	35.196904103714	0.017185056967
0	3755	35.214089160681	0.072977060535
0	3760	35.287066221216	0.05097773265
0	3765	35.338043953866	0.011687962364
0	3770	35.34973191623	0.094282623605
0	3776	35.444014539835	0.018363702312
0	3781	35.462378242147	0.004129163555
0	3784	35.466507405702	0.052155972104
0	3792	35.518663377806	0.032584720557
0	3797	35.551248098363	0.02664447979
0	3803	35.577892578153	0.066195691811
0	3812	35.644088269964	0.023427178803
0	3817	35.667515448767	0.051801674807
0	3823	35.719317123574	0.070447251199
0	3828	35.789764374773	0.010073594711
0	3833	35.799837969484	0.001368158992
0	3835	35.801206128476	0.040061286738
0	3843	35.841267415214	0.021720901502
0	3848	35.862988316716	0.035676197696
0	3854	35.898664514412	0.001655588988
0	3856	35.9003201034	0.055526499147
0	3865	35.955846602547	0.095979080528
0	3872	36.051825683075	0.16197216913
0	3879	36.213797852205	0.087841797394
0	3885	36.301639649599	0.021325511072
0	3890	36.322965160671	0.003731265812
0	3892	36.326696426483	0.046401943414
0	3900	36.373098369897	0.026287868539
0	3905	36.399386238436	0.065452555216
0	3913	36.464838793652	0.003405580446
0	3915	36.468244374098	0.034117079126
0	3923	36.502361453224	0.122697199907
0	3929	36.625058653131	0.060451421363
0	3935	36.685510074494	0.007481123534
0	3937	36.692991198028	0.011261920517
0	3945	36.704253118545	0.055738321313
0	3951	36.759991439858	0.062184472342
0	3957	36.8221759122	0.108902685395
0	3963	36.931078597595	0.011885363769
0	3968	36.942963961364	0.038705618665
0	3974	36.981669580029	0.075891123066
0	3979	37.057560703095	0.095122313152
0	3984	37.152683016247	0.007213454335
0	3986	37.159896470582	0.080363014662
0	3994	37.240259485244	0.027402521174
0	4000	37.267662006418	0.013092147993
0	4005	37.280754154411	0.291740385187
0	4011	37.572494539598	0.058954222024
0	4016	37.631448761622	0.000797234822
0	4018	37.632245996444	0.038778554499
0	4026	37.671024550943	0.006408960146
0	4028	37.677433511089	0.073963546755
0	4037	37.751397057844	0.073554473103
0	4043	37.824951530947	0.040243498174
0	4048	37.865195029121	0.036716820629
0	4053	37.90191184975	0.086129082504
0	4059	37.988040932254	0.068967892527
0	4064	38.057008824781	0.022704470984
0	4069	38.079713295765	0.136328997787
0	4075	38.216042293552	0.015486055132
0	4080	38.231528348684	0.061778406565
0	4087	38.293306755249	0.064112317977
0	4093	38.357419073226	0.063360817676
0	4098	38.420779890902	0.08187987416
0	4105	38.502659765062	0.05193667547
0	4110	38.554596440532	0.117222033147
0	4116	38.671818473679	0.034421255738
0	4121	38.706239729417	0.177518376317
0	4127	38.883758105734	0.045791968157
0	4133	38.929550073891	0.139187845131
0	4139	39.068737919022	0.074645084679
0	4146	39.143383003701	0.00566973383
0	4148	39.149052737531	0.046701754062
0	4156	39.195754491593	0.08608786265
0	4161	39.281842354243	0.128642603723
0	4167	39.410484957966	0.074449405243
0	4172	39.484934363209	0.077523430517
0	4178	39.562457793726	0.012390040862
0	4183	39.574847834588	0.007568746685
0	4185	39.582416581273	0.092569364065
0	4193	39.674985945338	0.003130455994
0	4195	39.678116401332	0.022617629292
0	4204	39.700734030624	0.019662950506
0	4209	39.72039698113	0.070619772693
0	4214	39.791016753823	0.01178391077
0	4219	39.802800664593	0.024716763844
0	4224	39.827517428437	0.333201302781
0	4229	40.160718731218	0.012676854876
0	4234	40.173395586094	0.14664284791
0	4239	40.320038434004	0.009231861626
0	4244	40.32927029563	0.031596564273
0	4249	40.360866859903	0.001803086468
0	4251	40.362669946371	0.046726233897
0	4260	40.409396180268	0.167438717558
0	4267	40.576834897826	0.038134009314
0	4273	40.61496890714	0.08129293324
0	4278	40.69626184038	0.033393954455
0	4283	40.729655794835	0.113039035588
0	4290	40.842694830423	0.001606560019
0	4292	40.844301390442	0.052702084722
0	4300	40.897003475164	0.003758582778
0	4302	40.900762057942	0.001679125591
0	4304	40.902441183533	0.074974443367
0	4316	40.9774156269	0.08521551237
0	4321	41.06263113927	0.035235079674
0	4326	41.097866218944	0.021196564293
0	4331	41.119062783237	0.185239731075
0	4337	41.304302514312	0.144528196202
0	4343	41.448830710514	0.074319680708
0	4350	41.523150391222	0.046831850045
0	4355	41.569982241267	0.092261837186
0	4362	41.662244078453	0.126350485162
0	4368	41.788594563615	0.003027533142
0	4370	41.791622096757	0.020991559981
0	4378	41.812613656738	0.021705664244
0	4383	41.834319320982	0.043419829609
0	4388	41.877739150591	0.015850243641
0	4393	41.893589394232	0.080503772217
0	4399	41.974093166449	0.056104712494
0	4405	42.030197878943	0.033417470069
0	4411	42.063615349012	0.067248109818
0	4416	42.13086345883	0.072426586052
0	4421	42.203290044882	0.199815352675
0	4426	42.403105397557	0.006326279346
0	4428	42.409431676903	0.097397767958
0	4437	42.506829444861	0.03172471181
0	4443	42.538554156671	0.000558224513
0	4445	42.539112381184	0.027847055455
0	4453	42.566959436639	0.014148921336
0	4458	42.581108357975	0.0219074255
0	4463	42.603015783475	0.025120790867
0	4469	42.628136574342	0.086358649551
0	4474	42.714495223893	0.116342932211
0	4480	42.830838156104	0.009734893692
0	4485	42.840573049796	0.08494038006
0	4490	42.925513429856	0.00391574888
0	4492	42.929429178736	0.029197464417
0	4500	42.958626643153	0.005519262808
0	4502	42.964145905961	0.059225142139
0	4510	43.0233710481	0.054360896346
0	4515	43.077731944446	0.015224369939
0	4522	43.092956314385	0.049130827241
0	4528	43.142087141626	0.108947171525
0	4534	43.251034313151	0.010052348061
0	4539	43.261086661212	0.002608746011
0	4541	43.263695407223	0.015027681912
0	4549	43.278723089135	0.108107562251
0	4554	43.386830651386	0.114590697564
0	4559	43.50142134895	0.00550333644
0	4561	43.50692468539	0.002922822058
0	4566	43.509847507448	0.051743199152
0	4575	43.5615907066	0.084128505068
0	4581	43.645719211668	0.116190836172
0	4591	43.76191004784	0.105759430962
0	4596	43.867669478802	0.011674609274
0	4601	43.879344088076	0.002357245472
0	4603	43.881701333548	0.048618962214
0	4612	43.930320295762	0.061763693367
0	4617	43.992083989129	0.070438794689
0	4622	44.062522783818	0.001161001378
0	4624	44.063683785196	0.182751732616
0	4633	44.246435517812	0.127797219545
0	4639	44.374232737357	0.023142162279
0	4644	44.397374899636	0.018475427975
0	4649	44.415850327611	0.009253915163
0	4654	44.425104242774	0.105754157682
0	4661	44.530858400456	0.073022498177
0	4667	44.603880898633	0.002292479624
0	4669	44.606173378257	0.030876642155
0	4677	44.637050020412	0.010610560297
0	4682	44.647660580709	0.003741418917
0	4684	44.651401999626	0.161154257838
0	4696	44.812556257464	0.074743723557
0	4702	44.887299981021	0.053838176619
0	4708	44.94113815764	0.060844941818
0	4713	45.001983099458	0.179528766535
0	4719	45.181511865993	0.044127737239
0	4724	45.225639603232	0.008090987107
0	4729	45.233730590339	0.136024295644
0	4734	45.369754885983	0.003287600163
0	4736	45.373042486146	0.090086886507
0	4745	45.463129372653	0.011298288938
0	4751	45.474427661591	0.026713447663
0	4756	45.501141109254	0.033433201495
0	4761	45.534574310749	0.014716496717
0	4766	45.549290807466	0.008110092299
0	4771	45.557400899765	0.005869091555
0	4773	45.56326999132	0.017935772319
0	4781	45.581205763639	0.019866237589
0	4786	45.601072001228	0.048778259669
0	4791	45.649850260897	0.005393725503
0	4793	45.6552439864	0.045476190902
0	4801	45.700720177302	0.012859043816
0	4807	45.713579221118	0.007706768017
0	4812	45.721285989135	0.093001590814
0	4818	45.814287579949	0.100980684951
0	4824	45.9152682649	0.084851359075
0	4829	46.000119623975	0.01622253203
0	4836	46.016342156005	0.003963500512
0	4838	46.020305656517	0.055082902616
0	4846	46.075388559133	0.017720222841
0	4851	46.093108781974	0.14223058517
0	4856	46.235339367144	0.248726139496
0	4861	46.48406550664	0.152179102956
0	4868	46.636244609596	0.08764082098
0	4873	46.723885430576	0.00779253851
0	4878	46.731677969086	0.101942889156
0	4884	46.833620858242	0.028583784311
0	4890	46.862204642553	0.000504754134
0	4892	46.862709396687	0.025066728871
0	4900	46.887776125558	0.001939370137
0	4902	46.889715495695	0.016505392502
0	4910	46.906220888197	0.042808704074
0	4916	46.949029592271	0.066230766762
0	4921	47.015260359033	0.007870042999
0	4926	47.023130402032	0.045310161947
0	4931	47.068440563979	0.091747387808
0	4936	47.160187951787	0.006377327372
0	4938	47.166565279159	0.010578735892
0	4946	47.177144015051	0.050921343092
0	4951	47.228065358143	0.076241021707
0	4956	47.30430637985	0.137959630604
0	4961	47.442266010454	0.098982994613
0	4966	47.541249005067	0.009653754473
0	4971	47.55090275954	0.088941320025
0	4976	47.639844079565	0.179361204592
0	4984	47.819205284157	0.026728266505
0	4989	47.845933550662	0.018243229681
0	4994	47.864176780343	0.004904077893
0	4996	47.869080858236	0.032516672175
0	5005	47.901597530411	0.025944519782
0	5011	47.927542050193	0.041054094711
0	5017	47.968596144904	0.002222809398
0	5019	47.970818954302	0.018855377454
0	5027	47.989674331756	0.005991099312
0	5029	47.995665431068	0.048458116202
0	5037	48.04412354727	0.001511391399
0	5039	48.045634938669	0.056321387864
0	5048	48.101956326533	0.01407257711
0	5053	48.116028903643	0.014599669006
0	5058	48.130628572649	0.06272823127
0	5063	48.193356803919	0.108835193449
0	5069	48.302191997368	0.054609322058
0	5074	48.356801319426	0.084389822978
0	5079	48.441191142404	0.083892859149
0	5085	48.525084001553	0.022468789526
0	5091	48.547552791079	0.118326519183
0	5098	48.665879310262	0.020550644478
0	5103	48.68642995474	0.019503517041
0	5108	48.705933471781	0.036298048328
0	5113	48.742231520109	0.149692095319
0	5119	48.891923615428	0.018379013236
0	5124	48.910302628664	0.023848197947
0	5130	48.934150826611	0.035434696264
0	5136	48.969585522875	0.0065433652
0	5138	48.976128888075	0.198130348853
0	5146	49.174259236928	0.011264002713
0	5151	49.185523239641	0.011473212717
0	5156	49.196996452358	0.039644354375
0	5161	49.236640806733	0.03018588568
0	5167	49.266826692413	0.027718219019
0	5172	49.294544911432	0.055495678716
0	5177	49.350040590148	0.022254984155
0	5182	49.372295574303	0.055736398781
0	5189	49.428031973084	0.019247002602
0	5194	49.447278975686	0.116696159116
0	5201	49.563975134802	0.005392190293
0	5203	49.569367325095	0.09628501448
0	5212	49.665652339575	0.103611250343
0	5217	49.769263589918	0.023872614733
0	5222	49.793136204651	0.041512220869
0	5228	49.83464842552	0.083181269528
0	5234	49.917829695048	0.01449365773
0	5239	49.932323352778	0.304413045606
0	5246	50.236736398384	0.039594102732
0	5251	50.276330501116	0.059395671085
0	5256	50.335726172201	0.039922138279
0	5261	50.37564831048	0.019222068102
0	5266	50.394870378582	0.023654671718
0	5271	50.4185250503	0.138178773497
0	5276	50.556703823797	0.008069728531
0	5281	50.564773552328	0.06910761379
0	5287	50.633881166118	0.101032482034
0	5292	50.734913648152	0.108772040673
0	5297	50.843685688825	0.089962147263
0	5303	50.933647836088	0.060336795359
0	5308	50.993984631447	0.065260474755
0	5313	51.059245106202	0.002374145925
0	5315	51.061619252127	0.040401051796
0	5324	51.102020303923	0.086505641863
0	5330	51.188525945786	0.069904271146
0	5335	51.258430216932	0.04183244426
0	5341	51.300262661192	0.020098789041
0	5346	51.320361450233	0.017181799405
0	5351	51.337543249638	0.008773364901
0	5356	51.346316614539	0.158784518942
0	5363	51.505101133481	0.055475746513
0	5368	51.560576879994	0.058935905686
0	5373	51.61951278568	0.119103720726
0	5380	51.738616506406	0.024282450927
0	5385	51.762898957333	0.095029444423
0	5390	51.857928401756	0.027277034743
0	5395	51.885205436499	0.016569446846
0	5400	51.901774883345	0.009755364269
0	5405	51.911530247614	0.062262355387
0	5412	51.973792603001	0.000455772064
0	5414	51.974248375065	0.105675728253
0	5422	52.079924103318	0.021513182982
0	5427	52.1014372863	0.079533649308
0	5432	52.180970935608	0.021699308533
0	5438	52.202670244141	0.085187556621
0	5444	52.287857800762	0.00010353032
0	5446	52.287961331082	0.015867039692
0	5451	52.303828370774	0.049313557086
0	5459	52.35314192786	0.06100596397
0	5464	52.41414789183	0.026396664074
0	5469	52.440544555904	0.001192457942
0	5471	52.441737013846	0.076692540039
0	5481	52.518429553885	0.074161029069
0	5487	52.592590582954	0.009511014498
0	5492	52.602101597452	0.007212728888
0	5494	52.60931432634	0.043101575536
0	5503	52.652415901876	0.044384184385
0	5508	52.696800086261	0.148944317354
0	5513	52.845744403615	0.03766997551
0	5519	52.883414379125	0.156430364748
0	5525	53.039844743873	0.15546090829
0	5531	53.195305652163	0.019719520647
0	5536	53.21502517281	0.019686526816
0	5541	53.234711699626	0.088334224759
0	5546	53.323045924385	0.089732213189
0	5551	53.412778137574	0.121412351353
0	5558	53.534190488927	0.05658310406
0	5563	53.590773592987	0.019279679041
0	5568	53.610053272028	0.114916641405
0	5577	53.724969913433	0.180418843499
0	5583	53.905388756932	0.06467558942
0	5588	53.970064346352	0.036994182051
0	5593	54.007058528403	0.015070372967
0	5598	54.02212890137	0.004425184277
0	5600	54.026554085647	0.068216060777
0	5610	54.094770146424	0.129761899286
0	5618	54.22453204571	0.055936495916
0	5625	54.280468541626	0.038764191086
0	5630	54.319232732712	0.010284547517
0	5635	54.329517280229	0.087524375831
0	5642	54.41704165606	0.008442193438
0	5647	54.425483849498	0.010836016941
0	5652	54.436319866439	0.061422793271
0	5658	54.49774265971	0.006354734305
0	5660	54.504097394015	0.042971641824
0	5669	54.547069035839	0.040066267533
0	5674	54.587135303372	0.0029024326
0	5676	54.590037735972	0.107757133105
0	5686	54.697794869077	0.073330636053
0	5692	54.77112550513	0.015277611853
0	5697	54.786403116983	0.050774730235
0	5703	54.837177847218	0.024293393294
0	5710	54.861471240512	0.006757542294
0	5712	54.868228782806	0.05300296403
0	5720	54.921231746836	0.028639033988
0	5725	54.949870780824	0.014504709454
0	5730	54.964375490278	0.033904711068
0	5736	54.998280201346	0.061442641529
0	5741	55.059722842875	0.100904008819
0	5747	55.160626851694	0.007108582801
0	5749	55.167735434495	0.033398490453
0	5757	55.201133924948	0.173983952032
0	5765	55.37511787698	0.016947595141
0	5770	55.392065472121	0.020946364219
0	5775	55.41301183634	0.000568634993
0	5777	55.413580471333	0.105427522775
0	5785	55.519007994108	0.024794611813
0	5790	55.543802605921	0.022406670092
0	5795	55.566209276013	0.001504121073
0	5797	55.567713397086	0.00614489931
0	5802	55.573858296396	0.069679098323
0	5811	55.643537394719	0.044032013082
0	5816	55.687569407801	0.005527938317
0	5818	55.693097346118	5.2326617e-05
0	5820	55.693149672735	0.003491494763
0	5825	55.696641167498	0.112935549702
0	5837	55.8095767172	0.026585185826
0	5843	55.836161903026	0.079007233139
0	5850	55.915169136165	0.067861297709
0	5856	55.983030433874	0.063271293468
0	5861	56.046301727342	0.0165829739
0	5866	56.062884701242	0.084501484745
0	5871	56.147386185987	0.010398156916
0	5876	56.157784342903	0.015455767301
0	5881	56.173240110204	0.016538105301
0	5886	56.189778215505	0.045956004329
0	5891	56.235734219834	0.072563843873
0	5896	56.308298063707	0.065187215957
0	5901	56.373485279664	0.062081141188
0	5906	56.435566420852	0.014144196343
0	5911	56.449710617195	0.040639702023
0	5916	56.490350319218	0.001773831969
0	5918	56.492124151187	0.033605831797
0	5927	56.525729982984	0.00214042979
0	5929	56.527870412774	0.0022378156
0	5931	56.530108228374	0.002405090403
0	5933	56.532513318777	0.026247171791
0	5948	56.558760490568	0.035330034779
0	5953	56.594090525347	0.003208382629
0	5955	56.597298907976	0.026189679136
0	5963	56.623488587112	0.089434084692
0	5968	56.712922671804	0.080666327102
0	5975	56.793588998906	0.002707866111
0	5977	56.796296865017	0.013980853695
0	5985	56.810277718712	0.028282510779
0	5990	56.838560229491	0.054197001344
0	5996	56.892757230835	0.022325326887
0	6001	56.915082557722	0.000930045647
0	6003	56.916012603369	0.042768785959
0	6011	56.958781389328	0.002726558696
0	6013	56.961507948024	0.079465669883
0	6022	57.040973617907	0.05164168507
0	6028	57.092615302977	0.026655939066
0	6034	57.119271242043	0.017194366042
0	6039	57.136465608085	0.035299142099
0	6044	57.171764750184	0.001828702243
0	6046	57.173593452427	0.007607791222
0	6051	57.181201243649	0.021581077956
0	6060	57.202782321605	0.095382764011
0	6065	57.298165085616	0.009768155417
0	6070	57.307933241033	0.039950618667
0	6075	57.3478838597	0.032890698929
0	6080	57.380774558629	0.061232028139
0	6087	57.442006586768	0.082714087854
0	6093	57.524720674622	0.01312873271
0	6098	57.537849407332	0.022957924245
0	6103	57.560807331577	0.02185674513
0	6108	57.582664076707	0.003138512485
0	6110	57.585802589192	0.001411654624
0	6112	57.587214243816	0.088642547161
0	6123	57.675856790977	0.052807439085
0	6129	57.728664230062	0.188068985286
0	6135	57.916733215348	0.092653992144
0	6140	58.009387207492	0.120246454692
0	6146	58.129633662184	0.00289417707
0	6148	58.132527839254	0.021726044061
0	6156	58.154253883315	0.105849341685
0	6163	58.260103225	0.108949985566
0	6170	58.369053210566	0.011627457818
0	6175	58.380680668384	0.047004909803
0	6180	58.427685578187	0.025362508661
0	6185	58.453048086848	0.020613223921
0	6191	58.473661310769	0.034208636802
0	6197	58.507869947571	0.06028671293
0	6203	58.568156660501	0.016859363473
0	6208	58.585016023974	0.091429855811
0	6213	58.676445879785	0.017867109905
0	6218	58.69431298969	0.025384929649
0	6223	58.719697919339	0.077036386648
0	6228	58.796734305987	0.025594869026
0	6233	58.822329175013	0.173376481426
0	6239	58.995705656439	0.054942376686
0	6245	59.050648033125	0.007678523635
0	6250	59.05832655676	0.009883198239
0	6255	59.068209754999	0.127506228488
0	6262	59.195715983487	0.010951330195
0	6267	59.206667313682	0.000356770793
0	6269	59.207024084475	0.06583978136
0	6278	59.272863865835	0.009547627203
0	6283	59.282411493038	0.025221574619
0	6288	59.307633067657	0.024303669848
0	6293	59.331936737505	0.019665621585
0	6298	59.35160235909	0.024824746165
0	6304	59.376427105255	0.000180801049
0	6306	59.376607906304	0.025021741784
0	6314	59.401629648088	0.007041058433
0	6316	59.408670706521	0.035980786239
0	6324	59.44465149276	0.032237035252
0	6329	59.476888528012	0.081467933774
0	6334	59.558356461786	0.014655562072
0	6339	59.573012023858	0.087880513929
0	6345	59.660892537787	0.003924805696
0	6347	59.664817343483	0.012203600488
0	6355	59.677020943971	0.001044688073
0	6357	59.678065632044	0.078500526126
0	6365	59.75656615817	0.018134747629
0	6370	59.774700905799	0.050932263894
0	6375	59.825633169693	0.076121732963
0	6380	59.901754902656	0.004875523249
0	6382	59.906630425905	0.115131401348
0	6391	60.021761827253	0.145795584446
0	6396	60.167557411699	0.022393521226
0	6401	60.189950932925	0.015919446965
0	6406	60.20587037989	0.047880553122
0	6411	60.253750933012	0.095281349097
0	6417	60.349032282109	0.002542037332
0	6419	60.351574319441	0.016568126434
0	6427	60.368142445875	0.040371621497
0	6432	60.408514067372	0.161418476624
0	6439	60.569932543996	0.020856497207
0	6444	60.590789041203	0.030095904994
0	6451	60.620884946197	0.002300917503
0	6453	60.6231858637	0.031868767515
0	6462	60.655054631215	0.051550901734
0	6468	60.706605532949	0.040191623919
0	6474	60.746797156868	0.140790626286
0	6481	60.887587783154	0.000800991408
0	6483	60.888388774562	0.037864736671
0	6491	60.926253511233	0.04836821054
0	6496	60.974621721773	0.069166858887
0	6501	61.04378858066	0.101286796299
0	6507	61.145075376959	0.021135118277
0	6512	61.166210495236	0.041796710491
0	6517	61.208007205727	0.019668110588
0	6522	61.227675316315	0.066159831028
0	6527	61.293835147343	0.075364283522
0	6533	61.369199430865	0.002920816518
0	6535	61.372120247383	0.059688708875
0	6544	61.431808956258	0.050096149817
0	6553	61.481905106075	0.026205808793
0	6558	61.508110914868	0.003712407987
0	6560	61.511823322855	0.03257126197
0	6568	61.544394584825	0.107883958122
0	6574	61.652278542947	0.032652980855
0	6580	61.684931523802	0.102568290702
0	6586	61.787499814504	0.103746787547
0	6591	61.891246602051	0.009103249283
0	6597	61.900349851334	0.033080828413
0	6603	61.933430679747	0.120803633635
0	6608	62.054234313382	0.026058243619
0	6614	62.080292557001	0.262466272483
0	6621	62.342758829484	0.101357804958
0	6627	62.444116634442	0.03011289205
0	6633	62.474229526492	0.10714591148
0	6638	62.581375437972	0.05169803746
0	6643	62.633073475432	0.161526926495
0	6649	62.794600401927	0.043413883214
0	6655	62.838014285141	0.035166890407
0	6660	62.873181175548	0.040356504362
0	6665	62.91353767991	0.043385188659
0	6670	62.956922868569	0.040894957145
0	6675	62.997817825714	0.015376128513
0	6680	63.013193954227	0.038089988998
0	6685	63.051283943225	0.044830503646
0	6690	63.096114446871	0.031959772858
0	6695	63.128074219729	0.002822022806
0	6697	63.130896242535	0.026002795346
0	6706	63.156899037881	0.004478569079
0	6708	63.16137760696	0.017224110653
0	6717	63.178601717613	0.042965469832
0	6722	63.221567187445	0.028600572809
0	6727	63.250167760254	0.043781112589
0	6732	63.293948872843	0.041290767214
0	6738	63.335239640057	0.054616956595
0	6743	63.389856596652	0.056262703961
0	6749	63.446119300613	0.011437061125
0	6754	63.457556361738	0.006787463623
0	6756	63.464343825361	0.098803748054
0	6766	63.563147573415	0.047029159484
0	6771	63.610176732899	0.011403856368
0	6776	63.621580589267	0.045843290172
0	6781	63.667423879439	0.068781773981
0	6788	63.73620565342	0.051635283527
0	6793	63.787840936947	0.075174912092
0	6798	63.863015849039	0.001509221463
0	6800	63.864525070502	0.034291638598
0	6808	63.8988167091	0.010024953428
0	6813	63.908841662528	0.053324838972
0	6820	63.9621665015	0.018338652125
0	6827	63.980505153625	0.001817561777
0	6829	63.982322715402	0.014607617932
0	6834	63.996930333334	0.004126638385
0	6840	64.001056971719	0.08204525234
0	6848	64.083102224059	0.011030426753
0	6853	64.094132650812	0.069061054491
0	6859	64.163193705303	0.063107493489
0	6864	64.226301198792	0.076924729414
0	6870	64.303225928206	0.021150675355
0	6876	64.324376603561	0.132023493873
0	6881	64.456400097434	0.005367354697
0	6883	64.461767452131	0.005771820518
0	6888	64.467539272649	0.053292421868
0	6898	64.520831694517	0.046385818859
0	6903	64.567217513376	0.024428787575
0	6908	64.591646300951	0.008792030719
0	6913	64.60043833167	0.044627322576
0	6918	64.645065654246	0.002698784326
0	6920	64.647764438572	0.077087020152
0	6928	64.724851458724	0.039925673242
0	6933	64.764777131966	0.004630505821
0	6935	64.769407637787	0.072075303907
0	6943	64.841482941694	4.622982e-05
0	6945	64.841529171514	0.050469344186
0	6953	64.8919985157	0.114521496723
0	6959	65.006520012423	0.072625908277
0	6964	65.0791459207	0.065540099921
0	6970	65.144686020621	0.002040819665
0	6972	65.146726840286	0.00825121677
0	6977	65.154978057056	0.14121472892
0	6986	65.296192785976	0.047200287896
0	6991	65.343393073872	0.019669453571
0	6996	65.363062527443	0.047597578105
0	7001	65.410660105548	0.001686814342
0	7003	65.41234691989	0.00765786947
0	7008	65.42000478936	0.004175739421
0	7010	65.424180528781	0.041317128826
0	7022	65.465497657607	0.031460576974
0	7027	65.496958234581	0.111188214092
0	7034	65.608146448673	0.006043129309
0	7036	65.614189577982	0.14505383303
0	7045	65.759243411012	0.117903790144
0	7052	65.877147201156	0.008198039808
0	7054	65.885345240964	0.024816479712
0	7062	65.910161720676	0.046769976945
0	7068	65.956931697621	0.148599071968
0	7073	66.105530769589	0.068497592465
0	7079	66.174028362054	0.132546686563
0	7087	66.306575048617	0.07779371203
0	7092	66.384368760647	0.014134513044
0	7097	66.398503273691	0.104554169431
0	7102	66.503057443122	0.003457707877
0	7104	66.506515150999	0.090929388203
0	7113	66.597444539202	0.018945632144
0	7119	66.616390171346	0.095751531109
0	7124	66.712141702455	0.009616675188
0	7129	66.721758377643	0.041198470742
0	7134	66.762956848385	0.0173359961
0	7140	66.780292844485	0.035992954899
0	7145	66.816285799384	0.01707936373
0	7150	66.833365163114	0.229375185912
0	7157	67.062740349026	0.102682766007
0	7163	67.165423115033	0.013500093583
0	7168	67.178923208616	0.015853022797
0	7173	67.194776231413	0.023164536515
0	7178	67.217940767928	0.026636257955
0	7183	67.244577025883	0.031031003793
0	7189	67.275608029676	0.082713801488
0	7195	67.358321831164	0.010001237775
0	7200	67.368323068939	0.112702809845
0	7207	67.481025878784	0.118586870435
0	7213	67.599612749219	0.019196436403
0	7218	67.618809185622	0.000651233291
0	7220	67.619460418913	0.043964492451
0	7228	67.663424911364	0.033255855878
0	7233	67.696680767242	0.004884730644
0	7235	67.701565497886	0.018169688213
0	7244	67.719735186099	0.052568675905
0	7250	67.772303862004	0.022448488897
0	7256	67.794752350901	0.112288496688
0	7261	67.907040847589	0.022522957615
0	7267	67.929563805204	0.039702443732
0	7272	67.969266248936	0.049843343718
0	7277	68.019109592654	0.066125854092
0	7282	68.085235446746	0.005166078116
0	7284	68.090401524862	0.020032654388
0	7293	68.11043417925	0.013170111693
0	7298	68.123604290943	0.158376670073
0	7305	68.281980961016	0.056347898747
0	7310	68.338328859763	0.009095509183
0	7315	68.347424368946	0.028972566563
0	7321	68.376396935509	0.024541720123
0	7327	68.400938655632	0.019338485225
0	7332	68.420277140857	0.217069129985
0	7340	68.637346270842	0.019190742874
0	7345	68.656537013716	0.116239052887
0	7352	68.772776066603	0.020304831371
0	7357	68.793080897974	0.009208770987
0	7363	68.802289668961	0.045047193148
0	7369	68.847336862109	0.003675259256
0	7371	68.851012121365	0.033684281375
0	7379	68.88469640274	0.088971389983
0	7384	68.973667792723	0.058961995757
0	7390	69.03262978848	0.046791121929
0	7395	69.079420910409	0.051866822189
0	7400	69.131287732598	0.10223435575
0	7407	69.233522088348	0.045112746811
0	7412	69.278634835159	0.032565372907
0	7418	69.311200208066	0.001577790493
0	7420	69.312777998559	0.006652845467
0	7425	69.319430844026	0.022768559685
0	7434	69.342199403711	0.036467006735
0	7439	69.378666410446	0.022041161426
0	7444	69.400707571872	0.052329242197
0	7449	69.453036814069	0.005170679785
0	7451	69.458207493854	0.014742206694
0	7459	69.472949700548	0.009206292329
0	7464	69.482155992877	0.010837521396
0	7469	69.492993514273	0.001344047634
0	7471	69.494337561907	0.127975822013
0	7480	69.62231338392	0.054463611068
0	7485	69.676776994988	0.089252524431
0	7490	69.766029519419	0.054594086244
0	7495	69.820623605663	0.03760257446
0	7500	69.858226180123	0.004784792188
0	7502	69.863010972311	0.016868375321
0	7510	69.879879347632	0.160072678778
0	7517	70.03995202641	0.06974099627
0	7522	70.10969302268	0.00023402463
0	7524	70.10992704731	0.219705127741
0	7533	70.329632175051	0.004367740306
0	7535	70.333999915357	0.000157779918
0	7537	70.334157695275	0.031829716012
0	7548	70.365987411287	0.000358850786
0	7550	70.366346262073	0.009167243459
0	7555	70.375513505532	0.014394322129
0	7563	70.389907827661	0.192704726186
0	7570	70.582612553847	0.044773368808
0	7575	70.627385922655	0.013295926977
0	7580	70.640681849632	0.047101274918
0	7585	70.68778312455	0.053719420547
0	7591	70.741502545097	0.056705792824
0	7596	70.798208337921	0.054632049473
0	7601	70.852840387394	0.118751881316
0	7608	70.97159226871	0.191048175408
0	7614	71.162640444118	0.061767232015
0	7619	71.224407676133	0.025573398742
0	7624	71.249981074875	0.008163274729
0	7629	71.258144349604	0.15833572767
0	7635	71.416480077274	0.028150996148
0	7640	71.444631073422	0.076622836795
0	7645	71.521253910217	0.012781332425
0	7650	71.534035242642	0.006220246324
0	7652	71.540255488966	0.024389033906
0	7660	71.564644522872	0.05763156341
0	7665	71.622276086282	0.01351341912
0	7670	71.635789505402	0.004475326737
0	7672	71.640264832139	0.013952289465
0	7681	71.654217121604	0.05452074976
0	7687	71.708737871364	0.013311078072
0	7692	71.722048949436	0.01114929304
0	7697	71.733198242476	0.029673198731
0	7702	71.762871441207	0.01800081789
0	7707	71.780872259097	0.019844649298
0	7712	71.800716908395	0.005759738255
0	7714	71.80647664665	0.060280870153
0	7723	71.866757516803	0.124154022902
0	7730	71.990911539705	0.038757637046
0	7735	72.029669176751	0.02661231746
0	7740	72.056281494211	0.060065409521
0	7745	72.116346903732	0.04323580237
0	7752	72.159582706102	0.190645387118
0	7760	72.35022809322	0.114716668888
0	7765	72.464944762108	0.047728843089
0	7771	72.512673605197	0.016652677389
0	7776	72.529326282586	0.08101352942
0	7781	72.610339812006	0.014827424441
0	7786	72.625167236447	0.000120402542
0	7788	72.625287638989	0.012387144998
0	7793	72.637674783987	0.012378133637
0	7801	72.650052917624	0.049221997366
0	7807	72.69927491499	0.045598476315
0	7812	72.744873391305	0.000913656973
0	7814	72.745787048278	0.155538628624
0	7822	72.901325676902	0.185223725228
0	7830	73.08654940213	0.043958243657
0	7835	73.130507645787	0.015184221238
0	7840	73.145691867025	0.01191101208
0	7845	73.157602879105	0.016182946413
0	7850	73.173785825518	0.045824711437
0	7855	73.219610536955	0.014328811193
0	7860	73.233939348148	0.137851240957
0	7866	73.371790589105	0.056708546427
0	7872	73.428499135532	0.028341725008
0	7877	73.45684086054	0.010803314482
0	7882	73.467644175022	0.010995499564
0	7887	73.478639674586	0.039864992154
0	7892	73.51850466674	0.114065753906
0	7898	73.632570420646	0.120341609246
0	7903	73.752912029892	0.087040881459
0	7908	73.839952911351	0.044008071659
0	7913	73.88396098301	0.07329205236
0	7918	73.95725303537	0.120713199833
0	7924	74.077966235203	0.003712215718
0	7926	74.081678450921	0.150846433528
0	7935	74.232524884449	0.035332558033
0	7940	74.267857442482	0.055029173632
0	7945	74.322886616114	0.105965222684
0	7950	74.428851838798	0.021232672527
0	7955	74.450084511325	0.006253117551
0	7957	74.456337628876	0.047690382603
0	7965	74.504028011479	0.017440758789
0	7971	74.521468770268	0.132357883377
0	7977	74.653826653645	0.014880329434
0	7982	74.668706983079	0.012650278912
0	7987	74.681357261991	0.026765199579
0	7993	74.70812246157	0.010317767545
0	7999	74.718440229115	0.010280707316
0	8004	74.728720936431	0.108662848505
0	8009	74.837383784936	0.029400344616
0	8014	74.866784129552	0.004382134514
0	8016	74.871166264066	0.296997480148
0	8027	75.168163744214	0.02104396865
0	8032	75.189207712864	0.003813519932
0	8034	75.193021232796	0.16411186337
0	8043	75.357133096166	0.049273888688
0	8048	75.406406984854	0.033830390541
0	8053	75.440237375395	0.035366950055
0	8058	75.47560432545	0.007524449223
0	8063	75.483128774673	0.009911684561
0	8068	75.493040459234	0.002077660506
0	8070	75.49511811974	0.005183488707
0	8072	75.500301608447	0.018955519775
0	8083	75.519257128222	0.023257580941
0	8088	75.542514709163	0.009760397988
0	8093	75.552275107151	0.007570929127
0	8099	75.559846036278	0.011799907351
0	8104	75.571645943629	0.050873113376
0	8109	75.622519057005	0.004826795471
0	8111	75.627345852476	0.083318509256
0	8119	75.710664361732	0.012082189405
0	8124	75.722746551137	0.061888482228
0	8129	75.784635033365	0.00810286809
0	8134	75.792737901455	0.130018596158
0	8140	75.922756497613	0.000282496182
0	8142	75.923038993795	0.0036876682
0	8144	75.926726661995	0.010832305533
0	8152	75.937558967528	0.12475354435
0	8162	76.062312511878	0.003544781318
0	8164	76.065857293196	0.006290889512
0	8169	76.072148182708	0.07080861134
0	8177	76.142956794048	0.018772987061
0	8182	76.161729781109	0.027821671425
0	8187	76.189551452534	0.116488494463
0	8192	76.306039946997	0.053359224862
0	8198	76.359399171859	0.020900429352
0	8203	76.380299601211	0.013190839745
0	8208	76.393490440956	0.068556930671
0	8214	76.462047371627	0.001319677785
0	8216	76.463367049412	0.042271246735
0	8224	76.505638296147	0.131309532211
0	8232	76.636947828358	0.116035313232
0	8238	76.75298314159	0.037149092389
0	8244	76.790132233979	0.003254603011
0	8246	76.79338683699	0.017010059524
0	8254	76.810396896514	0.080104382769
0	8259	76.890501279283	0.010828635776
0	8264	76.901329915059	0.005187300037
0	8266	76.906517215096	0.072743547099
0	8274	76.979260762195	0.047284113941
0	8280	77.026544876136	0.061362848762
0	8286	77.087907724898	0.00793995699
0	8291	77.095847681888	0.003474351271
0	8293	77.099322033159	0.040860309001
0	8301	77.14018234216	0.00317382379
0	8303	77.14335616595	0.002728078698
0	8305	77.146084244648	0.009884191541
0	8313	77.155968436189	0.040788188126
0	8321	77.196756624315	0.041467543922
0	8326	77.238224168237	0.012376822639
0	8331	77.250600990876	0.10724566425
0	8337	77.357846655126	0.046056081711
0	8343	77.403902736837	0.026085814492
0	8348	77.429988551329	0.012511898568
0	8354	77.442500449897	0.002849768844
0	8356	77.445350218741	0.026923890838
0	8364	77.472274109579	0.103519866864
0	8369	77.575793976443	0.047018314923
0	8374	77.622812291366	0.001833341047
0	8376	77.624645632413	0.063776209995
0	8385	77.688421842408	0.002926973194
0	8387	77.691348815602	0.014550417489
0	8396	77.705899233091	0.041487306546
0	8402	77.747386539637	0.042688809071
0	8409	77.790075348708	0.01748587462
0	8414	77.807561223328	0.028508013779
0	8419	77.836069237107	0.020630135111
0	8424	77.856699372218	0.308575248902
0	8432	78.16527462112	0.135048208351
0	8439	78.300322829471	0.005211899507
0	8441	78.305534728978	0.004598260164
0	8446	78.310132989142	0.169563031085
0	8455	78.479696020227	0.010924126987
0	8460	78.490620147214	0.060335141295
0	8466	78.550955288509	0.039573144878
0	8471	78.590528433387	0.022366305116
0	8476	78.612894738503	0.084346909266
0	8481	78.697241647769	0.034482337415
0	8486	78.731723985184	0.067342526352
0	8491	78.799066511536	0.01904164184
0	8496	78.818108153376	0.004957520247
0	8498	78.823065673623	0.079028901017
0	8506	78.90209457464	0.135327233359
0	8511	79.037421807999	0.053051078102
0	8516	79.090472886101	0.060755583224
0	8521	79.151228469325	0.008884659185
0	8526	79.16011312851	0.048478507516
0	8532	79.208591636026	0.009485105719
0	8537	79.218076741745	0.028653656351
0	8542	79.246730398096	0.009050707678
0	8547	79.255781105774	0.052352025424
0	8552	79.308133131198	0.141429405206
0	8558	79.449562536404	0.001908969846
0	8560	79.45147150625	0.045207277578
0	8569	79.496678783828	0.045846420731
0	8575	79.542525204559	0.02085721927
0	8581	79.563382423829	0.003021326972
0	8583	79.566403750801	0.06678607818
0	8592	79.633189828981	0.006863532869
0	8594	79.64005336185	0.246272504943
0	8604	79.886325866793	0.122896832268
0	8609	80.009222699061	0.035011321177
0	8614	80.044234020238	0.01322904384
0	8619	80.057463064078	0.127395252646
0	8624	80.184858316724	0.029794689507
0	8629	80.214653006231	0.062490007313
0	8635	80.277143013544	0.040332606837
0	8642	80.317475620381	0.026157278965
0	8647	80.343632899346	0.071802094867
0	8652	80.415434994213	0.030950720937
0	8657	80.44638571515	0.010009641805
0	8662	80.456395356955	0.106519543469
0	8669	80.562914900424	0.018192638569
0	8674	80.581107538993	0.058965395668
0	8679	80.640072934661	0.102677600405
0	8686	80.742750535066	0.029356143005
0	8691	80.772106678071	0.058148861168
0	8696	80.830255539239	0.020535442155
0	8701	80.850790981394	0.078517096216
0	8706	80.92930807761	0.004955532203
0	8709	80.934263609813	0.012361696292
0	8717	80.946625306105	0.013188112968
0	8722	80.959813419073	0.009092618755
0	8727	80.968906037828	0.030307889712
0	8732	80.99921392754	0.126894877055
0	8737	81.126108804595	0.013766780942
0	8742	81.139875585537	0.060419574106
0	8748	81.200295159643	0.128376286025
0	8753	81.328671445668	0.027296255044
0	8758	81.355967700712	0.005256429709
0	8760	81.361224130421	0.009675909385
0	8765	81.370900039806	0.047666719954
0	8776	81.41856675976	0.051155155783
0	8781	81.469721915543	0.057136079668
0	8786	81.526857995211	0.057544232766
0	8791	81.584402227977	0.011819634549
0	8796	81.596221862526	0.040308167829
0	8801	81.636530030355	0.013034871678
0	8806	81.649564902033	0.000994495229
0	8808	81.650559397262	0.040700512615
0	8816	81.691259909877	0.046329789293
0	8821	81.73758969917	0.169815667515
0	8828	81.907405366685	0.004972653373
0	8830	81.912378020058	0.050069947623
0	8838	81.962447967681	0.044339201256
0	8843	82.006787168937	0.050822556428
0	8848	82.057609725365	0.004696005016
0	8850	82.062305730381	0.034043350808
0	8858	82.096349081189	0.022734429022
0	8863	82.119083510211	0.173738662629
0	8868	82.29282217284	0.121344905216
0	8875	82.414167078056	0.050122001355
0	8881	82.464289079411	0.121173913563
0	8886	82.585462992974	0.009136422878
0	8891	82.594599415852	0.013510567419
0	8896	82.608109983271	0.029282712317
0	8901	82.637392695588	0.018660016404
0	8906	82.656052711992	0.091702774895
0	8911	82.747755486887	0.034986235515
0	8916	82.782741722402	0.010915779399
0	8921	82.793657501801	0.122517389706
0	8926	82.916174891507	0.055653782095
0	8931	82.971828673602	0.092341532775
0	8938	83.064170206377	0.014492600207
0	8943	83.078662806584	0.004761808126
0	8945	83.08342461471	0.001291670198
0	8947	83.084716284908	0.039133517335
0	8958	83.123849802243	0.001374448469
0	8960	83.125224250712	0.008333933374
0	8965	83.133558184086	0.005977142878
0	8970	83.139535326964	0.028217648706
0	8978	83.16775297567	0.024046799461
0	8983	83.191799775131	0.025301444776
0	8988	83.217101219907	0.03481957693
0	8993	83.251920796837	0.086280067055
0	8998	83.338200863892	0.03935669741
0	9004	83.377557561302	0.04092218278
0	9009	83.418479744082	0.004866068388
0	9011	83.42334581247	0.029391985962
0	9019	83.452737798432	0.008350196712
0	9024	83.461087995144	0.003841307859
0	9026	83.464929303003	0.01565165437
0	9034	83.480580957373	0.008655261377
0	9039	83.48923621875	0.015027372042
0	9044	83.504263590792	0.007797366985
0	9049	83.512060957777	0.027233232992
0	9054	83.539294190769	0.000950105779
0	9056	83.540244296548	0.02570280714
0	9064	83.565947103688	0.122337627584
0	9070	83.688284731272	0.095554364855
0	9075	83.783839096127	0.012337537183
0	9080	83.79617663331	0.019686069172
0	9085	83.815862702482	0.004735092673
0	9087	83.820597795155	0.030285560153
0	9096	83.850883355308	0.017565233082
0	9101	83.86844858839	0.045255234979
0	9107	83.913703823369	0.023575559151
0	9112	83.93727938252	0.012492045615
0	9117	83.949771428135	0.008661771017
0	9122	83.958433199152	0.204965899692
0	9127	84.163399098844	0.003443819837
0	9129	84.166842918681	0.03621474517
0	9137	84.203057663851	0.018715268017
0	9142	84.221772931868	0.008607650017
0	9147	84.230380581885	0.044616403854
0	9152	84.274996985739	0.021220992439
0	9157	84.296217978178	0.119252329096
0	9162	84.415470307274	0.024030753165
0	9167	84.439501060439	0.006179241512
0	9169	84.445680301951	0.0102997716
0	9177	84.455980073551	0.069769639022
0	9183	84.525749712573	0.07753451073
0	9188	84.603284223303	0.068344407862
0	9195	84.671628631165	0.073848453742
0	9200	84.745477084907	0.007543513656
0	9202	84.753020598563	0.051456046596
0	9210	84.804476645159	0.014099808684
0	9216	84.818576453843	0.043810988164
0	9221	84.862387442007	0.046305054471
0	9226	84.908692496478	0.037435880625
0	9231	84.946128377103	0.104733364084
0	9237	85.050861741187	0.076601611508
0	9242	85.127463352695	0.134501745829
0	9249	85.261965098524	0.12588465637
0	9255	85.387849754894	0.055287987045
0	9260	85.443137741939	0.045987753799
0	9266	85.489125495738	0.061468976091
0	9271	85.550594471829	0.02329532494
0	9276	85.573889796769	0.0335620079
0	9281	85.607451804669	0.039703836195
0	9286	85.647155640864	0.08671773346
0	9291	85.733873374324	0.008413702185
0	9296	85.742287076509	0.029588882992
0	9302	85.771875959501	0.014745437594
0	9307	85.786621397095	0.046109752869
0	9312	85.832731149964	0.030701374282
0	9317	85.863432524246	0.076560580559
0	9323	85.939993104805	0.246497402021
0	9329	86.186490506826	0.103471510241
0	9335	86.289962017067	0.048373927808
0	9340	86.338335944875	0.052034341937
0	9345	86.390370286812	0.133661399883
0	9350	86.524031686695	0.0146698914
0	9355	86.538701578095	0.053200406008
0	9361	86.591901984103	0.005945989393
0	9363	86.597847973496	0.100745161603
0	9371	86.698593135099	0.096434056457
0	9376	86.795027191556	0.033815898324
0	9382	86.82884308988	0.045204457153
0	9388	86.874047547033	0.015595771254
0	9393	86.889643318287	0.025949352856
0	9399	86.915592671143	0.254184935208
0	9409	87.169777606351	0.016557579508
0	9414	87.186335185859	0.005201112796
0	9416	87.191536298655	0.078532310873
0	9427	87.270068609528	0.026922033568
0	9432	87.296990643096	0.051084631235
0	9438	87.348075274331	0.036698836452
0	9443	87.384774110783	0.062488311215
0	9448	87.447262421998	0.010148229273
0	9453	87.457410651271	0.010715587754
0	9458	87.468126239025	0.012975101112
0	9464	87.481101340137	0.015495542484
0	9469	87.496596882621	0.007103568297
0	9471	87.503700450918	0.012212385793
0	9479	87.515912836711	0.024871149683
0	9484	87.540783986394	0.05969228076
0	9490	87.600476267154	0.025035368855
0	9496	87.625511636009	0.012001421305
0	9501	87.637513057314	0.223120238346
0	9507	87.86063329566	0.024210607807
0	9513	87.884843903467	0.001414314582
0	9515	87.886258218049	0.136398422977
0	9523	88.022656641026	0.023929303862
0	9528	88.046585944888	0.078132235247
0	9535	88.124718180135	0.104555439665
0	9543	88.2292736198	0.007377875413
0	9545	88.236651495213	0.139944732138
0	9554	88.376596227351	0.101382882387
0	9559	88.477979109738	0.006432114165
0	9561	88.484411223903	0.001110569165
0	9563	88.485521793068	0.00669003274
0	9568	88.492211825808	0.012580158364
0	9576	88.504791984172	0.017368783288
0	9584	88.52216076746	0.057100132736
0	9591	88.579260900196	0.008773756314
0	9596	88.58803465651	0.017967067992
0	9601	88.606001724502	0.091027352569
0	9607	88.697029077071	0.031985276791
0	9612	88.729014353862	0.075642309436
0	9617	88.804656663298	0.051548042025
0	9623	88.856204705323	0.006244122392
0	9625	88.862448827715	0.002387250053
0	9630	88.864836077768	0.066305739481
0	9638	88.931141817249	0.109294682361
0	9646	89.04043649961	0.032493206644
0	9651	89.072929706254	0.100434357313
0	9656	89.173364063567	0.046838299875
0	9662	89.220202363442	0.014536291593
0	9667	89.234738655035	0.036594519313
0	9672	89.271333174348	0.049519056428
0	9677	89.320852230776	0.108586703026
0	9683	89.429438933802	0.042461557056
0	9688	89.471900490858	0.071697504867
0	9693	89.543597995725	0.06267977663
0	9698	89.606277772355	0.006427642822
0	9700	89.612705415177	0.036591390614
0	9708	89.649296805791	0.027779543396
0	9713	89.677076349187	0.179862864696
0	9719	89.856939213883	0.003104421889
0	9721	89.860043635772	0.039935263373
0	9729	89.899978899145	0.06264659794
0	9734	89.962625497085	0.029822361185
0	9740	89.99244785827	0.033320787334
0	9745	90.025768645604	0.057888084144
0	9750	90.083656729748	0.015269768823
0	9755	90.098926498571	0.10123544192
0	9761	90.200161940491	0.007797558874
0	9766	90.207959499365	0.138864070548
0	9772	90.346823569913	0.050622421108
0	9777	90.397445991021	0.01026103249
0	9782	90.407707023511	0.044698226465
0	9787	90.452405249976	0.013075584144
0	9793	90.46548083412	0.173986707109
0	9798	90.639467541229	0.045405062222
0	9803	90.684872603451	0.020025410228
0	9808	90.704898013679	0.001991495181
0	9810	90.70688950886	0.014481752983
0	9819	90.721371261843	0.015877249152
0	9824	90.737248510995	0.008198887925
0	9829	90.74544739892	0.125617399688
0	9835	90.871064798608	0.051923251287
0	9841	90.922988049895	0.022942878023
0	9846	90.945930927918	0.007058111543
0	9848	90.952989039461	0.014342657967
0	9856	90.967331697428	0.050931932302
0	9863	91.01826362973	0.010232179459
0	9868	91.028495809189	0.05252143072
0	9875	91.081017239909	0.014363850497
0	9880	91.095381090406	0.080589333345
0	9887	91.175970423751	0.12598903453
0	9893	91.301959458281	0.096080891889
0	9898	91.39804035017	0.019088147087
0	9904	91.417128497257	0.001375740273
0	9906	91.41850423753	0.005380429262
0	9908	91.423884666792	0.126403839133
0	9919	91.550288505925	0.063818621883
0	9924	91.614107127808	0.07600611718
0	9930	91.690113244988	0.01481089457
0	9935	91.704924139558	0.01727108296
0	9940	91.722195222518	0.023283139736
0	9945	91.745478362254	0.029705753897
0	9950	91.775184116151	0.185453829033
0	9959	91.960637945184	0.079888768304
0	9967	92.040526713488	0.03170014711
0	9972	92.072226860598	0.00248229584
0	9974	92.074709156438	0.003500306542
0	9976	92.07820946298	0.07216813863
0	9988	92.15037760161	0.026762071905
0	9993	92.177139673515	0.107744996055
0	9999	92.28488466957	0.035098995173
0	10004	92.319983664743	0.019864133633
0	10009	92.339847798376	0.023611019571
0	10014	92.363458817947	0.055811833083
0	10020	92.41927065103	0.025878378576
0	10025	92.445149029606	0.01763124749
0	10030	92.462780277096	0.019740082293
0	10035	92.482520359389	0.017556350224
0	10040	92.500076709613	0.016189478917
0	10045	92.51626618853	0.021994977884
0	10050	92.538261166414	0.058403053922
0	10055	92.596664220336	0.077711798063
0	10060	92.674376018399	0.0846819003
0	10065	92.759057918699	0.006999919889
0	10067	92.766057838588	0.008493568231
0	10075	92.774551406819	0.008806515937
0	10080	92.783357922756	0.080210358186
0	10085	92.863568280942	0.005740268234
0	10087	92.869308549176	0.001760192189
0	10089	92.871068741365	0.003537702367
0	10094	92.874606443732	0.070718326367
0	10105	92.945324770099	0.029945895688
0	10110	92.975270665787	0.030818555209
0	10115	93.006089220996	0.026526779898
0	10120	93.032616000894	0.09322881298
0	10126	93.125844813874	0.086776063285
0	10132	93.212620877159	0.00753977685
0	10134	93.220160654009	0.031969646716
0	10142	93.252130300725	0.083929145952
0	10148	93.336059446677	0.025410168535
0	10153	93.361469615212	0.005185382617
0	10155	93.366654997829	0.06673020014
0	10163	93.433385197969	0.010730697074
0	10168	93.444115895043	0.050206671933
0	10173	93.494322566976	0.01153398434
0	10178	93.505856551316	0.054351706838
0	10184	93.560208258154	0.051263602228
0	10190	93.611471860382	0.13136289703
0	10195	93.742834757412	0.005547129014
0	10197	93.748381886426	0.066702589692
0	10205	93.815084476118	0.035799336432
0	10210	93.85088381255	0.09004685298
0	10215	93.94093066553	0.052854024745
0	10220	93.993784690275	0.101766297407
0	10227	94.095550987682	0.050069626865
0	10232	94.145620614547	0.023669552579
0	10237	94.169290167126	0.003391029853
0	10240	94.172681196979	0.116707260038
0	10248	94.289388457017	0.000154914477
0	10250	94.289543371494	0.027320195617
0	10258	94.316863567111	0.080416407967
0	10264	94.397279975078	0.104528360452
0	10269	94.50180833553	0.175517264115
0	10274	94.677325599645	0.012547227697
0	10279	94.689872827342	0.015116513884
0	10284	94.704989341226	0.15534729088
0	10290	94.860336632106	0.012060918175
0	10295	94.872397550281	0.01122966397
0	10300	94.883627214251	0.009248345298
0	10305	94.892875559549	0.014647859821
0	10310	94.90752341937	0.08889390089
0	10316	94.99641732026	0.045241855841
0	10323	95.041659176101	0.018992694206
0	10328	95.060651870307	0.047388114875
0	10334	95.108039985182	0.004842112469
0	10336	95.112882097651	0.002341755437
0	10338	95.115223853088	0.042544568858
0	10350	95.157768421946	0.057516232494
0	10355	95.21528465444	0.0268716831
0	10361	95.24215633754	0.088834888955
0	10366	95.330991226495	0.007285803552
0	10368	95.338277030047	0.149898359049
0	10377	95.488175389096	0.022856721293
0	10382	95.511032110389	0.03576328343
0	10387	95.546795393819	0.002583193876
0	10389	95.549378587695	0.194285308183
0	10398	95.743663895878	0.076751629545
0	10403	95.820415525423	0.020036633087
0	10408	95.84045215851	0.037760405728
0	10413	95.878212564238	0.047851613534
0	10418	95.926064177772	0.002461875421
0	10420	95.928526053193	0.006360409504
0	10425	95.934886462697	0.019434788099
0	10434	95.954321250796	0.09769546477
0	10439	96.052016715566	0.068375919021
0	10446	96.120392634587	0.027430644594
0	10451	96.147823279181	0.073015235102
0	10456	96.220838514283	0.066552950838
0	10463	96.287391465121	0.018223102984
0	10468	96.305614568105	0.006457610381
0	10470	96.312072178486	0.133935675275
0	10478	96.446007853761	0.058065970107
0	10483	96.504073823868	0.043921493763
0	10488	96.547995317631	0.04433826249
0	10497	96.592333580121	0.008069771857
0	10502	96.600403351978	0.075265878507
0	10507	96.675669230485	0.161162070133
0	10515	96.836831300618	0.01742605689
0	10520	96.854257357508	0.134124596077
0	10526	96.988381953585	0.001680501971
0	10528	96.990062455556	0.075695419242
0	10536	97.065757874798	0.025983225789
0	10541	97.091741100587	0.018508524465
0	10547	97.110249625052	0.045270126632
0	10554	97.155519751684	0.045237692449
0	10559	97.200757444133	0.068351705186
0	10564	97.269109149319	0.01996256913
0	10569	97.289071718449	0.047544431481
0	10575	97.33661614993	0.080449845439
0	10580	97.417065995369	0.170677865464
0	10587	97.587743860833	0.01820536606
0	10592	97.605949226893	0.074149705926
0	10599	97.680098932819	0.05790129113
0	10604	97.738000223949	0.027420529555
0	10609	97.765420753504	0.018951714393
0	10614	97.784372467897	0.05902685047
0	10619	97.843399318367	0.024305697515
0	10624	97.867705015882	0.012086019905
0	10629	97.879791035787	0.011726579717
0	10634	97.891517615504	0.070621315383
0	10639	97.962138930887	0.045937318291
0	10644	98.008076249178	0.012528067056
0	10649	98.020604316234	0.046594920725
0	10655	98.067199236959	0.086023119819
0	10660	98.153222356778	0.175189581561
0	10666	98.328411938339	0.045075002682
0	10672	98.373486941021	0.005098409529
0	10674	98.37858535055	0.010553061182
0	10683	98.389138411732	0.055949780584
0	10689	98.445088192316	0.102235740566
0	10696	98.547323932882	0.018101879325
0	10701	98.565425812207	0.012893955108
0	10706	98.578319767315	0.03601940945
0	10711	98.614339176765	0.209670590955
0	10717	98.82400976772	0.093137765895
0	10722	98.917147533615	0.108722143108
0	10727	99.025869676723	0.039219870994
0	10732	99.065089547717	0.025985819068
0	10737	99.091075366785	8.63816e-05
0	10739	99.091161748385	0.040224128284
0	10747	99.131385876669	0.002405519329
0	10749	99.133791395998	0.046409304807
0	10757	99.180200700805	0.016735551985
0	10763	99.19693625279	0.019583651377
0	10768	99.216519904167	0.016989796015
0	10773	99.233509700182	0.113436562484
0	10778	99.346946262666	0.080733838036
0	10783	99.427680100702	0.007049006582
0	10785	99.434729107284	0.224818702498
0	10794	99.659547809782	0.000232940725
0	10796	99.659780750507	0.015347444155
0	10801	99.675128194662	0.06860191507
0	10810	99.743730109732	0.08495708962
0	10815	99.828687199352	0.054239863876
0	10820	99.882927063228	0.023112147779
0	10825	99.906039211007	0.017162539031
0	10830	99.923201750038	0.02918011097
0	10835	99.952381861008	0.105179084334
0	10840	100.057560945342	0.000713163063
0	10842	100.058274108405	0.136954862619
0	10851	100.195228971024	0.001975704756
0	10853	100.19720467578	0.019564933068
0	10861	100.216769608848	0.058704290854
0	10866	100.275473899702	0.001786418701
0	10868	100.277260318403	0.072077618231
0	10876	100.349337936634	0.018675338552
0	10881	100.368013275186	0.037727765663
0	10886	100.405741040849	0.031762462196
0	10891	100.437503503045	0.054696949923
0	10896	100.492200452968	0.063130666153
0	10901	100.555331119121	0.070084426622
0	10906	100.625415545743	0.044412693824
0	10911	100.669828239567	0.028268530901
0	10917	100.698096770468	0.064075694445
0	10922	100.762172464913	0.113545652936
0	10928	100.875718117849	0.000496380154
0	10930	100.876214498003	0.03606823917
0	10938	100.912282737173	0.010558492719
0	10943	100.922841229892	0.09974493571
0	10949	101.022586165602	0.047744850107
0	10954	101.070331015709	0.006558073523
0	10956	101.076889089232	0.044006724966
0	10964	101.120895814198	0.00911452107
0	10969	101.130010335268	0.053294052589
0	10974	101.183304387857	0.08142147789
0	10980	101.264725865747	0.102060672453
0	10985	101.3667865382	0.01240353775
0	10990	101.37919007595	0.0837672399
0	10995	101.46295731585	0.044052662067
0	11000	101.507009977917	0.003428710785
0	11002	101.510438688702	0.058951190648
0	11010	101.56938987935	0.035922876155
0	11016	101.605312755505	0.028737822188
0	11021	101.634050577693	0.035672769927
0	11026	101.66972334762	0.066341992329
0	11031	101.736065339949	0.027474544579
0	11036	101.763539884528	0.278104488981
0	11041	102.041644373509	0.181926911142
0	11047	102.223571284651	0.068251887182
0	11052	102.291823171833	0.050451023428
0	11057	102.342274195261	0.026674414231
0	11062	102.368948609492	0.005004849292
0	11064	102.373953458784	0.014390075371
0	11072	102.388343534155	0.047741968694
0	11077	102.436085502849	0.006082097122
0	11079	102.442167599971	0.018900419255
0	11087	102.461068019226	0.067262133879
0	11092	102.528330153105	0.009214922012
0	11097	102.537545075117	0.086324495993
0	11103	102.62386957111	0.025029091617
0	11108	102.648898662727	0.033844652201
0	11113	102.682743314928	0.171828069224
0	11120	102.854571384152	0.054272036991
0	11127	102.908843421143	0.068879394951
0	11133	102.977722816094	0.018304651101
0	11138	102.996027467195	0.050110431899
0	11143	103.046137899094	0.151247360785
0	11148	103.197385259879	0.016341280489
0	11153	103.213726540368	0.0579066935
0	11158	103.271633233868	0.008320039016
0	11163	103.279953272884	0.019237433596
0	11168	103.29919070648	0.070384866289
0	11173	103.369575572769	0.070531720181
0	11179	103.44010729295	0.008509468368
0	11184	103.448616761318	0.100719054683
0	11189	103.549335816001	0.055780017724
0	11196	103.605115833725	0.015227630852
0	11202	103.620343464577	0.008202581112
0	11207	103.628546045689	0.099340805512
0	11213	103.727886851201	0.010761526913
0	11218	103.738648378114	0.011642245783
0	11223	103.750290623897	0.039524187173
0	11228	103.78981481107	0.059409016056
0	11233	103.849223827126	0.012347034853
0	11238	103.861570861979	0.0752543701
0	11243	103.936825232079	0.002264266719
0	11245	103.939089498798	0.03231197394
0	11255	103.971401472738	0.017181745071
0	11260	103.988583217809	0.059648678795
0	11266	104.048231896604	0.091711349077
0	11272	104.139943245681	0.073271494245
0	11280	104.213214739926	0.027171645402
0	11286	104.240386385328	0.00055514046
0	11288	104.240941525788	0.014867873808
0	11293	104.255809399596	0.003395016158
0	11298	104.259204415754	0.046895685523
0	11306	104.306100101277	0.000124875642
0	11308	104.306224976919	0.149876467763
0	11316	104.456101444682	0.044311505866
0	11322	104.500412950548	0.054475317901
0	11327	104.554888268449	0.003646336264
0	11329	104.558534604713	0.133315179491
0	11338	104.691849784204	0.006248687553
0	11340	104.698098471757	0.016623703636
0	11348	104.714722175393	0.002352361474
0	11350	104.717074536867	0.066920908958
0	11359	104.783995445825	0.005369870975
0	11361	104.7893653168	0.052008466781
0	11369	104.841373783581	0.088106898585
0	11374	104.929480682166	0.03976572952
0	11380	104.969246411686	0.0351946662
0	11385	105.004441077886	0.042744734424
0	11390	105.04718581231	0.11603561635
0	11395	105.16322142866	0.004847582972
0	11397	105.168069011632	0.003462971366
0	11402	105.171531982998	0.04588278674
0	11410	105.217414769738	0.041824888203
0	11415	105.259239657941	0.017148812918
0	11421	105.276388470859	0.106749160656
0	11426	105.383137631515	0.023914031519
0	11431	105.407051663034	0.022954652345
0	11437	105.430006315379	0.024549933853
0	11442	105.454556249232	0.018104701571
0	11447	105.472660950803	0.003280496305
0	11449	105.475941447108	0.160013446537
0	11459	105.635954893645	0.027674300541
0	11464	105.663629194186	0.025041252796
0	11469	105.688670446982	0.07637196195
0	11476	105.765042408932	0.007423974042
0	11478	105.772466382974	0.005174516373
0	11483	105.777640899347	0.010851820128
0	11488	105.788492719475	0.032408246295
0	11496	105.82090096577	9.9370926e-05
0	11498	105.821000336696	0.036013573249
0	11508	105.857013909945	0.010817902447
0	11513	105.867831812392	0.050558614435
0	11519	105.918390426827	0.007986799755
0	11522	105.926377226582	0.074698624319
0	11530	106.001075850901	0.08214335223
0	11535	106.083219203131	0.016112516075
0	11540	106.099331719206	0.047932009976
0	11545	106.147263729182	0.052202068601
0	11551	106.199465797783	0.050946902754
0	11556	106.250412700537	0.062326576906
0	11561	106.312739277443	0.042837002798
0	11566	106.355576280241	0.011114772511
0	11571	106.366691052752	0.04775310137
0	11576	106.414444154122	0.0301060509
0	11581	106.444550205022	0.014613567193
0	11586	106.459163772215	0.08097318981
0	11591	106.540136962025	0.022023520223
0	11596	106.562160482248	0.053989784796
0	11601	106.616150267044	0.01559645511
0	11607	106.631746722154	0.054554782851
0	11612	106.686301505005	0.021281385285
0	11617	106.70758289029	0.081200160022
0	11623	106.788783050312	0.030461327938
0	11628	106.81924437825	0.028248321631
0	11633	106.847492699881	0.017403196955
0	11638	106.864895896836	0.007316440884
0	11640	106.87221233772	0.006559285253
0	11645	106.878771622973	0.013599028194
0	11653	106.892370651167	0.186703457333
0	11659	107.0790741085	0.022679599665
0	11664	107.101753708165	0.008985421375
0	11669	107.11073912954	0.016397968064
0	11674	107.127137097604	0.030431129734
0	11680	107.157568227338	0.139295005468
0	11686	107.296863232806	0.073027770027
0	11692	107.369891002833	0.008635625122
0	11697	107.378526627955	0.057463689215
0	11703	107.43599031717	0.075402650633
0	11709	107.511392967803	0.116552170605
0	11715	107.627945138408	0.066565752255
0	11721	107.694510890663	0.01823716398
0	11726	107.712748054643	0.214212252173
0	11734	107.926960306816	0.114743624894
0	11739	108.04170393171	0.050576636809
0	11744	108.092280568519	0.108243724343
0	11749	108.200524292862	0.006453116148
0	11751	108.20697740901	0.066510976166
0	11759	108.273488385176	0.030454459158
0	11765	108.303942844334	0.135104450399
0	11771	108.439047294733	0.069163461867
0	11777	108.5082107566	0.022198499426
0	11783	108.530409256026	0.057377288535
0	11788	108.587786544561	0.093321753836
0	11797	108.681108298397	0.040677986838
0	11802	108.721786285235	0.047487228211
0	11807	108.769273513446	0.114374572332
0	11813	108.883648085778	0.011320343041
0	11818	108.894968428819	0.023434208987
0	11823	108.918402637806	0.047605785431
0	11829	108.966008423237	0.044828462775
0	11834	109.010836886012	0.003943728205
0	11836	109.014780614217	0.036950661098
0	11845	109.051731275315	0.06373325198
0	11850	109.115464527295	0.011858317483
0	11856	109.127322844778	0.005462659161
0	11858	109.132785503939	0.03198153922
0	11866	109.164767043159	0.191684009601
0	11872	109.35645105276	0.095304238071
0	11881	109.451755290831	0.328511246191
0	11887	109.780266537022	0.061352192189
0	11892	109.841618729211	0.025890588403
0	11897	109.867509317614	0.150414157766
0	11906	110.01792347538	0.009329589241
0	11911	110.027253064621	0.094340366868
0	11917	110.121593431489	0.002787318142
0	11919	110.124380749631	0.016660336194
0	11927	110.141041085825	0.087183237812
0	11933	110.228224323637	0.048340382057
0	11938	110.276564705694	0.032361115009
0	11943	110.308925820703	0.084743067224
0	11948	110.393668887927	0.023011256649
0	11953	110.416680144576	0.056233072154
0	11959	110.47291321673	0.012431820385
0	11964	110.485345037115	0.019880947803
0	11969	110.505225984918	0.025430282232
0	11974	110.53065626715	0.107068001275
0	11980	110.637724268425	0.010192061272
0	11985	110.647916329697	0.00635421146
0	11987	110.654270541157	0.036198346541
0	11995	110.690468887698	0.064402690162
0	12000	110.75487157786	0.080300477328
0	12006	110.835172055188	0.017992353116
[...]
19	33626	307.101359756584	0.051875096283119
19	33637	307.153234852867	1.5064767161064
19	33766	308.659711568973	0.40745685087268
19	33794	309.067168419846	3.8004398826056
19	34214	312.867608302452	5.8994204447941
19	34933	318.767028747246	0.28341550048912
19	34960	319.050444247735	2.4560323344215
19	35262	321.506476582157	0.38033914175707
19	35309	321.886815723914	3.8447222339631
19	35758	325.731537957877	0.12055006679168
19	35769	325.852088024669	0.082054156532618
19	35770	325.934142181202	0.00389367997781
19	35771	325.93803586118	0.065690828007396
19	35772	326.003726689187	0.37144971093978
19	35810	326.375176400127	3.4087519585049
19	36112	329.783928358632	1.3116509555214
19	36249	331.095579314153	0.409731584252
19	36285	331.505310898405	2.9654569882489
19	36598	334.470767886654	0.30801043959997
19	36631	334.778778326254	0.11227835053553
19	36667	334.89105667679	1.8191124270413
19	36871	336.710169103831	0.40434970113565
19	36904	337.114518804967	0.20028252214405
19	36931	337.314801327111	0.72255248643218
19	37004	338.037353813543	0.06247937001633
19	37024	338.099833183559	2.7564590349234
19	37347	340.856292218482	0.33472434626773
19	37392	341.19101656475	1.6659532282166
19	37596	342.856969792967	1.0253215784407
19	37711	343.882291371408	1.4401605649497
19	37874	345.322451936358	5.2196537001345
19	38437	350.542105636493	1.9677084388963
19	38656	352.509814075389	2.025183544017
19	38881	354.534997619406	0.1858865230741
19	38927	354.72088414248	1.2049418481954
19	39075	355.925825990675	0.78804357804208
19	39164	356.713869568717	0.46612079151773
19	39225	357.179990360235	1.6859433135985
19	39388	358.865933673834	1.4995492971377
19	39584	360.365482970972	2.4714546160432
19	39850	362.836937587015	4.0514207698426
19	40252	366.888358356858	0.69200773455129
19	40344	367.580366091409	1.7325697347423
19	40551	369.312935826151	1.4862424754654
19	40661	370.799178301616	1.619820338183
19	40830	372.418998639799	1.9407775800157
19	40978	374.359776219815	0.21274623907562
19	40992	374.572522458891	2.8999425480483
19	41345	377.472465006939	0.81601934005726
19	41450	378.288484346996	6.7382680184412
19	42149	385.026752365437	10.024637029149
19	43244	395.051389394586	1.1338746741486
19	43400	396.185264068735	2.8158508137802
19	43666	399.001114882515	1.081750653821
20	1628	15.738833468459	0.86096279817739
20	1718	16.599796266636	0.33341202374772
20	1760	16.933208290384	3.6073540456555
20	2133	20.54056233604	0.72609649465079
20	2228	21.266658830691	2.6870643478087
20	2498	23.9537231785	1.4778512488241
20	2684	25.431574427324	1.7810281530224
20	2854	27.212602580346	1.409612563456
20	3056	28.622215143802	1.5074497257407
20	3206	30.129664869543	2.2907406566412
20	3439	32.420405526184	0.47362371133384
20	3504	32.894029237518	2.1710756795325
20	3744	35.06510491705	0.54821865427961
20	3811	35.61332357133	0.055559321220926
20	3819	35.668882892551	1.3096731910234
20	3973	36.978556083574	0.71444657483249
20	4036	37.693002658406	1.2450299325359
20	4138	38.938032590942	2.5459355623391
20	4348	41.483968153281	2.1919325935665
20	4587	43.675900746848	3.1838885703281
20	4889	46.859789317176	4.4137044892914
20	5340	51.273493806467	0.3948959027683
20	5378	51.668389709235	0.81370122565431
20	5479	52.482090934889	1.0011452389145
20	5557	53.483236173803	0.21182681135831
20	5575	53.695062985161	0.4322321622308
20	5616	54.127295147392	0.13119696548068
20	5624	54.258492112873	0.552346430194
20	5702	54.810838543067	0.049946054955799
20	5709	54.860784598023	1.6516090357807
20	5926	56.512393633804	4.2195336204284
20	6473	60.731927254232	0.71248474011361
20	6549	61.444411994346	0.25332443791537
20	6585	61.697736432261	3.2191127538603
20	6958	64.916849186121	3.1927162502911
20	7292	68.109565436412	0.16320046437007
20	7304	68.272765900782	1.3443326631414
20	7479	69.617098563923	3.3862897696965
20	7828	73.00338833362	4.7844960393431
20	8408	77.787884372963	4.5790661399877
20	8874	82.366950512951	3.0920792325992
20	9265	85.45902974555	0.7913762654514
20	9334	86.250406011001	0.56889563393132
20	9381	86.819301644932	1.3364195993055
20	9540	88.155721244238	0.78359735536344
20	9640	88.939318599601	0.047128783225195
20	9644	88.986447382826	1.8057098338561
20	9834	90.792157216682	6.8777096062568
20	10598	97.669866822939	5.0985482046935
20	11119	102.768415027632	0.83119878164032
20	11195	103.599613809272	0.60874334771372
20	11279	104.208357156986	0.26128204535407
20	11321	104.46963920234	7.3328628759565
20	12115	111.802502078296	1.0688699238859
20	12210	112.871372002182	0.76587737858726
20	12304	113.637249380769	1.2653646028625
20	12420	114.902613983631	1.6036262605274
20	12593	116.506240244158	3.0608216288528
20	12842	119.567061873011	3.4154854515294
20	13229	122.98254732454	0.5603565336599
20	13302	123.5429038582	0.43763107171345
20	13335	123.980534929913	1.1261255739684
20	13421	125.106660503881	0.69482957553201
20	13548	125.801490079413	3.8969870389886
20	14010	129.698477118402	1.8586571538404
20	14204	131.557134272242	1.6308560705875
20	14407	133.187990342829	1.9612400606226
20	14606	135.149230403452	0.91278336865713
20	14706	136.062013772109	0.66407479211159
20	14775	136.726088564221	0.21261610983616
20	14803	136.938704674057	1.8925254172841
20	14948	138.831230091341	3.6881074406589
20	15388	142.519337532	2.1534063273141
20	15612	144.672743859314	1.1377553201175
20	15788	145.810499179431	0.53140372716585
20	15885	146.341902906597	1.0875430622261
20	16003	147.429445968823	0.25147159783434
20	16042	147.680917566657	2.6354941249048
20	16314	150.316411691562	0.61017053467604
20	16390	150.926582226238	3.1084261348429
20	16773	154.035008361081	0.9333469024154
20	16869	154.968355263496	5.3735412924822
20	17505	160.341896555978	1.9191259989198
20	17652	162.261022554898	0.82403528535148
20	17783	163.085057840249	0.8868177252918
20	17870	163.971875565541	0.69301378758298
20	17932	164.664889353124	4.1290838322283
20	18395	168.793973185352	1.3231809965409
20	18498	170.117154181893	0.89333994732616
20	18603	171.010494129219	1.5727689599678
20	18769	172.583263089187	0.71570660741899
20	18815	173.298969696606	3.4358164239412
20	19154	176.734786120547	3.3327121864934
20	19506	180.06749830704	0.61937560359959
20	19590	180.68687391064	3.010198859358
20	19837	183.697072769998	2.3051224586863
20	20122	186.002195228684	1.9365379597119
20	20364	187.938733188396	5.0954209173442
20	20954	193.03415410574	0.12261907550726
20	20959	193.156773181247	2.1025788917577
20	21184	195.259352073005	1.5504381839995
20	21372	196.809790257005	0.59030953828914
20	21450	197.400099795294	0.70084934704417
20	21531	198.100949142338	5.8476063306881
20	22109	203.948555473026	0.83843197756533
20	22203	204.786987450591	2.3700192737976
20	22473	207.157006724389	0.047593426199519
20	22479	207.204600150589	0.03765941582598
20	22485	207.242259566415	0.26575954780141
20	22504	207.508019114216	2.257854897914
20	22803	209.76587401213	1.0162974883013
20	22967	210.782171500431	0.58038790918926
20	23031	211.36255940962	1.4194353649568
20	23217	212.781994774577	1.2734934440741
20	23400	214.055488218651	2.078603815396
20	23573	216.134092034047	2.0531209218722
20	23774	218.187212955919	2.554484096492
20	24093	220.741697052411	0.14776687637902
20	24121	220.88946392879	4.1397779186924
20	24581	225.029241847482	5.4004613202761
20	25143	230.429703167758	7.2797123435533
20	25893	237.709415511311	1.425439109212
20	26058	239.134854620523	5.6512945834352
20	26681	244.786149203958	0.25682558760177
20	26702	245.04297479156	0.13702297984635
20	26719	245.179997771406	1.7985907743678
20	26922	246.978588545774	0.061614969730112
20	26923	247.040203515504	1.4810831536538
20	27046	248.521286669158	0.63225391131974
20	27111	249.153540580478	0.23285807155106
20	27143	249.386398652029	0.4382609516655
20	27213	249.824659603695	0.19656927966752
20	27240	250.021228883363	1.9669280565094
20	27485	251.988156939872	3.5830227010181
20	27873	255.57117964089	0.083817940437188
20	27884	255.654997581327	0.96917999724557
20	27992	256.624177578573	3.175247977548
20	28341	259.799425556121	1.5170247485536
20	28481	261.316450304675	1.7991273197437
20	28696	263.115577624419	0.41770293841333
20	28741	263.533280562832	0.42612017425596
20	28762	263.959400737088	0.34521351413594
20	28810	264.304614251224	0.64993691794966
20	28906	264.954551169174	0.54215432692468
20	28979	265.496705496099	1.698778568611
20	29139	267.19548406471	1.6218227611385
20	29340	268.817306825849	1.705657261896
20	29501	270.522964087745	1.6092589513809
20	29703	272.132223039126	0.87825557056238
20	29796	273.010478609688	0.41449923152136
20	29874	273.424977841209	2.0055524586292
20	30074	275.430530299838	4.300034064705
20	30540	279.730564364543	3.1499201802412
20	30869	282.880484544784	1.8116118160231
20	31107	284.692096360807	4.9386557719009
20	31685	289.630752132708	1.5778955322857
20	31873	291.208647664994	4.381062272721
20	32336	295.589709937715	0.2152983759038
20	32360	295.805008313619	3.0591523287141
20	32749	298.864160642333	5.3524987132192
20	33301	304.216659355552	1.1425944970422
20	33457	305.359253852594	1.1195089188645
20	33577	306.478762771458	0.11414472245503
20	33591	306.592907493913	1.053933195652
20	33664	307.646840689565	3.689109310524
20	34048	311.335950000089	0.73421884541255
20	34122	312.070168845502	1.9291182666092
20	34342	313.999287112111	0.0020094905919448
20	34346	314.001296602703	0.87770171700685
20	34449	314.87899831971	0.91960314814841
20	34556	315.798601467858	1.941670116712
20	34803	317.74027158457	2.3147756282808
20	35083	320.055047212851	2.8912021685085
20	35427	322.946249381359	2.0789863350674
20	35697	325.025235716426	1.0739219456255
20	35780	326.099157662051	2.3367890230577
20	36012	328.435946685109	1.0193212996178
20	36098	329.455267984727	0.18660579664803
20	36105	329.641873781375	1.1856437280589
20	36212	330.827517509434	3.887271631337
20	36619	334.714789140771	1.2869433954967
20	36787	336.001732536268	2.7824382192847
20	37114	338.784170755553	0.41045477432472
20	37146	339.194625529878	0.17662011135297
20	37158	339.371245641231	0.71452308181467
20	37252	340.085768723046	0.82552603193947
20	37356	340.911294754985	0.70197370275054
20	37435	341.613268457736	2.9818416435969
20	37777	344.595110101333	0.12385834253566
20	37793	344.718968443869	2.7211493307421
20	38133	347.440117774611	0.19866809273625
20	38142	347.638785867347	0.34875618579781
20	38189	347.987542053145	0.01259495592817
20	38195	348.000137009073	0.025471707353753
20	38196	348.025608716427	2.4070380231429
20	38435	350.43264673957	2.14955888075
20	38662	352.58220562032	1.7492738289406
20	38871	354.331479449261	3.1106932002974
20	39243	357.442172649558	0.9610436751257
20	39336	358.403216324684	0.79239761346436
20	39468	359.195613938148	0.65250166457609
20	39520	359.848115602724	1.7435566723006
20	39704	361.591672275025	2.1598657830172
20	39912	363.751538058042	2.0239423281132
20	40103	365.775480386155	4.0064189071497
20	40570	369.781899293305	0.74841219680436
20	40628	370.530311490109	4.6792369117584
20	41063	375.209548401867	0.80533255074925
20	41168	376.014880952616	1.1012074021103
20	41309	377.116088354726	0.90596339924412
20	41397	378.02205175397	0.2764423474221
20	41456	378.298494101392	1.1363356653604
20	41572	379.434829766752	0.016035641887315
20	41573	379.450865408639	1.3790671656186
20	41738	380.829932574258	0.85102321771218
20	41819	381.68095579197	1.9496489850196
20	42001	383.63060477699	0.30584428973266
20	42047	383.936449066723	0.91872823392931
20	42146	384.855177300652	3.1490557181357
20	42513	388.004233018788	1.4203850495481
20	42646	389.424618068336	0.8244630247292
20	42745	390.249081093065	0.00050900414749992
20	42746	390.249590097212	5.7959158237229
20	43382	396.045505920935	0.20449906503694
20	43412	396.250004985972	2.4414390079684
20	43639	398.69144399394	0.020637562818044
20	43642	398.712081556758	4.792015191122
21	1707	16.552503218312	0.10779006338613
21	1733	16.660293281698	0.046036190843074
21	1739	16.706329472541	0.70172098912756
21	1822	17.408050461669	0.74239896989533
21	1934	18.150449431564	0.15709105161667
21	1951	18.307540483181	0.34354732195902
21	1974	18.65108780514	0.91700628609379
21	2039	19.568094091234	1.401615730503
21	2192	20.969709821737	5.510599955352
21	2795	26.480309777089	6.0191087860437
21	3446	32.499418563133	0.13766810900229
21	3475	32.637086672135	0.27846176620842
21	3510	32.915548438343	0.49922999403643
21	3575	33.414778432379	2.1978265714618
21	3810	35.612605003841	8.67579158448
21	4638	44.288396588321	1.717972069236
21	4831	46.006368657557	1.7161448254121
21	4982	47.722513482969	3.3645403093374
21	5323	51.087053792306	5.674548820253
21	5974	56.761602612559	1.7091156813988
21	6190	58.470718293958	0.068046911870576
21	6202	58.538765205829	0.71822889924091
21	6277	59.25699410507	1.82756592271
21	6506	61.08456002778	0.57603479406525
21	6576	61.660594821845	1.7770195774689
21	6748	63.437614399314	3.9840898813201
21	7205	67.421704280634	0.95917246099547
21	7323	68.380876741629	0.43578934951155
21	7368	68.816666091141	0.38852012594202
21	7406	69.205186217083	8.7779667562607
21	8430	77.983152973344	1.6852951195896
21	8602	79.668448092934	3.3285291306344
21	8937	82.996977223568	0.67765947208677
21	9069	83.674636695655	0.1538034449994
21	9092	83.828440140654	0.08270427576649
21	9106	83.91114441642	1.4213338593553
21	9254	85.332478275775	0.62638740005382
21	9328	85.958865675829	0.61723120530533
21	9360	86.576096881134	0.76398122080386
21	9437	87.340078101938	1.3003544142397
21	9606	88.640432516178	10.997058167795
21	10793	99.637490683973	4.3203153831811
21	11253	103.957806067154	1.959209273186
21	11518	105.91701534034	2.6101736944606
21	11782	108.527189034801	0.34171269675737
21	11812	108.868901731558	1.0947898909368
21	11903	109.963691622495	2.1139643226587
21	12144	112.077655945154	0.32654359940965
21	12182	112.404199544564	0.063351923325222
21	12183	112.467551467889	6.1814815137567
21	12749	118.649032981646	1.4645458365932
21	12885	120.113578818239	0.78038040994316
21	12982	120.893959228182	3.2610210509001
21	13347	124.154980279082	0.86766585199832
21	13410	125.02264613108	0.69647389055421
21	13531	125.719120021634	0.76691078771486
21	13606	126.486030809349	1.1490289914167
21	13721	127.635059800766	4.079465219185
21	14222	131.714525019951	0.31460406164833
21	14277	132.029129081599	5.1288370910931
21	14814	137.157966172692	0.61154553594232
21	14874	137.769511708634	0.19174325682611
21	14886	137.96125496546	3.7695271132067
21	15324	141.730782078667	1.2381101282649
21	15460	142.968892206932	1.2120785862698
21	15563	144.180970793202	2.7626041446058
21	15946	146.943574937808	0.42500170323446
21	16002	147.368576641042	1.1744092674008
21	16160	148.542985908443	2.3898385602755
21	16394	150.932824468719	5.1298271789872
21	17013	156.062651647706	1.5995606304174
21	17200	157.662212278123	0.50089010731385
21	17239	158.163102385437	0.15496615283098
21	17255	158.318068538268	2.7157559017953
21	17565	161.033824440063	7.2019031982465
21	18332	168.235727638309	0.042855216566476
21	18333	168.278582854875	1.5174459865045
21	18465	169.79602884138	0.089737447644656
21	18471	169.885766289025	0.41284252552138
21	18515	170.298608814546	1.6349944150456
21	18699	171.933603229592	0.79275846949561
21	18790	172.726361699088	0.24126881626427
21	18798	172.967630515352	0.15331910582317
21	18805	173.120949621175	1.2259134876009
21	18948	174.346863108776	1.8310975611637
21	19117	176.17796066994	0.12462228384535
21	19136	176.302582953785	1.3392632281029
21	19286	177.641846181888	1.6526222997038
21	19473	179.294468481592	0.47270487396206
21	19498	179.767173355554	0.587734290697
21	19543	180.354907646251	3.5338665780104
21	19869	183.888774224261	2.4771978060862
21	20164	186.365972030347	1.0542413623328
21	20297	187.42021339268	0.70219522580963
21	20386	188.12240861849	1.7426654632793
21	20576	189.865074081769	1.0984984955075
21	20726	190.963572577277	0.55024616639063
21	20799	191.513818743668	4.1914939499765
21	21242	195.705312693644	5.393111151761
21	21816	201.098423845405	3.9165751288383
21	22250	205.014998974243	2.1268735447892
21	22472	207.141872519032	0.8405081413838
21	22579	207.982380660416	1.2235860901728
21	22758	209.205966750589	0.84777965545419
21	22841	210.053746406043	1.4922939142012
21	23044	211.546040320244	0.081353141734961
21	23060	211.627393461979	1.2592055045236
21	23233	212.886598966503	0.34705913949692
21	23293	213.233658106	2.6409966257265
21	23555	215.874654731726	0.41311787349608
21	23580	216.287772605222	3.4592361129485
21	23977	219.74700871817	0.091093801044706
21	23990	219.838102519215	1.0672108555986
21	24130	220.905313374814	0.57522982041332
21	24190	221.480543195227	0.56383350471109
21	24223	222.044376699938	1.6426467239966
21	24411	223.687023423935	0.047798619517334
21	24418	223.734822043452	2.0628092732734
21	24652	225.797631316725	0.71515443886748
21	24736	226.512785755592	0.086900963032805
21	24739	226.599686718625	3.5355660888334
21	25127	230.135252807458	0.39489770965251
21	25145	230.530150517111	0.75759099670991
21	25246	231.287741513821	0.52690369711914
21	25313	231.81464521094	0.71230790974171
21	25383	232.526953120682	2.3691639734417
21	25605	234.896117094124	4.2319802101439
21	26057	239.128097304268	2.9275439637117
21	26379	242.05564126798	1.147688819088
21	26520	243.203330087068	4.0511171459744
21	26951	247.254447233042	2.7659600801937
21	27239	250.020407313236	1.1956524574268
21	27379	251.216059770663	0.12080179988486
21	27389	251.336861570548	1.2691510491995
21	27555	252.606012619748	2.7199326253821
21	27841	255.32594524513	4.2738274105887
21	28298	259.599772655719	2.3708479342266
21	28564	261.970620589946	7.217706813301
21	29380	269.188327403247	1.0703884566856
21	29468	270.258715859933	4.0717212812561
21	29947	274.330437141189	0.2781534301252
21	29980	274.608590571314	1.4778855867877
21	30128	276.086476158102	0.11272502877169
21	30142	276.199201186874	3.7366491361357
21	30578	279.93585032301	3.2608851162736
21	30934	283.196735439284	0.6672422098433
21	31026	283.863977649127	0.78238436461658
21	31100	284.646362013744	0.83247236250209
21	31181	285.478834376246	1.8057120277148
21	31401	287.284546403961	8.259238327772
21	32329	295.543784731733	2.266164648383
21	32632	297.809949380116	5.3654443656957
21	33152	303.175393745812	2.7099596290049
21	33505	305.885353374817	4.8841200432802
21	33981	310.769473418097	0.61225525552811
21	34054	311.381728673625	4.0358595410675
21	34524	315.417588214692	1.9912868244387
21	34755	317.408875039131	0.063559492654555
21	34761	317.472434531786	0.47114397669274
21	34824	317.943578508479	1.7977261070082
21	35046	319.741304615487	0.43414405499011
21	35103	320.175448670477	3.9016020178834
21	35553	324.07705068836	1.0472509056997
21	35703	325.12430159406	0.88821379666433
21	35774	326.012515390724	4.3110118347577
21	36176	330.323527225482	5.8290325947862
21	36814	336.152559820268	2.9020841911652
21	37134	339.054644011433	4.90244653883
21	37722	343.957090550263	3.7031661238115
21	38148	347.660256674074	1.9196991092914
21	38365	349.579955783365	0.10936656649238
21	38376	349.689322349857	3.2986686603335
21	38711	352.987991010191	5.412444709718
21	39335	358.400435719909	0.42581407651599
21	39384	358.826249796425	2.1832551429469
21	39645	361.009504939372	1.4456645184465
21	39810	362.455169457819	1.2560573759529
21	39911	363.711226833772	2.4011865755855
21	40138	366.112413409358	1.2540448303894
21	40317	367.366458239747	0.52005599268968
21	40400	367.886514232437	0.055275055167228
21	40409	367.941789287604	0.96568975067163
21	40503	368.907479038276	0.0010296125152326
21	40504	368.908508650791	2.9331234922215
21	40757	371.841632143012	5.2471256944421
21	41296	377.088757837454	0.94626464462971
21	41398	378.035022482084	2.6016086587845
21	41724	380.636631140869	0.85944820011621
21	41783	381.496079340985	5.5404836966117
21	42421	387.036563037597	2.0377299122004
21	42618	389.074292949797	4.7008425780065
21	43142	393.775135527803	0.92460433250329
21	43195	394.699739860306	1.9229685415366
21	43455	396.622708401843	1.764258415453
21	43622	398.386966817296	1.4362755399684
21	43761	399.823242357264	3.3629458158016

