file 1750160 1614185371                                         
version 2
run Nonmonitoring-exponential-552-20210224-17:49:31-27080
attr configname Nonmonitoring-exponential
attr datetime 20210224-17:49:31
attr experiment Nonmonitoring-exponential
attr inifile aerocom.ini
attr iterationvars $0=50
attr iterationvarsf 50-
attr measurement $0=50
attr network Aerocom
attr processid 27080
attr repetition 52
attr replication #52
attr resultdir results
attr runnumber 552
attr seedset 52
param **.t 2s
param **.k 50ms
param **.X 0.05s
param **.m 1s
param **.tDistribution "\"exponential\""
param **.operationMode 1
param **.s "70 byte"
param **.dimPoolMax 10000
param **.dimPoolMin 8000
param **.nDL 16
param **.nA 1
param **.DLMaxCapacity 0
param **.trasmitting false

vector 0 Aerocom.aircraft[0].packetGenerator arrivalTime:vector ETV
attr "" ""
attr source computeArrivalTime
vector 1 Aerocom.aircraft[0].linkSelector waitingTime:vector ETV
attr "" ""
attr source computeWaitingTime
vector 2 Aerocom.aircraft[0].linkSelector queueLength:vector ETV
attr "" ""
attr source computeQueueLength
vector 3 Aerocom.aircraft[0].dataLink[15] actualCapacity:vector ETV
attr "" ""
attr source computeActualCapacity
vector 4 Aerocom.aircraft[0].linkSelector serviceTime:vector ETV
attr "" ""
attr source computeServiceTime
vector 5 Aerocom.aircraft[0].linkSelector responseTime:vector ETV
attr "" ""
attr source computeResponseTime
vector 6 Aerocom.aircraft[0].dataLink[0] tDistribution:vector ETV
attr "" ""
attr source computeTDistribution
vector 7 Aerocom.aircraft[0].dataLink[14] tDistribution:vector ETV
attr "" ""
attr source computeTDistribution
vector 8 Aerocom.aircraft[0].dataLink[6] tDistribution:vector ETV
attr "" ""
attr source computeTDistribution
vector 9 Aerocom.aircraft[0].dataLink[9] tDistribution:vector ETV
attr "" ""
attr source computeTDistribution
vector 10 Aerocom.aircraft[0].dataLink[13] tDistribution:vector ETV
attr "" ""
attr source computeTDistribution
vector 11 Aerocom.aircraft[0].dataLink[7] tDistribution:vector ETV
attr "" ""
attr source computeTDistribution
vector 12 Aerocom.aircraft[0].dataLink[5] tDistribution:vector ETV
attr "" ""
attr source computeTDistribution
vector 13 Aerocom.aircraft[0].dataLink[11] tDistribution:vector ETV
attr "" ""
attr source computeTDistribution
vector 14 Aerocom.aircraft[0].dataLink[8] tDistribution:vector ETV
attr "" ""
attr source computeTDistribution
vector 15 Aerocom.aircraft[0].dataLink[15] tDistribution:vector ETV
attr "" ""
attr source computeTDistribution
vector 16 Aerocom.aircraft[0].dataLink[12] tDistribution:vector ETV
attr "" ""
attr source computeTDistribution
vector 17 Aerocom.aircraft[0].dataLink[3] tDistribution:vector ETV
attr "" ""
attr source computeTDistribution
vector 18 Aerocom.aircraft[0].dataLink[4] tDistribution:vector ETV
attr "" ""
attr source computeTDistribution
vector 19 Aerocom.aircraft[0].dataLink[2] tDistribution:vector ETV
attr "" ""
attr source computeTDistribution
vector 20 Aerocom.aircraft[0].dataLink[10] tDistribution:vector ETV
attr "" ""
attr source computeTDistribution
vector 21 Aerocom.aircraft[0].dataLink[1] tDistribution:vector ETV
attr "" ""
attr source computeTDistribution
0	3134 308226 1006 43292 10.102962681891 399.988345062933 7835 1.8223413e-05 0.469466009069 389.96679063304 39.412772278137
1	311360 223737 1007 43293 10.102962681891 399.988345062933 7835 0 0.022621981487 5.947481558308 0.039725310699086
2	535097 207240 1007 43293 10.102962681891 399.988345062933 7835 0 2 122 136
3	742337 230745 1007 43293 10.102962681891 399.988345062933 7835 8003 9985 70729238 640346434794
4	973082 339421 1007 43293 10.102962681891 399.988345062933 7835 0.0070105157736605 0.0087467199800075 60.932023483594 0.47525847146484
5	1312503 308151 1008 43295 10.110091717434 399.996692308342 7835 0.007010515774 0.030847598408 66.879505041894 0.60830885247766
6	1620654 8048 1018 43281 10.13987049796 399.842264865849 197 0.0081480152849511 12.31592739508 391.49854023902 1701.6553840171
7	1628702 7004 1027 43275 10.237191841939 399.736498828813 172 0.0050079964596159 9.8561794671552 389.80994927365 1548.5577099425
8	1635706 8111 1033 43073 10.312535339956 397.86461106869 199 0.022735898505575 15.359568713717 390.06335941485 1779.2333622116
9	1643817 8058 1051 43222 10.399724576316 399.05592662681 197 0.0046177372148918 9.2995191136612 390.24763739025 1483.0991890703
10	1651875 8487 1055 43294 10.417750565961 399.996159852537 203 0.0073187411264328 9.0730258228599 390.75152852359 1484.8919425708
11	1660362 8390 1111 43034 10.910795375591 397.446629539589 201 0.0020850553231425 9.6843598951599 390.41740601173 1472.6608903102
12	1668752 7924 1112 42757 10.999106947327 394.883513496755 190 0.0034608928550526 12.730694602212 391.65873782325 1603.7502257736
13	1676676 7248 1113 42913 11.156554577566 396.495044917598 174 0.0035904962659028 9.6182748835847 392.4412688271 1667.5067755292
14	1683924 9017 1124 43239 11.258029266424 399.401059263145 215 0.011257765851436 12.412087203034 388.78673714042 1535.0160081799
15	1692941 8118 1175 43111 11.771241127178 398.131214839697 194 0.001589447241552 11.278056263371 391.90672844085 1638.1184218921
16	1701059 7836 1201 42889 11.998010516823 396.257007382165 187 0.00016596065209865 9.6500427792182 392.89279674543 1700.8730759489
17	1708895 8922 1217 43128 12.052448460923 398.315211955856 213 0.0034079261392337 17.855977076428 390.0713095946 1574.4280051075
18	1717817 8036 1249 43186 12.473165590156 398.822252063444 193 0.010383063439457 15.373882673776 390.02298639967 1702.3452861154
19	1725853 8356 1355 43238 13.788256337657 399.359027944775 200 0.0094386318148235 10.158462823619 389.23803912778 1464.1433708718
20	1734209 7188 1366 42773 13.842996002108 395.00355212074 173 0.0030429389439038 12.333251993788 388.02688136187 1752.291999103
21	1741397 8762 1386 43041 14.102034468174 397.514054866944 209 7.7049800746828e-05 11.792205455971 386.07663646732 1409.4652628018

