file 8728380 1614185331                                         
version 2
run Nonmonitoring-exponential-186-20210224-17:48:50-26767
attr configname Nonmonitoring-exponential
attr datetime 20210224-17:48:50
attr experiment Nonmonitoring-exponential
attr inifile aerocom.ini
attr iterationvars $0=10
attr iterationvarsf 10-
attr measurement $0=10
attr network Aerocom
attr processid 26767
attr repetition 86
attr replication #86
attr resultdir results
attr runnumber 186
attr seedset 86
param **.t 2s
param **.k 10ms
param **.X 0.05s
param **.m 1s
param **.tDistribution "\"exponential\""
param **.operationMode 1
param **.s "70 byte"
param **.dimPoolMax 10000
param **.dimPoolMin 8000
param **.nDL 16
param **.nA 1
param **.DLMaxCapacity 0
param **.trasmitting false

vector 0 Aerocom.aircraft[0].linkSelector responseTime:vector ETV
attr "" ""
attr source computeResponseTime
vector 1 Aerocom.aircraft[0].linkSelector waitingTime:vector ETV
attr "" ""
attr source computeWaitingTime
vector 2 Aerocom.aircraft[0].linkSelector queueLength:vector ETV
attr "" ""
attr source computeQueueLength
vector 3 Aerocom.aircraft[0].dataLink[2] actualCapacity:vector ETV
attr "" ""
attr source computeActualCapacity
vector 4 Aerocom.aircraft[0].linkSelector serviceTime:vector ETV
attr "" ""
attr source computeServiceTime
vector 5 Aerocom.aircraft[0].packetGenerator arrivalTime:vector ETV
attr "" ""
attr source computeArrivalTime
vector 6 Aerocom.aircraft[0].dataLink[1] tDistribution:vector ETV
attr "" ""
attr source computeTDistribution
vector 7 Aerocom.aircraft[0].dataLink[10] tDistribution:vector ETV
attr "" ""
attr source computeTDistribution
vector 8 Aerocom.aircraft[0].dataLink[11] tDistribution:vector ETV
attr "" ""
attr source computeTDistribution
vector 9 Aerocom.aircraft[0].dataLink[7] tDistribution:vector ETV
attr "" ""
attr source computeTDistribution
vector 10 Aerocom.aircraft[0].dataLink[4] tDistribution:vector ETV
attr "" ""
attr source computeTDistribution
vector 11 Aerocom.aircraft[0].dataLink[15] tDistribution:vector ETV
attr "" ""
attr source computeTDistribution
vector 12 Aerocom.aircraft[0].dataLink[14] tDistribution:vector ETV
attr "" ""
attr source computeTDistribution
vector 13 Aerocom.aircraft[0].dataLink[13] tDistribution:vector ETV
attr "" ""
attr source computeTDistribution
vector 14 Aerocom.aircraft[0].dataLink[9] tDistribution:vector ETV
attr "" ""
attr source computeTDistribution
vector 15 Aerocom.aircraft[0].dataLink[2] tDistribution:vector ETV
attr "" ""
attr source computeTDistribution
vector 16 Aerocom.aircraft[0].dataLink[6] tDistribution:vector ETV
attr "" ""
attr source computeTDistribution
vector 17 Aerocom.aircraft[0].dataLink[8] tDistribution:vector ETV
attr "" ""
attr source computeTDistribution
vector 18 Aerocom.aircraft[0].dataLink[12] tDistribution:vector ETV
attr "" ""
attr source computeTDistribution
vector 19 Aerocom.aircraft[0].dataLink[0] tDistribution:vector ETV
attr "" ""
attr source computeTDistribution
vector 20 Aerocom.aircraft[0].dataLink[3] tDistribution:vector ETV
attr "" ""
attr source computeTDistribution
vector 21 Aerocom.aircraft[0].dataLink[5] tDistribution:vector ETV
attr "" ""
attr source computeTDistribution
5	3133 1307429 5502 171920 10.011289412545 334.842361909393 32768 2.43136e-07 0.108377307583 324.83893214846 6.4091038795964
0	1310562 1307714 5499 171928 10.005309330799 334.85179170217 32768 0.007008410092 0.137045460948 712.7142988583 24.640805770364
1	2618276 1214899 5499 171928 10.005309330799 334.85179170217 32768 0 0.128485910936 459.13760178122 15.439098291809
2	3833175 885620 5499 171928 10.005309330799 334.85179170217 32768 0 15 45629 192433
3	4718795 983712 5499 171928 10.005309330799 334.85179170217 32768 8027 9988 297260943 2704277908143
4	5702507 1438149 5499 171928 10.005309330799 334.85179170217 32768 0.0070084100921105 0.0087205680827208 253.57569977692 1.968027710108
0	7140656 266132 171935 205096 334.85923217836 399.993504473321 6527 0.007014028056 0.147451139638 140.54360170592 5.0265686465437
1	7406788 247483 171935 205096 334.85923217836 399.993504473321 6527 0 0.139245770983 90.163823958686 3.2240682609384
2	7654271 182090 171935 205096 334.85923217836 399.993504473321 6527 0 16 8998 41744
3	7836361 201580 171935 205096 334.85923217836 399.993504473321 6527 8117 9981 59375969 541697844837
4	8037941 292121 171935 205096 334.85923217836 399.993504473321 6527 0.0070133253181044 0.0086238758161882 50.370294455886 0.38985373523136
5	8330062 266149 171926 205104 334.850221561005 399.997869836194 6529 1.505366e-06 0.102258972764 65.15221038863 1.3302673131206
6	8596211 8709 5540 204744 10.084620095764 399.321282842496 210 0.0033501387433606 9.603104919092 390.28661046971 1380.6531338843
7	8604920 7803 5541 205103 10.085659499258 399.997760384169 188 0.0012499180511165 13.097503381983 390.16470803661 1620.7995546009
8	8612723 7246 5556 202519 10.117785478412 394.938245222496 175 0.0011219953774782 14.304341484575 392.42500060648 1825.5036078053
9	8619969 8321 5619 204161 10.2118963015 398.186694491541 201 0.010620227183636 10.594798587137 391.08936693964 1625.9682566106
10	8628290 8269 5757 204936 10.408861767147 399.693997726714 195 0.013176667788925 10.543128986156 390.25120437117 1541.4613017761
11	8636559 9519 5870 204841 10.614198165464 399.507664807415 224 0.029280757076375 8.3813405355761 389.43239524035 1293.3825743605
12	8646078 8209 5919 203864 10.679175869026 397.630444172437 193 0.01972544460637 13.695605829863 389.92964331724 1631.0120386517
13	8654287 7987 6141 203133 11.097424363988 396.151763316257 188 0.0025017656310582 9.545965871045 389.62276322518 1568.8689272692
14	8662274 8069 6195 204856 11.200255338004 399.558322302448 190 0.00061307743648098 10.64403621996 389.53825814171 1537.3461448186
15	8670343 8048 6329 203296 11.448335985456 396.460281135988 189 0.0044191506581933 12.219413984712 390.60351950159 1602.8316094787
16	8678391 7802 6564 204834 11.838629822834 399.477812052122 184 0.0067675148971338 10.478907345209 391.03477754682 1461.4901049206
17	8686193 7911 6610 205002 11.907882715964 399.788332352241 186 0.03754172165182 10.621297887546 389.74690926456 1425.3705185678
18	8694104 8288 7044 205030 12.738260383407 399.842587412773 195 0.0037802584674084 11.396238715416 390.15257064766 1529.2604651068
19	8702392 8857 7436 203259 13.53156306835 396.400968929785 208 0.00099922155315422 8.3921582407083 387.42014620861 1397.9435861144
20	8711249 9253 7694 205055 13.940533822959 399.912073056542 217 0.00032447209575328 8.5022277248252 389.09230010746 1365.4263340519
21	8720502 7877 8872 204919 16.503648462169 399.665876770218 185 0.0039066730262408 12.124300669057 389.2876862253 1674.0890691921

